# generated using pymatgen
data_Na2La3Ta5(PO4)12
_symmetry_space_group_name_H-M   'P 1'
_cell_length_a   17.98600101
_cell_length_b   8.99894195
_cell_length_c   23.39899827
_cell_angle_alpha   89.98489623
_cell_angle_beta   90.07592809
_cell_angle_gamma   119.95583697
_symmetry_Int_Tables_number   1
_chemical_formula_structural   Na2La3Ta5(PO4)12
_chemical_formula_sum   'Na6 La9 Ta15 P36 O144'
_cell_volume   3281.30522134
_cell_formula_units_Z   3
loop_
 _symmetry_equiv_pos_site_id
 _symmetry_equiv_pos_as_xyz
  1  'x, y, z'
loop_
 _atom_site_type_symbol
 _atom_site_label
 _atom_site_symmetry_multiplicity
 _atom_site_fract_x
 _atom_site_fract_y
 _atom_site_fract_z
 _atom_site_occupancy
  Na  Na0  1  0.33132754  0.32940113  0.83182053  1
  Na  Na1  1  0.83539169  0.33749311  0.83233354  1
  Na  Na2  1  0.33256090  0.32886791  0.33112612  1
  Na  Na3  1  0.83360526  0.33840449  0.32920252  1
  Na  Na4  1  0.66655139  0.66579810  0.16558991  1
  Na  Na5  1  0.16564756  0.66477606  0.66458943  1
  La  La6  1  0.99076192  0.99724584  0.36292987  1
  La  La7  1  0.34020291  0.33437311  0.69154946  1
  La  La8  1  0.82607648  0.33021516  0.68892815  1
  La  La9  1  0.33002270  0.33038411  0.18817123  1
  La  La10  1  0.83507725  0.33362365  0.18594410  1
  La  La11  1  0.66673182  0.66711355  0.01112803  1
  La  La12  1  0.17358077  0.68001627  0.51675585  1
  La  La13  1  0.67053387  0.66946796  0.31194543  1
  La  La14  1  0.16608222  0.66645614  0.81245861  1
  Ta  Ta15  1  0.50336183  0.00407890  0.35702514  1
  Ta  Ta16  1  0.00328070  0.00269144  0.85648350  1
  Ta  Ta17  1  0.49653307  0.99643520  0.85631611  1
  Ta  Ta18  1  0.99586153  0.99601491  0.64227946  1
  Ta  Ta19  1  0.50475638  0.00543728  0.64222102  1
  Ta  Ta20  1  0.00510066  0.00467086  0.14599744  1
  Ta  Ta21  1  0.49553199  0.99584387  0.14392314  1
  Ta  Ta22  1  0.33616276  0.33782671  0.98504987  1
  Ta  Ta23  1  0.83088254  0.32790422  0.98452858  1
  Ta  Ta24  1  0.33097337  0.33453308  0.48202676  1
  Ta  Ta25  1  0.83679226  0.33686690  0.48421121  1
  Ta  Ta26  1  0.16592415  0.66599044  0.01593305  1
  Ta  Ta27  1  0.66253787  0.66304744  0.51750646  1
  Ta  Ta28  1  0.16638651  0.66495267  0.31125042  1
  Ta  Ta29  1  0.66772879  0.66798912  0.81204645  1
  P  P30  1  0.13950556  0.98298969  0.25204957  1
  P  P31  1  0.63519138  0.99575326  0.24984233  1
  P  P32  1  0.35822240  0.72699861  0.25506960  1
  P  P33  1  0.85333998  0.71949241  0.24445474  1
  P  P34  1  0.01060225  0.30018898  0.24998252  1
  P  P35  1  0.50135666  0.27526824  0.24980074  1
  P  P36  1  0.13541023  0.27318270  0.74925721  1
  P  P37  1  0.63460313  0.28574354  0.75414497  1
  P  P38  1  0.00060486  0.72769645  0.74922057  1
  P  P39  1  0.50891736  0.73281239  0.75383470  1
  P  P40  1  0.36286870  0.99102044  0.74868248  1
  P  P41  1  0.85791239  0.98982380  0.75453890  1
  P  P42  1  0.48080971  0.32915798  0.57957374  1
  P  P43  1  0.97787217  0.32654044  0.58617961  1
  P  P44  1  0.18243526  0.04998823  0.58471922  1
  P  P45  1  0.68649318  0.03361469  0.58157688  1
  P  P46  1  0.34096628  0.63282696  0.58623625  1
  P  P47  1  0.83128781  0.63035574  0.57996978  1
  P  P48  1  0.47972027  0.63423663  0.08522623  1
  P  P49  1  0.98291068  0.63561099  0.07900086  1
  P  P50  1  0.33187634  0.03365258  0.07986691  1
  P  P51  1  0.84062294  0.03899550  0.08397116  1
  P  P52  1  0.18566560  0.33764595  0.08075490  1
  P  P53  1  0.67875069  0.31746633  0.08292245  1
  P  P54  1  0.31534502  0.66263846  0.91868861  1
  P  P55  1  0.81615676  0.65894173  0.91231529  1
  P  P56  1  0.01533969  0.36754746  0.91851153  1
  P  P57  1  0.51388299  0.37000697  0.91222047  1
  P  P58  1  0.17020616  0.97056196  0.91863387  1
  P  P59  1  0.66954820  0.97120345  0.91238824  1
  P  P60  1  0.31612508  0.97392340  0.41180475  1
  P  P61  1  0.80739700  0.96617620  0.42374300  1
  P  P62  1  0.17845402  0.38625979  0.41504818  1
  P  P63  1  0.66919564  0.37095474  0.41957450  1
  P  P64  1  0.01392535  0.63847435  0.41476307  1
  P  P65  1  0.51624980  0.66315565  0.41865923  1
  O  O66  1  0.09810271  0.00894811  0.30295443  1
  O  O67  1  0.58679247  0.99407676  0.30615174  1
  O  O68  1  0.41584672  0.82549694  0.30710575  1
  O  O69  1  0.89514263  0.80107112  0.30020185  1
  O  O70  1  0.50648128  0.17609385  0.30347925  1
  O  O71  1  0.99486652  0.19832565  0.30330429  1
  O  O72  1  0.08688489  0.17930397  0.80605302  1
  O  O73  1  0.58195732  0.17255278  0.80462923  1
  O  O74  1  0.50075906  0.82605911  0.80698557  1
  O  O75  1  0.00598967  0.83591334  0.80360066  1
  O  O76  1  0.40876803  0.97907172  0.80374088  1
  O  O77  1  0.91455293  0.00510535  0.80711128  1
  O  O78  1  0.41577873  0.99493443  0.69428494  1
  O  O79  1  0.89798638  0.97040400  0.69860315  1
  O  O80  1  0.08047753  0.16795265  0.69622911  1
  O  O81  1  0.58876799  0.20469964  0.69650426  1
  O  O82  1  0.99795381  0.82304199  0.69364472  1
  O  O83  1  0.51861796  0.83824435  0.69879805  1
  O  O84  1  0.39969839  0.82612953  0.19837975  1
  O  O85  1  0.91334388  0.83340956  0.19147529  1
  O  O86  1  0.01887952  0.20142414  0.19559062  1
  O  O87  1  0.49798158  0.17373092  0.19349145  1
  O  O88  1  0.08879002  0.97322490  0.19435694  1
  O  O89  1  0.58077328  0.99343932  0.19593630  1
  O  O90  1  0.45477884  0.37950776  0.63385390  1
  O  O91  1  0.93822756  0.35528598  0.63891051  1
  O  O92  1  0.23681717  0.13175654  0.63680522  1
  O  O93  1  0.73732352  0.08441725  0.63627917  1
  O  O94  1  0.32908773  0.53099083  0.63961752  1
  O  O95  1  0.80557950  0.52273024  0.63342081  1
  O  O96  1  0.44342094  0.52606477  0.13798328  1
  O  O97  1  0.95654677  0.52709733  0.13158358  1
  O  O98  1  0.30541595  0.09053907  0.13238698  1
  O  O99  1  0.82240681  0.10706294  0.13746870  1
  O  O100  1  0.23876442  0.39365756  0.13425726  1
  O  O101  1  0.73262894  0.35093318  0.13543464  1
  O  O102  1  0.23728773  0.30957122  0.03101625  1
  O  O103  1  0.73163580  0.29998897  0.02924935  1
  O  O104  1  0.42035709  0.52931212  0.03182411  1
  O  O105  1  0.91595247  0.53291443  0.02848246  1
  O  O106  1  0.34953931  0.16468108  0.02914349  1
  O  O107  1  0.84587689  0.16317314  0.03142762  1
  O  O108  1  0.23215079  0.16418516  0.52980729  1
  O  O109  1  0.73406634  0.16415440  0.53288494  1
  O  O110  1  0.34776063  0.53172269  0.53268681  1
  O  O111  1  0.85042500  0.53705044  0.53017544  1
  O  O112  1  0.41600463  0.29517271  0.52963328  1
  O  O113  1  0.91916998  0.30860922  0.53263648  1
  O  O114  1  0.26592361  0.69261673  0.96749696  1
  O  O115  1  0.79136171  0.71191012  0.96653939  1
  O  O116  1  0.08057339  0.46806315  0.96724323  1
  O  O117  1  0.56415073  0.41678115  0.96688019  1
  O  O118  1  0.15472989  0.84065983  0.96730546  1
  O  O119  1  0.64310844  0.86997983  0.96683592  1
  O  O120  1  0.29385398  0.87581203  0.46699866  1
  O  O121  1  0.74786314  0.83455101  0.46957384  1
  O  O122  1  0.16579617  0.45572171  0.47049154  1
  O  O123  1  0.65211186  0.46756286  0.46842873  1
  O  O124  1  0.06178381  0.66479506  0.47015242  1
  O  O125  1  0.57702844  0.68988026  0.46958244  1
  O  O126  1  0.06601448  0.62018431  0.36277726  1
  O  O127  1  0.54463299  0.61441540  0.36451074  1
  O  O128  1  0.25086812  0.87601721  0.36271438  1
  O  O129  1  0.76287510  0.91485472  0.36580816  1
  O  O130  1  0.19015845  0.50916965  0.36320007  1
  O  O131  1  0.69311706  0.47278888  0.36466666  1
  O  O132  1  0.04222870  0.47211822  0.86409624  1
  O  O133  1  0.56467474  0.50049647  0.86288879  1
  O  O134  1  0.19511874  0.91666297  0.86405440  1
  O  O135  1  0.68464070  0.86974427  0.86302177  1
  O  O136  1  0.26392020  0.61216768  0.86391928  1
  O  O137  1  0.74972212  0.62964342  0.86292042  1
  O  O138  1  0.99396446  0.77759139  0.40568757  1
  O  O139  1  0.50680904  0.82521491  0.40936042  1
  O  O140  1  0.40734706  0.00782195  0.39476266  1
  O  O141  1  0.89332713  0.98317651  0.43132766  1
  O  O142  1  0.11012764  0.20609196  0.40584305  1
  O  O143  1  0.58847771  0.18987472  0.40976012  1
  O  O144  1  0.00715429  0.18791632  0.90930806  1
  O  O145  1  0.49635535  0.18785280  0.89519971  1
  O  O146  1  0.08850500  0.98676805  0.90917818  1
  O  O147  1  0.59533835  0.00495297  0.89556031  1
  O  O148  1  0.40571503  0.82510394  0.90978700  1
  O  O149  1  0.90648018  0.80803835  0.89486785  1
  O  O150  1  0.49087757  0.16731001  0.59109327  1
  O  O151  1  0.97579068  0.15071495  0.59433918  1
  O  O152  1  0.09302361  0.04134854  0.59207691  1
  O  O153  1  0.59862973  0.02657881  0.59325389  1
  O  O154  1  0.42792888  0.81134987  0.59434564  1
  O  O155  1  0.91305005  0.80702168  0.59119684  1
  O  O156  1  0.47612158  0.80308642  0.09258134  1
  O  O157  1  0.99242112  0.81453744  0.08888390  1
  O  O158  1  0.41293617  0.01915372  0.09010535  1
  O  O159  1  0.92768323  0.04111977  0.09156911  1
  O  O160  1  0.09902031  0.17203371  0.09029645  1
  O  O161  1  0.59089566  0.14625211  0.09085859  1
  O  O162  1  0.36195429  0.15807401  0.75572479  1
  O  O163  1  0.84468862  0.14357667  0.75569428  1
  O  O164  1  0.22180791  0.28143165  0.75359844  1
  O  O165  1  0.72358120  0.30713491  0.75764967  1
  O  O166  1  0.43083310  0.55510036  0.75560331  1
  O  O167  1  0.91833113  0.55520170  0.75497771  1
  O  O168  1  0.34685388  0.54801472  0.25553161  1
  O  O169  1  0.84427742  0.54204398  0.24447173  1
  O  O170  1  0.41906368  0.28294582  0.25492964  1
  O  O171  1  0.93907052  0.34198767  0.24419382  1
  O  O172  1  0.23207752  0.12813974  0.24702711  1
  O  O173  1  0.72183324  0.15864195  0.25352206  1
  O  O174  1  0.33024893  0.51168957  0.93617205  1
  O  O175  1  0.82297752  0.49316429  0.92145816  1
  O  O176  1  0.42361226  0.35527936  0.92153928  1
  O  O177  1  0.92542896  0.33980347  0.93633741  1
  O  O178  1  0.24579656  0.15169309  0.93610312  1
  O  O179  1  0.75287884  0.14974593  0.92182489  1
  O  O180  1  0.32378955  0.15509422  0.42238684  1
  O  O181  1  0.81380457  0.14179547  0.43830668  1
  O  O182  1  0.26511929  0.37807314  0.42371342  1
  O  O183  1  0.74576894  0.34632715  0.43763100  1
  O  O184  1  0.42737298  0.50956291  0.43679320  1
  O  O185  1  0.92271662  0.46602596  0.42240899  1
  O  O186  1  0.16992855  0.48593599  0.06014168  1
  O  O187  1  0.66162340  0.46328335  0.07349259  1
  O  O188  1  0.07204132  0.66071481  0.05864455  1
  O  O189  1  0.57087067  0.67507750  0.07606873  1
  O  O190  1  0.25684469  0.85489995  0.06002484  1
  O  O191  1  0.76833692  0.85905294  0.07339337  1
  O  O192  1  0.16443933  0.86764821  0.58009968  1
  O  O193  1  0.66553243  0.84918769  0.56432588  1
  O  O194  1  0.26967547  0.67434685  0.58144759  1
  O  O195  1  0.75667854  0.66006312  0.56079223  1
  O  O196  1  0.06965875  0.46795940  0.57919658  1
  O  O197  1  0.57050996  0.47806101  0.56189017  1
  O  O198  1  0.14336796  0.81150897  0.26028478  1
  O  O199  1  0.63863661  0.83099166  0.24556835  1
  O  O200  1  0.27001795  0.71790220  0.26485439  1
  O  O201  1  0.76770292  0.71374860  0.23520247  1
  O  O202  1  0.09786585  0.47627174  0.25853974  1
  O  O203  1  0.58294099  0.44812210  0.24558459  1
  O  O204  1  0.14074745  0.44714884  0.74571406  1
  O  O205  1  0.64176111  0.46661812  0.76396156  1
  O  O206  1  0.08237522  0.71707232  0.74549076  1
  O  O207  1  0.59189336  0.71826542  0.76401553  1
  O  O208  1  0.27503306  0.83176764  0.74348666  1
  O  O209  1  0.76790124  0.82090249  0.76541604  1
