# generated using pymatgen
data_Zr2Ta2Si3(SO8)3
_symmetry_space_group_name_H-M   'P 1'
_cell_length_a   8.99505279
_cell_length_b   8.98128598
_cell_length_c   23.11721289
_cell_angle_alpha   90.43549650
_cell_angle_beta   90.05401101
_cell_angle_gamma   119.97406688
_symmetry_Int_Tables_number   1
_chemical_formula_structural   Zr2Ta2Si3(SO8)3
_chemical_formula_sum   'Zr6 Ta6 Si9 S9 O72'
_cell_volume   1617.71766793
_cell_formula_units_Z   3
loop_
 _symmetry_equiv_pos_site_id
 _symmetry_equiv_pos_as_xyz
  1  'x, y, z'
loop_
 _atom_site_type_symbol
 _atom_site_label
 _atom_site_symmetry_multiplicity
 _atom_site_fract_x
 _atom_site_fract_y
 _atom_site_fract_z
 _atom_site_occupancy
  Zr  Zr0  1  0.98996744  0.00845928  0.35737874  1
  Zr  Zr1  1  0.01385638  0.01324293  0.85406168  1
  Zr  Zr2  1  0.66758082  0.33807977  0.69148520  1
  Zr  Zr3  1  0.67807635  0.34443552  0.18736701  1
  Zr  Zr4  1  0.32035386  0.66639415  0.02394435  1
  Zr  Zr5  1  0.34800643  0.66998894  0.52747357  1
  Ta  Ta6  1  0.98637044  0.00986903  0.64392047  1
  Ta  Ta7  1  0.01067430  0.01508613  0.13940421  1
  Ta  Ta8  1  0.65598455  0.33985587  0.97621778  1
  Ta  Ta9  1  0.67562668  0.33031707  0.48256322  1
  Ta  Ta10  1  0.33255318  0.67090055  0.31147311  1
  Ta  Ta11  1  0.34152264  0.67919572  0.80628890  1
  Si  Si12  1  0.00203560  0.28960887  0.24959709  1
  Si  Si13  1  0.28606381  0.28963683  0.74908226  1
  Si  Si14  1  0.71561773  0.00343371  0.75119425  1
  Si  Si15  1  0.95710403  0.33681672  0.58541942  1
  Si  Si16  1  0.67822930  0.62276370  0.58457538  1
  Si  Si17  1  0.94927042  0.62272806  0.08258968  1
  Si  Si18  1  0.38541010  0.33916178  0.08351136  1
  Si  Si19  1  0.33543716  0.95406568  0.91657121  1
  Si  Si20  1  0.61457704  0.95774627  0.41760111  1
  S  S21  1  0.28461364  0.99660869  0.25012421  1
  S  S22  1  0.70921428  0.71494608  0.25053300  1
  S  S23  1  0.00489357  0.71638057  0.75020590  1
  S  S24  1  0.37679180  0.04978838  0.58329044  1
  S  S25  1  0.66990373  0.04794026  0.08271864  1
  S  S26  1  0.61822487  0.66651605  0.91633418  1
  S  S27  1  0.04135093  0.38129572  0.91667402  1
  S  S28  1  0.33907316  0.38340500  0.41592150  1
  S  S29  1  0.04448269  0.66401820  0.41618848  1
  O  O30  1  0.20531952  0.02035045  0.30203680  1
  O  O31  1  0.81731692  0.79206027  0.30241635  1
  O  O32  1  0.97931802  0.17133660  0.30534134  1
  O  O33  1  0.19995944  0.17254203  0.80584405  1
  O  O34  1  0.97744130  0.79274487  0.80259349  1
  O  O35  1  0.82614086  0.01940808  0.80762130  1
  O  O36  1  0.80373109  0.96544123  0.69337242  1
  O  O37  1  0.16002315  0.18784088  0.69309830  1
  O  O38  1  0.03743627  0.82253636  0.69843326  1
  O  O39  1  0.78511851  0.82133846  0.19901375  1
  O  O40  1  0.02848193  0.18750479  0.19385893  1
  O  O41  1  0.17348514  0.96340426  0.19786437  1
  O  O42  1  0.86425051  0.36162043  0.63940086  1
  O  O43  1  0.48535662  0.12330278  0.63418074  1
  O  O44  1  0.63898484  0.50101598  0.63868128  1
  O  O45  1  0.86565162  0.50499334  0.13934535  1
  O  O46  1  0.64086012  0.12294778  0.13544788  1
  O  O47  1  0.49278496  0.35307641  0.14072884  1
  O  O48  1  0.47572956  0.30181378  0.02641192  1
  O  O49  1  0.82663487  0.52331944  0.02613015  1
  O  O50  1  0.70361515  0.15763806  0.03154280  1
  O  O51  1  0.46282117  0.16039197  0.53002467  1
  O  O52  1  0.69411392  0.52100063  0.52516525  1
  O  O53  1  0.82853070  0.29969099  0.52621093  1
  O  O54  1  0.54099545  0.68941502  0.96827552  1
  O  O55  1  0.15013965  0.45749188  0.96871159  1
  O  O56  1  0.31535804  0.83941425  0.97254861  1
  O  O57  1  0.52295714  0.83510056  0.47097560  1
  O  O58  1  0.30221173  0.45631470  0.46697229  1
  O  O59  1  0.15116401  0.69331544  0.46713170  1
  O  O60  1  0.12968439  0.63498151  0.36298443  1
  O  O61  1  0.49247734  0.85463233  0.35933291  1
  O  O62  1  0.36050206  0.49350177  0.36352071  1
  O  O63  1  0.12107707  0.48816031  0.86529133  1
  O  O64  1  0.36036743  0.85241272  0.86032165  1
  O  O65  1  0.50719450  0.63139663  0.86419748  1
  O  O66  1  0.02523412  0.81337380  0.40433816  1
  O  O67  1  0.80209827  0.97688042  0.40634417  1
  O  O68  1  0.18936709  0.20954738  0.40599122  1
  O  O69  1  0.01899633  0.20809791  0.91015197  1
  O  O70  1  0.17087644  0.97662885  0.90772936  1
  O  O71  1  0.79130235  0.81065488  0.90824157  1
  O  O72  1  0.97261870  0.16226743  0.59193887  1
  O  O73  1  0.20680257  0.03296657  0.58960704  1
  O  O74  1  0.85095822  0.81007450  0.59460815  1
  O  O75  1  0.96578227  0.81113379  0.09848381  1
  O  O76  1  0.82766831  0.02963953  0.09274048  1
  O  O77  1  0.19185967  0.16199132  0.09379237  1
  O  O78  1  0.68567615  0.16021716  0.73977768  1
  O  O79  1  0.47325746  0.31566311  0.74010854  1
  O  O80  1  0.85691070  0.54372103  0.74395658  1
  O  O81  1  0.68410121  0.54127012  0.24381444  1
  O  O82  1  0.83614944  0.30914479  0.24067938  1
  O  O83  1  0.45639774  0.14158597  0.24170854  1
  O  O84  1  0.63436492  0.50488575  0.92418475  1
  O  O85  1  0.86859123  0.36305533  0.92680430  1
  O  O86  1  0.51152707  0.14544518  0.92901143  1
  O  O87  1  0.63345646  0.14774494  0.42692084  1
  O  O88  1  0.49285208  0.36710774  0.42272164  1
  O  O89  1  0.87221228  0.50726174  0.42267129  1
  O  O90  1  0.35918123  0.49765118  0.07098670  1
  O  O91  1  0.13782168  0.64878153  0.07462050  1
  O  O92  1  0.52515836  0.87513697  0.07483890  1
  O  O93  1  0.35609656  0.87834078  0.57293822  1
  O  O94  1  0.51392829  0.64790978  0.57328095  1
  O  O95  1  0.13884909  0.49737984  0.56879396  1
  O  O96  1  0.29952775  0.83555136  0.25933242  1
  O  O97  1  0.53333749  0.69526350  0.26092778  1
  O  O98  1  0.17430424  0.47999789  0.26412763  1
  O  O99  1  0.29866751  0.47656993  0.76484545  1
  O  O100  1  0.16052824  0.69498779  0.75955270  1
  O  O101  1  0.52343657  0.82592772  0.76068899  1
