# generated using pymatgen
data_MgV4O7F5
_symmetry_space_group_name_H-M   'P 1'
_cell_length_a   5.14911113
_cell_length_b   7.38223495
_cell_length_c   5.45729426
_cell_angle_alpha   93.67398288
_cell_angle_beta   88.27034477
_cell_angle_gamma   90.84040673
_symmetry_Int_Tables_number   1
_chemical_formula_structural   MgV4O7F5
_chemical_formula_sum   'Mg1 V4 O7 F5'
_cell_volume   206.90487235
_cell_formula_units_Z   1
loop_
 _symmetry_equiv_pos_site_id
 _symmetry_equiv_pos_as_xyz
  1  'x, y, z'
loop_
 _atom_site_type_symbol
 _atom_site_label
 _atom_site_symmetry_multiplicity
 _atom_site_fract_x
 _atom_site_fract_y
 _atom_site_fract_z
 _atom_site_occupancy
  Mg  Mg0  1  0.99899100  0.29840700  0.40325400  1
  V  V1  1  0.51344700  0.49947600  0.49249700  1
  V  V2  1  0.54801100  0.00304400  0.54616700  1
  V  V3  1  0.99028500  0.47766100  0.96747900  1
  V  V4  1  0.02620000  0.97146300  0.03284600  1
  O  O5  1  0.90826700  0.25586500  0.01758800  1
  O  O6  1  0.78448500  0.54020200  0.29828800  1
  O  O7  1  0.78352100  0.95275800  0.73999300  1
  O  O8  1  0.62441600  0.24601600  0.49974000  1
  O  O9  1  0.17771300  0.05470600  0.29585000  1
  O  O10  1  0.18855300  0.44412400  0.66837300  1
  O  O11  1  0.10421200  0.75245200  0.00562800  1
  F  F12  1  0.70238100  0.93832900  0.21419500  1
  F  F13  1  0.68765100  0.55895500  0.80257400  1
  F  F14  1  0.39041300  0.75677500  0.50623400  1
  F  F15  1  0.29136300  0.43762300  0.19457300  1
  F  F16  1  0.28009100  0.06214300  0.80222200  1
