# generated using pymatgen
data_MgMoWO6
_symmetry_space_group_name_H-M   'P 1'
_cell_length_a   5.61971557
_cell_length_b   5.61655762
_cell_length_c   7.68199719
_cell_angle_alpha   95.82076034
_cell_angle_beta   137.15219697
_cell_angle_gamma   55.41030981
_symmetry_Int_Tables_number   1
_chemical_formula_structural   MgMoWO6
_chemical_formula_sum   'Mg1 Mo1 W1 O6'
_cell_volume   112.25376702
_cell_formula_units_Z   1
loop_
 _symmetry_equiv_pos_site_id
 _symmetry_equiv_pos_as_xyz
  1  'x, y, z'
loop_
 _atom_site_type_symbol
 _atom_site_label
 _atom_site_symmetry_multiplicity
 _atom_site_fract_x
 _atom_site_fract_y
 _atom_site_fract_z
 _atom_site_occupancy
  Mg  Mg0  1  0.00167100  0.54235000  0.70906000  1
  Mo  Mo1  1  0.00014900  0.96003100  0.50063800  1
  W  W2  1  0.00093500  0.95444000  0.00393400  1
  O  O3  1  0.73678600  0.07855300  0.11751000  1
  O  O4  1  0.18084300  0.83987900  0.85356300  1
  O  O5  1  0.40129500  0.43614600  0.67461300  1
  O  O6  1  0.42207400  0.01568000  0.27567700  1
  O  O7  1  0.64707200  0.81587700  0.76331400  1
  O  O8  1  0.61614800  0.46274000  0.37910900  1
