# generated using pymatgen
data_Na2Al2Si(SO6)2
_symmetry_space_group_name_H-M   'P 1'
_cell_length_a   8.52052141
_cell_length_b   8.52052115
_cell_length_c   21.74798169
_cell_angle_alpha   90.00701975
_cell_angle_beta   89.99298024
_cell_angle_gamma   119.82759059
_symmetry_Int_Tables_number   1
_chemical_formula_structural   Na2Al2Si(SO6)2
_chemical_formula_sum   'Na12 Al12 Si6 S12 O72'
_cell_volume   1369.72632649
_cell_formula_units_Z   6
loop_
 _symmetry_equiv_pos_site_id
 _symmetry_equiv_pos_as_xyz
  1  'x, y, z'
loop_
 _atom_site_type_symbol
 _atom_site_label
 _atom_site_symmetry_multiplicity
 _atom_site_fract_x
 _atom_site_fract_y
 _atom_site_fract_z
 _atom_site_occupancy
  Na  Na0  1  0.00035751  0.62676034  0.25024572  1
  Na  Na1  1  0.37323966  0.99964249  0.75024572  1
  Na  Na2  1  0.66231226  0.97033296  0.58798126  1
  Na  Na3  1  0.02966704  0.33768774  0.08798126  1
  Na  Na4  1  0.97751990  0.67322646  0.92070059  1
  Na  Na5  1  0.32677354  0.02248010  0.42070059  1
  Na  Na6  1  0.00718960  0.99393210  0.50037712  1
  Na  Na7  1  0.00606790  0.99281040  0.00037712  1
  Na  Na8  1  0.66267730  0.31935028  0.83391473  1
  Na  Na9  1  0.68064972  0.33732270  0.33391473  1
  Na  Na10  1  0.33399599  0.66506740  0.16683237  1
  Na  Na11  1  0.33493260  0.66600401  0.66683237  1
  Al  Al12  1  0.99009165  0.99645923  0.35279333  1
  Al  Al13  1  0.00354077  0.00990835  0.85279333  1
  Al  Al14  1  0.00400642  0.99890528  0.64832438  1
  Al  Al15  1  0.00109472  0.99599358  0.14832438  1
  Al  Al16  1  0.66692870  0.31761792  0.68575726  1
  Al  Al17  1  0.68238208  0.33307130  0.18575726  1
  Al  Al18  1  0.65962549  0.33181143  0.98177934  1
  Al  Al19  1  0.66818857  0.34037451  0.48177934  1
  Al  Al20  1  0.32239776  0.68060458  0.01916463  1
  Al  Al21  1  0.31939542  0.67760224  0.51916463  1
  Al  Al22  1  0.31203101  0.64415721  0.31425616  1
  Al  Al23  1  0.35584279  0.68796899  0.81425616  1
  Si  Si24  1  0.99935430  0.28059427  0.24946403  1
  Si  Si25  1  0.71940573  0.00064570  0.74946403  1
  Si  Si26  1  0.37090070  0.04573982  0.58223630  1
  Si  Si27  1  0.95426018  0.62909930  0.08223630  1
  Si  Si28  1  0.33811765  0.96778285  0.91566292  1
  Si  Si29  1  0.03221715  0.66188235  0.41566292  1
  S  S30  1  0.29591084  0.00725124  0.24980376  1
  S  S31  1  0.70537059  0.71200108  0.25027570  1
  S  S32  1  0.28799892  0.29462941  0.75027570  1
  S  S33  1  0.99274876  0.70408916  0.74980376  1
  S  S34  1  0.95880101  0.33755152  0.58307013  1
  S  S35  1  0.66540885  0.61689919  0.58398773  1
  S  S36  1  0.66244848  0.04119899  0.08307013  1
  S  S37  1  0.38310081  0.33459115  0.08398773  1
  S  S38  1  0.61679854  0.66611922  0.91760455  1
  S  S39  1  0.04908013  0.37720285  0.91618192  1
  S  S40  1  0.62279715  0.95091987  0.41618192  1
  S  S41  1  0.33388078  0.38320146  0.41760455  1
  O  O42  1  0.21556512  0.03449214  0.30652376  1
  O  O43  1  0.82593752  0.78671492  0.30488466  1
  O  O44  1  0.96877776  0.15697598  0.30932783  1
  O  O45  1  0.21328508  0.17406248  0.80488466  1
  O  O46  1  0.96550786  0.78443488  0.80652376  1
  O  O47  1  0.84302402  0.03122224  0.80932783  1
  O  O48  1  0.80682766  0.97049075  0.68673294  1
  O  O49  1  0.17755052  0.21221707  0.69497266  1
  O  O50  1  0.03746788  0.82729067  0.69609493  1
  O  O51  1  0.78778293  0.82244948  0.19497266  1
  O  O52  1  0.02950925  0.19317234  0.18673294  1
  O  O53  1  0.17270933  0.96253212  0.19609493  1
  O  O54  1  0.88110993  0.37399321  0.63847322  1
  O  O55  1  0.50240476  0.13339538  0.64224719  1
  O  O56  1  0.63950552  0.50815922  0.63942395  1
  O  O57  1  0.86660462  0.49759524  0.14224719  1
  O  O58  1  0.62600679  0.11889007  0.13847322  1
  O  O59  1  0.49184078  0.36049448  0.13942395  1
  O  O60  1  0.46104191  0.30106399  0.02820408  1
  O  O61  1  0.83283128  0.53100449  0.02075336  1
  O  O62  1  0.69911039  0.15896033  0.02858733  1
  O  O63  1  0.46899551  0.16716872  0.52075336  1
  O  O64  1  0.69893601  0.53895809  0.52820408  1
  O  O65  1  0.84103967  0.30088961  0.52858733  1
  O  O66  1  0.53237810  0.69268318  0.97308739  1
  O  O67  1  0.15879956  0.45472943  0.97323656  1
  O  O68  1  0.28981353  0.82979805  0.97339308  1
  O  O69  1  0.54527057  0.84120044  0.47323656  1
  O  O70  1  0.30731682  0.46762190  0.47308739  1
  O  O71  1  0.17020195  0.71018647  0.47339308  1
  O  O72  1  0.12799533  0.63647594  0.35429278  1
  O  O73  1  0.50552085  0.86670409  0.36170205  1
  O  O74  1  0.36860486  0.49537307  0.36173857  1
  O  O75  1  0.13329591  0.49447915  0.86170205  1
  O  O76  1  0.36352406  0.87200467  0.85429278  1
  O  O77  1  0.50462693  0.63139514  0.86173857  1
  O  O78  1  0.02304797  0.85058995  0.40589085  1
  O  O79  1  0.80429250  0.97182028  0.41057599  1
  O  O80  1  0.17230212  0.20033083  0.41120351  1
  O  O81  1  0.02817972  0.19570750  0.91057599  1
  O  O82  1  0.14941005  0.97695203  0.90589085  1
  O  O83  1  0.79966917  0.82769788  0.91120351  1
  O  O84  1  0.97285950  0.17139398  0.58952819  1
  O  O85  1  0.17131649  0.02197048  0.59282330  1
  O  O86  1  0.82533744  0.80231658  0.58878950  1
  O  O87  1  0.97802952  0.82868351  0.09282330  1
  O  O88  1  0.82860602  0.02714050  0.08952819  1
  O  O89  1  0.19768342  0.17466256  0.08878950  1
  O  O90  1  0.68995103  0.17867275  0.74404586  1
  O  O91  1  0.47244299  0.31665355  0.74295722  1
  O  O92  1  0.82920620  0.52786921  0.74042820  1
  O  O93  1  0.68334645  0.52755701  0.24295722  1
  O  O94  1  0.82132725  0.31004897  0.24404586  1
  O  O95  1  0.47213079  0.17079380  0.24042820  1
  O  O96  1  0.64188399  0.50547791  0.92230706  1
  O  O97  1  0.86797560  0.36261691  0.92228909  1
  O  O98  1  0.51643710  0.16400901  0.92651639  1
  O  O99  1  0.63738309  0.13202440  0.42228909  1
  O  O100  1  0.49452209  0.35811601  0.42230706  1
  O  O101  1  0.83599099  0.48356290  0.42651639  1
  O  O102  1  0.36382138  0.49891007  0.07598169  1
  O  O103  1  0.15222721  0.63619724  0.07651436  1
  O  O104  1  0.50436858  0.85744099  0.07564664  1
  O  O105  1  0.36380276  0.84777279  0.57651436  1
  O  O106  1  0.50108993  0.63617862  0.57598169  1
  O  O107  1  0.14255901  0.49563142  0.57564664  1
  O  O108  1  0.31864574  0.84463856  0.25631082  1
  O  O109  1  0.52762098  0.69888896  0.25959435  1
  O  O110  1  0.17824598  0.48711504  0.25450674  1
  O  O111  1  0.30111104  0.47237902  0.75959435  1
  O  O112  1  0.15536144  0.68135426  0.75631082  1
  O  O113  1  0.51288496  0.82175402  0.75450674  1
