# generated using pymatgen
data_Si2H2S3
_symmetry_space_group_name_H-M   'P 1'
_cell_length_a   7.89303923
_cell_length_b   7.89303923
_cell_length_c   8.86927886
_cell_angle_alpha   90.00000000
_cell_angle_beta   90.00000000
_cell_angle_gamma   90.00000000
_symmetry_Int_Tables_number   1
_chemical_formula_structural   Si2H2S3
_chemical_formula_sum   'Si8 H8 S12'
_cell_volume   552.55667863
_cell_formula_units_Z   4
loop_
 _symmetry_equiv_pos_site_id
 _symmetry_equiv_pos_as_xyz
  1  'x, y, z'
loop_
 _atom_site_type_symbol
 _atom_site_label
 _atom_site_symmetry_multiplicity
 _atom_site_fract_x
 _atom_site_fract_y
 _atom_site_fract_z
 _atom_site_occupancy
  Si  Si0  1  0.43350590  0.70070300  0.63225442  1
  Si  Si1  1  0.56649410  0.29929700  0.63225442  1
  Si  Si2  1  0.79929700  0.06649410  0.13225442  1
  Si  Si3  1  0.29929700  0.43350590  0.36774558  1
  Si  Si4  1  0.20070300  0.93350590  0.13225442  1
  Si  Si5  1  0.93350590  0.79929700  0.86774558  1
  Si  Si6  1  0.06649410  0.20070300  0.86774558  1
  Si  Si7  1  0.70070300  0.56649410  0.36774558  1
  H  H8  1  0.38736695  0.84605981  0.72765969  1
  H  H9  1  0.61263305  0.15394019  0.72765969  1
  H  H10  1  0.65394019  0.11263305  0.22765969  1
  H  H11  1  0.15394019  0.38736695  0.27234031  1
  H  H12  1  0.84605981  0.61263305  0.27234031  1
  H  H13  1  0.11263305  0.34605981  0.77234031  1
  H  H14  1  0.88736695  0.65394019  0.77234031  1
  H  H15  1  0.34605981  0.88736695  0.22765969  1
  S  S16  1  0.50000000  0.50000000  0.78262883  1
  S  S17  1  0.50000000  0.50000000  0.21737117  1
  S  S18  1  0.00000000  0.00000000  0.71737117  1
  S  S19  1  0.00000000  0.00000000  0.28262883  1
  S  S20  1  0.64296789  0.78589063  0.49905766  1
  S  S21  1  0.35703211  0.21410937  0.49905766  1
  S  S22  1  0.71410937  0.85703211  -0.00094234  1
  S  S23  1  0.21410937  0.64296789  0.50094234  1
  S  S24  1  0.78589063  0.35703211  0.50094234  1
  S  S25  1  0.85703211  0.28589063  0.00094234  1
  S  S26  1  0.14296789  0.71410937  0.00094234  1
  S  S27  1  0.28589063  0.14296789  -0.00094234  1
