# generated using pymatgen
data_Na4B2O5
_symmetry_space_group_name_H-M   'P 1'
_cell_length_a   6.61941309
_cell_length_b   6.61941309
_cell_length_c   6.19696838
_cell_angle_alpha   73.76450540
_cell_angle_beta   73.76450540
_cell_angle_gamma   73.76275236
_symmetry_Int_Tables_number   1
_chemical_formula_structural   Na4B2O5
_chemical_formula_sum   'Na8 B4 O10'
_cell_volume   244.25544047
_cell_formula_units_Z   2
loop_
 _symmetry_equiv_pos_site_id
 _symmetry_equiv_pos_as_xyz
  1  'x, y, z'
loop_
 _atom_site_type_symbol
 _atom_site_label
 _atom_site_symmetry_multiplicity
 _atom_site_fract_x
 _atom_site_fract_y
 _atom_site_fract_z
 _atom_site_occupancy
  Na  Na0  1  0.68483822  0.03246103  0.77284607  1
  Na  Na1  1  0.96753897  0.31516178  0.72715393  1
  Na  Na2  1  0.31516178  0.96753897  0.22715393  1
  Na  Na3  1  0.03246103  0.68483822  0.27284607  1
  Na  Na4  1  0.40403443  0.33018209  0.42380163  1
  Na  Na5  1  0.66981791  0.59596557  0.07619837  1
  Na  Na6  1  0.59596557  0.66981791  0.57619837  1
  Na  Na7  1  0.33018209  0.40403443  0.92380163  1
  B  B8  1  0.25324920  0.92966760  0.83359889  1
  B  B9  1  0.07033240  0.74675080  0.66640111  1
  B  B10  1  0.74675080  0.07033240  0.16640111  1
  B  B11  1  0.92966760  0.25324920  0.33359889  1
  O  O12  1  0.92919166  0.07080834  0.25000000  1
  O  O13  1  0.07080834  0.92919166  0.75000000  1
  O  O14  1  0.74183737  0.34780394  0.46093813  1
  O  O15  1  0.65219606  0.25816263  0.03906187  1
  O  O16  1  0.31451177  0.11978501  0.78556259  1
  O  O17  1  0.88021499  0.68548823  0.71443741  1
  O  O18  1  0.68548823  0.88021499  0.21443741  1
  O  O19  1  0.11978501  0.31451177  0.28556259  1
  O  O20  1  0.34780394  0.74183737  0.96093813  1
  O  O21  1  0.25816263  0.65219606  0.53906187  1
