# generated using pymatgen
data_Na10La2Nb6Si11SO48
_symmetry_space_group_name_H-M   'P 1'
_cell_length_a   18.42433373
_cell_length_b   9.18399418
_cell_length_c   22.90518439
_cell_angle_alpha   90.03204996
_cell_angle_beta   90.19587654
_cell_angle_gamma   119.96918917
_symmetry_Int_Tables_number   1
_chemical_formula_structural   Na10La2Nb6Si11SO48
_chemical_formula_sum   'Na30 La6 Nb18 Si33 S3 O144'
_cell_volume   3357.51948992
_cell_formula_units_Z   3
loop_
 _symmetry_equiv_pos_site_id
 _symmetry_equiv_pos_as_xyz
  1  'x, y, z'
loop_
 _atom_site_type_symbol
 _atom_site_label
 _atom_site_symmetry_multiplicity
 _atom_site_fract_x
 _atom_site_fract_y
 _atom_site_fract_z
 _atom_site_occupancy
  Na  Na0  1  0.31757060  0.98706685  0.25387575  1
  Na  Na1  1  0.81928289  0.98774806  0.25309274  1
  Na  Na2  1  0.81491286  0.64068281  0.74775815  1
  Na  Na3  1  0.18481101  0.98540528  0.74920457  1
  Na  Na4  1  0.67899956  0.00150635  0.74906370  1
  Na  Na5  1  0.01913590  0.71267049  0.58389912  1
  Na  Na6  1  0.83195546  0.95839103  0.58240670  1
  Na  Na7  1  0.64752749  0.96828447  0.08075760  1
  Na  Na8  1  0.33682107  0.71292956  0.08477886  1
  Na  Na9  1  0.83756583  0.71356590  0.08665895  1
  Na  Na10  1  0.01891168  0.32539561  0.08542333  1
  Na  Na11  1  0.51545770  0.32250595  0.08480901  1
  Na  Na12  1  0.98557751  0.65291376  0.91548350  1
  Na  Na13  1  0.34857202  0.03596100  0.91434567  1
  Na  Na14  1  0.48666531  0.32267830  0.41776421  1
  Na  Na15  1  0.98764508  0.32274379  0.41751877  1
  Na  Na16  1  0.33921921  0.65312688  0.41754250  1
  Na  Na17  1  0.84046561  0.65416202  0.41749646  1
  Na  Na18  1  0.01376746  0.01350335  0.50233248  1
  Na  Na19  1  0.50784317  0.00040656  0.50640847  1
  Na  Na20  1  0.00874514  0.01374540  0.00150766  1
  Na  Na21  1  0.50425295  0.99940291  0.99619185  1
  Na  Na22  1  0.33871869  0.36243817  0.83309759  1
  Na  Na23  1  0.83748884  0.32468951  0.83290874  1
  Na  Na24  1  0.32830558  0.33375679  0.33248962  1
  Na  Na25  1  0.82973278  0.33680625  0.33227016  1
  Na  Na26  1  0.16034833  0.64736011  0.17347320  1
  Na  Na27  1  0.66208345  0.63649222  0.17578570  1
  Na  Na28  1  0.17433200  0.67017548  0.66965067  1
  Na  Na29  1  0.65502295  0.64444668  0.66335095  1
  La  La30  1  0.99873589  0.00778982  0.64653896  1
  La  La31  1  0.00749620  0.00019893  0.14471283  1
  La  La32  1  0.49979348  0.00225062  0.14880761  1
  La  La33  1  0.16157679  0.65157193  0.32506577  1
  La  La34  1  0.66247099  0.65457905  0.32415561  1
  La  La35  1  0.17149791  0.66850194  0.82145866  1
  Nb  Nb36  1  0.99312018  0.99668288  0.35494777  1
  Nb  Nb37  1  0.49166529  0.99740966  0.35481729  1
  Nb  Nb38  1  0.98995176  0.98872995  0.85660629  1
  Nb  Nb39  1  0.50008026  0.99906359  0.85370214  1
  Nb  Nb40  1  0.50110993  0.00279675  0.64537374  1
  Nb  Nb41  1  0.34298967  0.33732651  0.68413246  1
  Nb  Nb42  1  0.83406635  0.33627717  0.68746955  1
  Nb  Nb43  1  0.33914428  0.34597650  0.18503579  1
  Nb  Nb44  1  0.84079743  0.34843489  0.18527637  1
  Nb  Nb45  1  0.33485215  0.33896079  0.97832804  1
  Nb  Nb46  1  0.82744921  0.31971760  0.97526281  1
  Nb  Nb47  1  0.33471761  0.33470153  0.48630757  1
  Nb  Nb48  1  0.82692534  0.32460159  0.48393331  1
  Nb  Nb49  1  0.16750370  0.67053668  0.01821375  1
  Nb  Nb50  1  0.66714609  0.66645250  0.01848738  1
  Nb  Nb51  1  0.17001770  0.66872843  0.52116651  1
  Nb  Nb52  1  0.66153911  0.66114856  0.52037920  1
  Nb  Nb53  1  0.65937377  0.65989101  0.81372980  1
  Si  Si54  1  0.34954195  0.69232897  0.24800393  1
  Si  Si55  1  0.85170833  0.69777222  0.24693652  1
  Si  Si56  1  0.99538098  0.29740935  0.24649331  1
  Si  Si57  1  0.49475874  0.30189747  0.24732551  1
  Si  Si58  1  0.64222746  0.28934485  0.74941715  1
  Si  Si59  1  0.99707382  0.69808145  0.74869251  1
  Si  Si60  1  0.49657504  0.71193713  0.74959936  1
  Si  Si61  1  0.35964354  0.00900933  0.74774889  1
  Si  Si62  1  0.84756360  0.99909153  0.75098595  1
  Si  Si63  1  0.48269466  0.33310936  0.58199279  1
  Si  Si64  1  0.98008863  0.34817855  0.58163856  1
  Si  Si65  1  0.19358635  0.03939777  0.58476689  1
  Si  Si66  1  0.68662682  0.03762119  0.58651685  1
  Si  Si67  1  0.33323342  0.62314229  0.58597804  1
  Si  Si68  1  0.82461811  0.61409035  0.58256340  1
  Si  Si69  1  0.48304998  0.61607122  0.08051662  1
  Si  Si70  1  0.97863515  0.61179394  0.07556979  1
  Si  Si71  1  0.32571508  0.04248154  0.08087588  1
  Si  Si72  1  0.82648017  0.04200012  0.08254722  1
  Si  Si73  1  0.19489315  0.34788341  0.07988986  1
  Si  Si74  1  0.69538832  0.34644378  0.08013928  1
  Si  Si75  1  0.32104245  0.67266046  0.91909562  1
  Si  Si76  1  0.80674584  0.65834652  0.91467349  1
  Si  Si77  1  0.01716948  0.36505054  0.91907069  1
  Si  Si78  1  0.52116385  0.37319133  0.91717793  1
  Si  Si79  1  0.16549451  0.97056066  0.91604677  1
  Si  Si80  1  0.66263561  0.95140434  0.91596108  1
  Si  Si81  1  0.31405191  0.97278498  0.41640142  1
  Si  Si82  1  0.81402918  0.96717331  0.41765980  1
  Si  Si83  1  0.16748023  0.36077351  0.42093274  1
  Si  Si84  1  0.66534723  0.36090126  0.41916238  1
  Si  Si85  1  0.01345825  0.66565574  0.42222484  1
  Si  Si86  1  0.51438361  0.66928119  0.42006059  1
  S  S87  1  0.15532358  0.01705033  0.25431238  1
  S  S88  1  0.65543580  0.01757426  0.25093548  1
  S  S89  1  0.15498895  0.28918389  0.75289186  1
  O  O90  1  0.10468937  0.02127849  0.30388582  1
  O  O91  1  0.60195698  0.01931149  0.29988847  1
  O  O92  1  0.41398001  0.80911782  0.30532952  1
  O  O93  1  0.91465344  0.80979261  0.30505468  1
  O  O94  1  0.48923966  0.16894122  0.30337879  1
  O  O95  1  0.98905012  0.16780641  0.30375827  1
  O  O96  1  0.10438362  0.18258388  0.80321587  1
  O  O97  1  0.59559998  0.16406295  0.80555804  1
  O  O98  1  0.48537668  0.80742956  0.80722727  1
  O  O99  1  0.98741783  0.80945248  0.80539842  1
  O  O100  1  0.41291607  0.02198143  0.80858686  1
  O  O101  1  0.91541147  0.02082666  0.80409187  1
  O  O102  1  0.41512004  0.99740928  0.69363485  1
  O  O103  1  0.87193167  0.94362426  0.69100016  1
  O  O104  1  0.11165151  0.21895058  0.69772241  1
  O  O105  1  0.58714338  0.19689695  0.69133643  1
  O  O106  1  0.00549407  0.79494368  0.68852015  1
  O  O107  1  0.51754820  0.84008476  0.69445533  1
  O  O108  1  0.38816368  0.78436866  0.18681987  1
  O  O109  1  0.89118700  0.79329950  0.18646282  1
  O  O110  1  0.00106170  0.21664062  0.18553798  1
  O  O111  1  0.50368932  0.22894187  0.18553425  1
  O  O112  1  0.11215296  0.99404415  0.19797136  1
  O  O113  1  0.61468105  0.99797547  0.19360695  1
  O  O114  1  0.43296813  0.35873919  0.63846150  1
  O  O115  1  0.92757926  0.35963715  0.64061284  1
  O  O116  1  0.24750544  0.13652324  0.64503615  1
  O  O117  1  0.74742449  0.13152759  0.64429613  1
  O  O118  1  0.32125819  0.49680927  0.64118240  1
  O  O119  1  0.81903254  0.50389529  0.64250165  1
  O  O120  1  0.43407169  0.50278475  0.14066460  1
  O  O121  1  0.93130456  0.49631490  0.13658288  1
  O  O122  1  0.32009453  0.13900854  0.14114870  1
  O  O123  1  0.81562403  0.13355118  0.14198319  1
  O  O124  1  0.25227352  0.36077528  0.13920803  1
  O  O125  1  0.75338844  0.36440000  0.13863535  1
  O  O126  1  0.24968897  0.34051048  0.02592869  1
  O  O127  1  0.74529244  0.33624291  0.02304960  1
  O  O128  1  0.42441445  0.50525335  0.02740259  1
  O  O129  1  0.91998411  0.50608368  0.02057335  1
  O  O130  1  0.33733759  0.15932978  0.02441810  1
  O  O131  1  0.82662370  0.15581195  0.02761354  1
  O  O132  1  0.25125410  0.16373187  0.53259672  1
  O  O133  1  0.73827622  0.15229751  0.53068296  1
  O  O134  1  0.34673004  0.53356010  0.52859075  1
  O  O135  1  0.82799450  0.50609486  0.52795836  1
  O  O136  1  0.42849457  0.31862440  0.52434455  1
  O  O137  1  0.92276750  0.34315107  0.52683878  1
  O  O138  1  0.26572825  0.69906179  0.97266882  1
  O  O139  1  0.76344102  0.68883802  0.97322498  1
  O  O140  1  0.08202659  0.46477560  0.97486075  1
  O  O141  1  0.58105134  0.47017012  0.97510543  1
  O  O142  1  0.15027600  0.82545746  0.96707743  1
  O  O143  1  0.65304993  0.83499162  0.97454246  1
  O  O144  1  0.26104241  0.82801756  0.46691344  1
  O  O145  1  0.76341173  0.83029587  0.47058186  1
  O  O146  1  0.14904270  0.46896335  0.47210867  1
  O  O147  1  0.64823878  0.46955189  0.47107267  1
  O  O148  1  0.08024320  0.69430135  0.47638218  1
  O  O149  1  0.58208874  0.69511216  0.47347979  1
  O  O150  1  0.03664105  0.59043659  0.36677447  1
  O  O151  1  0.53752568  0.59501091  0.36470113  1
  O  O152  1  0.27134977  0.92174634  0.35359742  1
  O  O153  1  0.77070025  0.91876589  0.35494834  1
  O  O154  1  0.20523892  0.47918560  0.36459819  1
  O  O155  1  0.70349452  0.48019152  0.36341647  1
  O  O156  1  0.04483501  0.48970647  0.86446974  1
  O  O157  1  0.57041950  0.49691127  0.86164061  1
  O  O158  1  0.19511204  0.92610300  0.85596403  1
  O  O159  1  0.67293800  0.85287183  0.85997463  1
  O  O160  1  0.27005559  0.62090075  0.85942713  1
  O  O161  1  0.74951653  0.64001426  0.85778025  1
  O  O162  1  0.00729274  0.83767415  0.41002820  1
  O  O163  1  0.50814682  0.84104662  0.41023118  1
  O  O164  1  0.40737591  0.97579368  0.41110912  1
  O  O165  1  0.90768475  0.97415416  0.41114129  1
  O  O166  1  0.07768476  0.18569110  0.40948740  1
  O  O167  1  0.57551332  0.18581517  0.40917133  1
  O  O168  1  0.01045359  0.18028023  0.90831395  1
  O  O169  1  0.51311936  0.18895557  0.90915018  1
  O  O170  1  0.07477582  0.96610367  0.91052924  1
  O  O171  1  0.58015613  0.97198666  0.90845794  1
  O  O172  1  0.40903259  0.85554277  0.91484294  1
  O  O173  1  0.90197557  0.82975108  0.90735997  1
  O  O174  1  0.49206582  0.16697438  0.58914512  1
  O  O175  1  0.97930005  0.17308012  0.57722087  1
  O  O176  1  0.09948075  0.00639938  0.57932800  1
  O  O177  1  0.59474559  0.01983621  0.59120065  1
  O  O178  1  0.41593276  0.81019313  0.59473800  1
  O  O179  1  0.90862464  0.79596643  0.57811014  1
  O  O180  1  0.49507355  0.80130048  0.07761090  1
  O  O181  1  0.98119915  0.78872012  0.07395192  1
  O  O182  1  0.40722368  0.01764246  0.07850502  1
  O  O183  1  0.90842505  0.02283201  0.07767546  1
  O  O184  1  0.10036710  0.19515734  0.07527835  1
  O  O185  1  0.60391315  0.18085692  0.07782132  1
  O  O186  1  0.35369361  0.18434891  0.74182795  1
  O  O187  1  0.83829412  0.16802466  0.74725526  1
  O  O188  1  0.23600050  0.28638505  0.75316896  1
  O  O189  1  0.73563541  0.30626285  0.74261044  1
  O  O190  1  0.41428712  0.52545003  0.74095260  1
  O  O191  1  0.90512444  0.51741244  0.74745344  1
  O  O192  1  0.34657405  0.50936256  0.24608495  1
  O  O193  1  0.84806919  0.51324711  0.24459861  1
  O  O194  1  0.40012315  0.28432778  0.24724681  1
  O  O195  1  0.90119173  0.28556838  0.24597464  1
  O  O196  1  0.23639493  0.17799031  0.25282919  1
  O  O197  1  0.73612138  0.17808876  0.25195833  1
  O  O198  1  0.34111209  0.52190091  0.93201365  1
  O  O199  1  0.82689848  0.50398173  0.91943532  1
  O  O200  1  0.42560723  0.34094044  0.92151737  1
  O  O201  1  0.92152989  0.33088108  0.93063956  1
  O  O202  1  0.24540113  0.15473447  0.93164993  1
  O  O203  1  0.74651402  0.13777465  0.92125280  1
  O  O204  1  0.34067003  0.16746239  0.42991898  1
  O  O205  1  0.84005585  0.16156463  0.43171092  1
  O  O206  1  0.24412369  0.32758661  0.43823486  1
  O  O207  1  0.74007519  0.32083762  0.43357910  1
  O  O208  1  0.41896947  0.51731247  0.43362458  1
  O  O209  1  0.91548302  0.51589942  0.43414040  1
  O  O210  1  0.19244966  0.52596653  0.07699307  1
  O  O211  1  0.68940475  0.51987020  0.07705488  1
  O  O212  1  0.06929263  0.61823961  0.07493857  1
  O  O213  1  0.57397174  0.62307330  0.07814082  1
  O  O214  1  0.24048948  0.85570742  0.07480272  1
  O  O215  1  0.74015510  0.85567089  0.07641996  1
  O  O216  1  0.18858636  0.85542729  0.57607657  1
  O  O217  1  0.68407986  0.85634968  0.57721586  1
  O  O218  1  0.24815157  0.63648677  0.57425586  1
  O  O219  1  0.74222065  0.63838718  0.57734706  1
  O  O220  1  0.07198434  0.52016059  0.57909055  1
  O  O221  1  0.57386157  0.50666437  0.57683756  1
  O  O222  1  0.17178139  0.87575801  0.25839651  1
  O  O223  1  0.67109156  0.87590659  0.25577528  1
  O  O224  1  0.26223697  0.68916962  0.25412382  1
  O  O225  1  0.76305126  0.68997052  0.25296114  1
  O  O226  1  0.07020643  0.48660105  0.25177568  1
  O  O227  1  0.57015548  0.48983337  0.25253868  1
  O  O228  1  0.17048989  0.46109291  0.75572014  1
  O  O229  1  0.65672836  0.48127561  0.75696560  1
  O  O230  1  0.07919075  0.68110354  0.75354499  1
  O  O231  1  0.58200537  0.69568065  0.75866002  1
  O  O232  1  0.26521719  0.85402197  0.74436341  1
  O  O233  1  0.75432478  0.83674332  0.76558716  1
