# generated using pymatgen
data_Hg6Sb5Br7
_symmetry_space_group_name_H-M   'P 1'
_cell_length_a   13.17928007
_cell_length_b   13.17928007
_cell_length_c   13.17928007
_cell_angle_alpha   90.00000000
_cell_angle_beta   90.00000000
_cell_angle_gamma   90.00000000
_symmetry_Int_Tables_number   1
_chemical_formula_structural   Hg6Sb5Br7
_chemical_formula_sum   'Hg24 Sb20 Br28'
_cell_volume   2289.15427019
_cell_formula_units_Z   4
loop_
 _symmetry_equiv_pos_site_id
 _symmetry_equiv_pos_as_xyz
  1  'x, y, z'
loop_
 _atom_site_type_symbol
 _atom_site_label
 _atom_site_symmetry_multiplicity
 _atom_site_fract_x
 _atom_site_fract_y
 _atom_site_fract_z
 _atom_site_occupancy
  Hg  Hg0  1  0.68461590  0.30069157  0.05144091  1
  Hg  Hg1  1  0.18461590  0.19930843  0.94855909  1
  Hg  Hg2  1  0.31538410  0.80069157  0.44855909  1
  Hg  Hg3  1  0.19930843  0.94855909  0.18461590  1
  Hg  Hg4  1  0.44855909  0.31538410  0.80069157  1
  Hg  Hg5  1  0.94855909  0.18461590  0.19930843  1
  Hg  Hg6  1  0.30069157  0.05144091  0.68461590  1
  Hg  Hg7  1  0.05144091  0.68461590  0.30069157  1
  Hg  Hg8  1  0.80069157  0.44855909  0.31538410  1
  Hg  Hg9  1  0.69930843  0.55144091  0.81538410  1
  Hg  Hg10  1  0.55144091  0.81538410  0.69930843  1
  Hg  Hg11  1  0.81538410  0.69930843  0.55144091  1
  Hg  Hg12  1  0.31538410  0.69930843  0.94855909  1
  Hg  Hg13  1  0.81538410  0.80069157  0.05144091  1
  Hg  Hg14  1  0.68461590  0.19930843  0.55144091  1
  Hg  Hg15  1  0.80069157  0.05144091  0.81538410  1
  Hg  Hg16  1  0.55144091  0.68461590  0.19930843  1
  Hg  Hg17  1  0.05144091  0.81538410  0.80069157  1
  Hg  Hg18  1  0.69930843  0.94855909  0.31538410  1
  Hg  Hg19  1  0.94855909  0.31538410  0.69930843  1
  Hg  Hg20  1  0.19930843  0.55144091  0.68461590  1
  Hg  Hg21  1  0.30069157  0.44855909  0.18461590  1
  Hg  Hg22  1  0.44855909  0.18461590  0.30069157  1
  Hg  Hg23  1  0.18461590  0.30069157  0.44855909  1
  Sb  Sb24  1  0.26390825  0.23609175  0.76390825  1
  Sb  Sb25  1  0.23609175  0.76390825  0.26390825  1
  Sb  Sb26  1  0.76390825  0.26390825  0.23609175  1
  Sb  Sb27  1  0.73609175  0.73609175  0.73609175  1
  Sb  Sb28  1  0.73609175  0.76390825  0.23609175  1
  Sb  Sb29  1  0.76390825  0.23609175  0.73609175  1
  Sb  Sb30  1  0.23609175  0.73609175  0.76390825  1
  Sb  Sb31  1  0.26390825  0.26390825  0.26390825  1
  Sb  Sb32  1  0.13871154  0.36128846  0.63871154  1
  Sb  Sb33  1  0.36128846  0.63871154  0.13871154  1
  Sb  Sb34  1  0.63871154  0.13871154  0.36128846  1
  Sb  Sb35  1  0.86128846  0.86128846  0.86128846  1
  Sb  Sb36  1  0.86128846  0.63871154  0.36128846  1
  Sb  Sb37  1  0.63871154  0.36128846  0.86128846  1
  Sb  Sb38  1  0.36128846  0.86128846  0.63871154  1
  Sb  Sb39  1  0.13871154  0.13871154  0.13871154  1
  Sb  Sb40  1  0.50000000  0.50000000  0.50000000  1
  Sb  Sb41  1  -0.00000000  -0.00000000  0.50000000  1
  Sb  Sb42  1  -0.00000000  0.50000000  0.00000000  1
  Sb  Sb43  1  0.50000000  -0.00000000  0.00000000  1
  Br  Br44  1  -0.00000000  0.50000000  0.50000000  1
  Br  Br45  1  0.50000000  0.50000000  0.00000000  1
  Br  Br46  1  0.50000000  -0.00000000  0.50000000  1
  Br  Br47  1  -0.00000000  -0.00000000  0.00000000  1
  Br  Br48  1  0.94829598  0.20350691  0.45622903  1
  Br  Br49  1  0.44829598  0.29649309  0.54377097  1
  Br  Br50  1  0.05170402  0.70350691  0.04377097  1
  Br  Br51  1  0.29649309  0.54377097  0.44829598  1
  Br  Br52  1  0.04377097  0.05170402  0.70350691  1
  Br  Br53  1  0.54377097  0.44829598  0.29649309  1
  Br  Br54  1  0.20350691  0.45622903  0.94829598  1
  Br  Br55  1  0.45622903  0.94829598  0.20350691  1
  Br  Br56  1  0.70350691  0.04377097  0.05170402  1
  Br  Br57  1  0.79649309  0.95622903  0.55170402  1
  Br  Br58  1  0.95622903  0.55170402  0.79649309  1
  Br  Br59  1  0.55170402  0.79649309  0.95622903  1
  Br  Br60  1  0.05170402  0.79649309  0.54377097  1
  Br  Br61  1  0.55170402  0.70350691  0.45622903  1
  Br  Br62  1  0.94829598  0.29649309  0.95622903  1
  Br  Br63  1  0.70350691  0.45622903  0.55170402  1
  Br  Br64  1  0.95622903  0.94829598  0.29649309  1
  Br  Br65  1  0.45622903  0.55170402  0.70350691  1
  Br  Br66  1  0.79649309  0.54377097  0.05170402  1
  Br  Br67  1  0.54377097  0.05170402  0.79649309  1
  Br  Br68  1  0.29649309  0.95622903  0.94829598  1
  Br  Br69  1  0.20350691  0.04377097  0.44829598  1
  Br  Br70  1  0.04377097  0.44829598  0.20350691  1
  Br  Br71  1  0.44829598  0.20350691  0.04377097  1
