# generated using pymatgen
data_Ba2TbMgSbO6
_symmetry_space_group_name_H-M   'P 1'
_cell_length_a   7.48146228
_cell_length_b   7.48146171
_cell_length_c   7.48520685
_cell_angle_alpha   49.41135905
_cell_angle_beta   49.41136112
_cell_angle_gamma   49.42290003
_symmetry_Int_Tables_number   1
_chemical_formula_structural   Ba2TbMgSbO6
_chemical_formula_sum   'Ba2 Tb1 Mg1 Sb1 O6'
_cell_volume   222.07804426
_cell_formula_units_Z   1
loop_
 _symmetry_equiv_pos_site_id
 _symmetry_equiv_pos_as_xyz
  1  'x, y, z'
loop_
 _atom_site_type_symbol
 _atom_site_label
 _atom_site_symmetry_multiplicity
 _atom_site_fract_x
 _atom_site_fract_y
 _atom_site_fract_z
 _atom_site_occupancy
  Ba  Ba0  1  0.82708846  0.82708846  0.82838214  1
  Ba  Ba1  1  0.27853644  0.27853644  0.28008787  1
  Tb  Tb2  1  0.00393938  0.00393938  0.00439936  1
  Mg  Mg3  1  0.59589484  0.59589485  0.59708042  1
  Sb  Sb4  1  0.44949619  0.44949619  0.44946697  1
  O  O5  1  0.24040192  0.76887026  0.76965961  1
  O  O6  1  0.24461875  0.70868893  0.24302488  1
  O  O7  1  0.76887026  0.24040192  0.76965961  1
  O  O8  1  0.24378486  0.24378486  0.70640279  1
  O  O9  1  0.70868893  0.24461875  0.24302488  1
  O  O10  1  0.76888797  0.76888797  0.24162346  1
