# generated using pymatgen
data_MgTi(SO4)3
_symmetry_space_group_name_H-M   'P 1'
_cell_length_a   8.59939534
_cell_length_b   8.59939508
_cell_length_c   22.18902567
_cell_angle_alpha   90.00000000
_cell_angle_beta   90.00000000
_cell_angle_gamma   120.00000100
_symmetry_Int_Tables_number   1
_chemical_formula_structural   MgTi(SO4)3
_chemical_formula_sum   'Mg6 Ti6 S18 O72'
_cell_volume   1421.03468079
_cell_formula_units_Z   6
loop_
 _symmetry_equiv_pos_site_id
 _symmetry_equiv_pos_as_xyz
  1  'x, y, z'
loop_
 _atom_site_type_symbol
 _atom_site_label
 _atom_site_symmetry_multiplicity
 _atom_site_fract_x
 _atom_site_fract_y
 _atom_site_fract_z
 _atom_site_occupancy
  Mg  Mg0  1  0.00000000  -0.00000000  0.35454618  1
  Mg  Mg1  1  0.00000000  -0.00000000  0.85454618  1
  Mg  Mg2  1  0.66666700  0.33333300  0.68787918  1
  Mg  Mg3  1  0.66666700  0.33333300  0.18787918  1
  Mg  Mg4  1  0.33333300  0.66666700  0.02121318  1
  Mg  Mg5  1  0.33333300  0.66666700  0.52121318  1
  Ti  Ti6  1  0.00000000  -0.00000000  0.64469760  1
  Ti  Ti7  1  0.00000000  -0.00000000  0.14469760  1
  Ti  Ti8  1  0.66666700  0.33333300  0.97803060  1
  Ti  Ti9  1  0.66666700  0.33333300  0.47803060  1
  Ti  Ti10  1  0.33333300  0.66666700  0.31136460  1
  Ti  Ti11  1  0.33333300  0.66666700  0.81136460  1
  S  S12  1  0.28992306  0.00217265  0.25095685  1
  S  S13  1  0.71224958  0.71007694  0.25095685  1
  S  S14  1  0.99782735  0.28775042  0.25095685  1
  S  S15  1  0.28992306  0.28775042  0.75095685  1
  S  S16  1  0.99782735  0.71007694  0.75095685  1
  S  S17  1  0.71224958  0.00217265  0.75095685  1
  S  S18  1  0.95659006  0.33550565  0.58428985  1
  S  S19  1  0.37891658  0.04340994  0.58428985  1
  S  S20  1  0.66449435  0.62108342  0.58428985  1
  S  S21  1  0.95659006  0.62108342  0.08428985  1
  S  S22  1  0.66449435  0.04340994  0.08428985  1
  S  S23  1  0.37891658  0.33550565  0.08428985  1
  S  S24  1  0.62325606  0.66883965  0.91762385  1
  S  S25  1  0.04558258  0.37674394  0.91762385  1
  S  S26  1  0.33116035  0.95441742  0.91762385  1
  S  S27  1  0.62325606  0.95441742  0.41762385  1
  S  S28  1  0.33116035  0.37674394  0.41762385  1
  S  S29  1  0.04558258  0.66883965  0.41762385  1
  O  O30  1  0.20739649  0.02857912  0.30378273  1
  O  O31  1  0.82118263  0.79260351  0.30378273  1
  O  O32  1  0.97142088  0.17881737  0.30378273  1
  O  O33  1  0.20739649  0.17881737  0.80378273  1
  O  O34  1  0.97142088  0.79260351  0.80378273  1
  O  O35  1  0.82118263  0.02857912  0.80378273  1
  O  O36  1  0.79422401  0.96600549  0.69597584  1
  O  O37  1  0.17178148  0.20577599  0.69597584  1
  O  O38  1  0.03399451  0.82821852  0.69597584  1
  O  O39  1  0.79422401  0.82821852  0.19597584  1
  O  O40  1  0.03399451  0.20577599  0.19597584  1
  O  O41  1  0.17178148  0.96600549  0.19597584  1
  O  O42  1  0.87406349  0.36191212  0.63711573  1
  O  O43  1  0.48784963  0.12593651  0.63711573  1
  O  O44  1  0.63808788  0.51215037  0.63711573  1
  O  O45  1  0.87406349  0.51215037  0.13711573  1
  O  O46  1  0.63808788  0.12593651  0.13711573  1
  O  O47  1  0.48784963  0.36191212  0.13711573  1
  O  O48  1  0.46089101  0.29933849  0.02930884  1
  O  O49  1  0.83844848  0.53910899  0.02930884  1
  O  O50  1  0.70066151  0.16155152  0.02930884  1
  O  O51  1  0.46089101  0.16155152  0.52930884  1
  O  O52  1  0.70066151  0.53910899  0.52930884  1
  O  O53  1  0.83844848  0.29933849  0.52930884  1
  O  O54  1  0.54072949  0.69524612  0.97044973  1
  O  O55  1  0.15451563  0.45927051  0.97044973  1
  O  O56  1  0.30475388  0.84548437  0.97044973  1
  O  O57  1  0.54072949  0.84548437  0.47044973  1
  O  O58  1  0.30475388  0.45927051  0.47044973  1
  O  O59  1  0.15451563  0.69524612  0.47044973  1
  O  O60  1  0.12755701  0.63267249  0.36264284  1
  O  O61  1  0.50511448  0.87244299  0.36264284  1
  O  O62  1  0.36732751  0.49488552  0.36264284  1
  O  O63  1  0.12755701  0.49488552  0.86264284  1
  O  O64  1  0.36732751  0.87244299  0.86264284  1
  O  O65  1  0.50511448  0.63267249  0.86264284  1
  O  O66  1  0.02092152  0.82091277  0.40734535  1
  O  O67  1  0.79999125  0.97907848  0.40734535  1
  O  O68  1  0.17908723  0.20000875  0.40734535  1
  O  O69  1  0.02092152  0.20000875  0.90734535  1
  O  O70  1  0.17908723  0.97907848  0.90734535  1
  O  O71  1  0.79999125  0.82091277  0.90734535  1
  O  O72  1  0.97130305  0.16819706  0.59219131  1
  O  O73  1  0.19689401  0.02869695  0.59219131  1
  O  O74  1  0.83180294  0.80310599  0.59219131  1
  O  O75  1  0.97130305  0.80310599  0.09219131  1
  O  O76  1  0.83180294  0.02869695  0.09219131  1
  O  O77  1  0.19689401  0.16819706  0.09219131  1
  O  O78  1  0.68758852  0.15424577  0.74067835  1
  O  O79  1  0.46665825  0.31241148  0.74067835  1
  O  O80  1  0.84575423  0.53334175  0.74067835  1
  O  O81  1  0.68758852  0.53334175  0.24067835  1
  O  O82  1  0.84575423  0.31241148  0.24067835  1
  O  O83  1  0.46665825  0.15424577  0.24067835  1
  O  O84  1  0.63797005  0.50153006  0.92552431  1
  O  O85  1  0.86356101  0.36202995  0.92552431  1
  O  O86  1  0.49846994  0.13643899  0.92552431  1
  O  O87  1  0.63797005  0.13643899  0.42552431  1
  O  O88  1  0.49846994  0.36202995  0.42552431  1
  O  O89  1  0.86356101  0.50153006  0.42552431  1
  O  O90  1  0.35425452  0.48757977  0.07401235  1
  O  O91  1  0.13332425  0.64574548  0.07401235  1
  O  O92  1  0.51242023  0.86667575  0.07401235  1
  O  O93  1  0.35425452  0.86667575  0.57401235  1
  O  O94  1  0.51242023  0.64574548  0.57401235  1
  O  O95  1  0.13332425  0.48757977  0.57401235  1
  O  O96  1  0.30463605  0.83486406  0.25885831  1
  O  O97  1  0.53022701  0.69536395  0.25885831  1
  O  O98  1  0.16513594  0.46977299  0.25885831  1
  O  O99  1  0.30463605  0.46977299  0.75885831  1
  O  O100  1  0.16513594  0.69536395  0.75885831  1
  O  O101  1  0.53022701  0.83486406  0.75885831  1
