# generated using pymatgen
data_MgCr2O6
_symmetry_space_group_name_H-M   'P 1'
_cell_length_a   5.45360476
_cell_length_b   5.95127804
_cell_length_c   5.56986913
_cell_angle_alpha   90.85427338
_cell_angle_beta   85.54128312
_cell_angle_gamma   122.16589466
_symmetry_Int_Tables_number   1
_chemical_formula_structural   MgCr2O6
_chemical_formula_sum   'Mg1 Cr2 O6'
_cell_volume   152.48984058
_cell_formula_units_Z   1
loop_
 _symmetry_equiv_pos_site_id
 _symmetry_equiv_pos_as_xyz
  1  'x, y, z'
loop_
 _atom_site_type_symbol
 _atom_site_label
 _atom_site_symmetry_multiplicity
 _atom_site_fract_x
 _atom_site_fract_y
 _atom_site_fract_z
 _atom_site_occupancy
  Mg  Mg0  1  0.11026700  0.85429700  0.91375200  1
  Cr  Cr1  1  0.55620900  0.82219400  0.25868900  1
  Cr  Cr2  1  0.79764000  0.18795100  0.74614100  1
  O  O3  1  0.86275900  0.82526500  0.20613200  1
  O  O4  1  0.05034500  0.11338200  0.74918500  1
  O  O5  1  0.51658800  0.98478000  0.98818700  1
  O  O6  1  0.57156800  0.03424800  0.50347600  1
  O  O7  1  0.89324900  0.50194400  0.77590000  1
  O  O8  1  0.25387200  0.53843800  0.28562100  1
