# generated using pymatgen
data_Sr8MgZn4(WO6)4
_symmetry_space_group_name_H-M   'P 1'
_cell_length_a   8.13820406
_cell_length_b   8.05432979
_cell_length_c   8.40397905
_cell_angle_alpha   89.13106793
_cell_angle_beta   90.12805970
_cell_angle_gamma   91.80942947
_symmetry_Int_Tables_number   1
_chemical_formula_structural   Sr8MgZn4(WO6)4
_chemical_formula_sum   'Sr8 Mg1 Zn4 W4 O24'
_cell_volume   550.52332660
_cell_formula_units_Z   1
loop_
 _symmetry_equiv_pos_site_id
 _symmetry_equiv_pos_as_xyz
  1  'x, y, z'
loop_
 _atom_site_type_symbol
 _atom_site_label
 _atom_site_symmetry_multiplicity
 _atom_site_fract_x
 _atom_site_fract_y
 _atom_site_fract_z
 _atom_site_occupancy
  Sr  Sr0  1  0.72904000  0.52836400  0.50005100  1
  Sr  Sr1  1  0.24129700  0.51784400  0.50354100  1
  Sr  Sr2  1  0.69219700  0.00521300  0.50513300  1
  Sr  Sr3  1  0.26792700  0.02060300  0.49776300  1
  Sr  Sr4  1  0.74638400  0.46334200  0.97896500  1
  Sr  Sr5  1  0.30235200  0.48279100  0.98128100  1
  Sr  Sr6  1  0.27212400  0.96526500  0.99312600  1
  Sr  Sr7  1  0.77407500  0.98085900  0.00084700  1
  Mg  Mg8  1  0.03172900  0.61861300  0.16760500  1
  Zn  Zn9  1  0.99268400  0.22687500  0.70529400  1
  Zn  Zn10  1  0.96833700  0.88477400  0.34146600  1
  Zn  Zn11  1  0.50369300  0.24794600  0.24574000  1
  Zn  Zn12  1  0.50479200  0.74721100  0.74978900  1
  W  W13  1  0.00398200  0.25636200  0.25780800  1
  W  W14  1  0.00071300  0.74452200  0.74933700  1
  W  W15  1  0.49949200  0.24478900  0.74430600  1
  W  W16  1  0.50339100  0.74413700  0.24124700  1
  O  O17  1  0.03740000  0.02149000  0.16641000  1
  O  O18  1  0.03054600  0.98438600  0.79182300  1
  O  O19  1  0.02902800  0.38959800  0.05447600  1
  O  O20  1  0.94210900  0.71674900  0.97232400  1
  O  O21  1  0.97672900  0.48022700  0.35339300  1
  O  O22  1  0.97002800  0.50659600  0.71058500  1
  O  O23  1  0.97461300  0.13390600  0.47681100  1
  O  O24  1  0.06536200  0.78159700  0.52300500  1
  O  O25  1  0.76662300  0.22252000  0.21390800  1
  O  O26  1  0.23521500  0.71415000  0.79006900  1
  O  O27  1  0.73954000  0.21737400  0.77275500  1
  O  O28  1  0.25840500  0.70161300  0.19664900  1
  O  O29  1  0.76930500  0.77722800  0.69737600  1
  O  O30  1  0.24322200  0.27153700  0.29579000  1
  O  O31  1  0.47214100  0.98538700  0.26120400  1
  O  O32  1  0.46977300  0.00477300  0.72582000  1
  O  O33  1  0.47495700  0.22956200  0.97575800  1
  O  O34  1  0.53581400  0.76727200  0.99924500  1
  O  O35  1  0.52963100  0.26216400  0.51382500  1
  O  O36  1  0.47430400  0.73049500  0.48496300  1
  O  O37  1  0.54015700  0.50600000  0.22209500  1
  O  O38  1  0.53059800  0.48593600  0.75945100  1
  O  O39  1  0.75479600  0.78402400  0.28739800  1
  O  O40  1  0.26216400  0.27090600  0.71656600  1
