# generated using pymatgen
data_Na5Mg2Ge2P5SO24
_symmetry_space_group_name_H-M   'P 1'
_cell_length_a   8.70764985
_cell_length_b   8.70904601
_cell_length_c   21.91734105
_cell_angle_alpha   90.39752628
_cell_angle_beta   89.39100070
_cell_angle_gamma   120.23622646
_symmetry_Int_Tables_number   1
_chemical_formula_structural   Na5Mg2Ge2P5SO24
_chemical_formula_sum   'Na15 Mg6 Ge6 P15 S3 O72'
_cell_volume   1435.90616999
_cell_formula_units_Z   3
loop_
 _symmetry_equiv_pos_site_id
 _symmetry_equiv_pos_as_xyz
  1  'x, y, z'
loop_
 _atom_site_type_symbol
 _atom_site_label
 _atom_site_symmetry_multiplicity
 _atom_site_fract_x
 _atom_site_fract_y
 _atom_site_fract_z
 _atom_site_occupancy
  Na  Na0  1  0.63801090  0.00018849  0.25247396  1
  Na  Na1  1  0.36951793  0.37276855  0.24745718  1
  Na  Na2  1  0.99452086  0.62408457  0.25235262  1
  Na  Na3  1  0.63886320  0.63171957  0.74795219  1
  Na  Na4  1  0.99251277  0.36085182  0.74879323  1
  Na  Na5  1  0.36903469  0.00921234  0.74887321  1
  Na  Na6  1  0.30358787  0.96522547  0.07712562  1
  Na  Na7  1  0.03684264  0.34400816  0.07835897  1
  Na  Na8  1  0.70453862  0.67455024  0.41818991  1
  Na  Na9  1  0.00441094  0.00432440  0.50067995  1
  Na  Na10  1  0.99841873  0.99763798  0.99151042  1
  Na  Na11  1  0.66673858  0.33121770  0.83463372  1
  Na  Na12  1  0.67595807  0.32788197  0.33728301  1
  Na  Na13  1  0.34368070  0.66327035  0.16197677  1
  Na  Na14  1  0.33428317  0.66635808  0.66268615  1
  Mg  Mg15  1  0.99453751  0.99982771  0.35691738  1
  Mg  Mg16  1  0.00404286  0.00417811  0.85435973  1
  Mg  Mg17  1  0.66796783  0.33480031  0.68122930  1
  Mg  Mg18  1  0.66907662  0.33610983  0.18290261  1
  Mg  Mg19  1  0.33442417  0.66616510  0.01779260  1
  Mg  Mg20  1  0.33104948  0.66645195  0.31860495  1
  Ge  Ge21  1  0.00029047  -0.00007729  0.64585449  1
  Ge  Ge22  1  0.98643240  0.99776568  0.14400449  1
  Ge  Ge23  1  0.66933842  0.32653169  0.98110779  1
  Ge  Ge24  1  0.67925688  0.32832043  0.48796630  1
  Ge  Ge25  1  0.33256016  0.67635304  0.52077895  1
  Ge  Ge26  1  0.32622277  0.66993757  0.81850983  1
  P  P27  1  0.71101697  0.70981242  0.25067000  1
  P  P28  1  0.99956450  0.28739966  0.24953454  1
  P  P29  1  0.28851689  0.29122953  0.75089353  1
  P  P30  1  0.00091914  0.71311797  0.75099370  1
  P  P31  1  0.71003099  0.99702327  0.75162405  1
  P  P32  1  0.96730032  0.33387421  0.58424638  1
  P  P33  1  0.37264663  0.04169404  0.58383884  1
  P  P34  1  0.66416557  0.62837623  0.58270619  1
  P  P35  1  0.95290956  0.62665148  0.08421851  1
  P  P36  1  0.66667530  0.03975854  0.08495881  1
  P  P37  1  0.37743618  0.33343860  0.08532974  1
  P  P38  1  0.03702158  0.37398578  0.91951491  1
  P  P39  1  0.33576737  0.96285823  0.91973886  1
  P  P40  1  0.62024722  0.96442920  0.41888796  1
  P  P41  1  0.03983390  0.66106616  0.41919944  1
  S  S42  1  0.28747628  0.00004283  0.24960053  1
  S  S43  1  0.62314297  0.66200902  0.91747417  1
  S  S44  1  0.33565186  0.37411172  0.41857938  1
  O  O45  1  0.20475714  0.02876830  0.30276423  1
  O  O46  1  0.82538310  0.78906111  0.30684258  1
  O  O47  1  0.97070187  0.16896501  0.30334266  1
  O  O48  1  0.20836064  0.17490990  0.80532113  1
  O  O49  1  0.96559695  0.79311785  0.80596151  1
  O  O50  1  0.82494403  0.03056076  0.80590200  1
  O  O51  1  0.78749468  0.95144533  0.69246107  1
  O  O52  1  0.16522221  0.21375200  0.69256493  1
  O  O53  1  0.04727706  0.83576210  0.69245117  1
  O  O54  1  0.79939124  0.83515007  0.19267107  1
  O  O55  1  0.03771272  0.20587484  0.18865702  1
  O  O56  1  0.17873740  0.96721287  0.19237652  1
  O  O57  1  0.89448569  0.37040958  0.64168442  1
  O  O58  1  0.47798525  0.11270670  0.64162421  1
  O  O59  1  0.63035410  0.52067171  0.64003611  1
  O  O60  1  0.87985246  0.51893086  0.14220168  1
  O  O61  1  0.63520870  0.11657879  0.14299673  1
  O  O62  1  0.47547520  0.35373476  0.14402380  1
  O  O63  1  0.46189962  0.28876928  0.02879077  1
  O  O64  1  0.83166608  0.53968464  0.02746770  1
  O  O65  1  0.71299123  0.16921146  0.02909702  1
  O  O66  1  0.46221907  0.16448051  0.52689171  1
  O  O67  1  0.69830881  0.54117456  0.52422685  1
  O  O68  1  0.84519677  0.29528998  0.52721227  1
  O  O69  1  0.53786986  0.68522365  0.97055342  1
  O  O70  1  0.14477531  0.45926221  0.97591784  1
  O  O71  1  0.31739195  0.85676361  0.97609342  1
  O  O72  1  0.52708783  0.83038783  0.47302152  1
  O  O73  1  0.30690236  0.46078072  0.47249007  1
  O  O74  1  0.16093761  0.68830521  0.47440875  1
  O  O75  1  0.10640860  0.62352586  0.35941756  1
  O  O76  1  0.51672698  0.89312084  0.35952574  1
  O  O77  1  0.37144625  0.48197573  0.36222791  1
  O  O78  1  0.12123538  0.49435564  0.85880049  1
  O  O79  1  0.37623330  0.88160048  0.85874638  1
  O  O80  1  0.51250770  0.62840837  0.85905820  1
  O  O81  1  0.01442267  0.82269891  0.41687968  1
  O  O82  1  0.80342663  0.98004850  0.41714872  1
  O  O83  1  0.17923067  0.19663385  0.41341183  1
  O  O84  1  0.01031532  0.19035376  0.91139066  1
  O  O85  1  0.17456073  0.98202268  0.91171845  1
  O  O86  1  0.79926553  0.81821431  0.91000850  1
  O  O87  1  0.98368050  0.16365929  0.58843193  1
  O  O88  1  0.18374230  0.02206842  0.58763814  1
  O  O89  1  0.83651184  0.81673232  0.58688096  1
  O  O90  1  0.97615601  0.81942084  0.08911950  1
  O  O91  1  0.84521228  0.03276757  0.08748372  1
  O  O92  1  0.18513184  0.15403091  0.08801797  1
  O  O93  1  0.68114899  0.15543889  0.74290649  1
  O  O94  1  0.47657058  0.32089935  0.74193323  1
  O  O95  1  0.84277637  0.52456784  0.74243219  1
  O  O96  1  0.68606806  0.52282275  0.24404632  1
  O  O97  1  0.83329075  0.30578525  0.24410968  1
  O  O98  1  0.46755762  0.15880632  0.24412793  1
  O  O99  1  0.63567686  0.49581744  0.92078021  1
  O  O100  1  0.85025420  0.36676391  0.92265880  1
  O  O101  1  0.51275012  0.15283407  0.92275084  1
  O  O102  1  0.63474512  0.15027916  0.42860171  1
  O  O103  1  0.50215444  0.36352710  0.42475281  1
  O  O104  1  0.84541583  0.49014458  0.42784733  1
  O  O105  1  0.34485479  0.48793821  0.07750008  1
  O  O106  1  0.14110202  0.65519270  0.07697405  1
  O  O107  1  0.50569319  0.85658203  0.07672451  1
  O  O108  1  0.35091684  0.85240191  0.57462633  1
  O  O109  1  0.49686197  0.64816967  0.57236981  1
  O  O110  1  0.15468171  0.50159816  0.57302390  1
  O  O111  1  0.30590854  0.83928411  0.25301257  1
  O  O112  1  0.52683271  0.69519443  0.25324623  1
  O  O113  1  0.16763918  0.47387914  0.25114167  1
  O  O114  1  0.30544758  0.48278791  0.75687239  1
  O  O115  1  0.17662828  0.69738932  0.75580257  1
  O  O116  1  0.51814736  0.82080154  0.75674596  1
