# generated using pymatgen
data_ZrNb(PO4)3
_symmetry_space_group_name_H-M   'P 1'
_cell_length_a   8.90205225
_cell_length_b   8.90205196
_cell_length_c   22.79536612
_cell_angle_alpha   90.00000000
_cell_angle_beta   90.00000000
_cell_angle_gamma   120.00000110
_symmetry_Int_Tables_number   1
_chemical_formula_structural   ZrNb(PO4)3
_chemical_formula_sum   'Zr6 Nb6 P18 O72'
_cell_volume   1564.43478102
_cell_formula_units_Z   6
loop_
 _symmetry_equiv_pos_site_id
 _symmetry_equiv_pos_as_xyz
  1  'x, y, z'
loop_
 _atom_site_type_symbol
 _atom_site_label
 _atom_site_symmetry_multiplicity
 _atom_site_fract_x
 _atom_site_fract_y
 _atom_site_fract_z
 _atom_site_occupancy
  Zr  Zr0  1  -0.00000000  0.00000000  0.35842200  1
  Zr  Zr1  1  -0.00000000  0.00000000  0.85842200  1
  Zr  Zr2  1  0.66666700  0.33333300  0.69175500  1
  Zr  Zr3  1  0.66666700  0.33333300  0.19175500  1
  Zr  Zr4  1  0.33333300  0.66666700  0.02508900  1
  Zr  Zr5  1  0.33333300  0.66666700  0.52508900  1
  Nb  Nb6  1  -0.00000000  0.00000000  0.64314176  1
  Nb  Nb7  1  -0.00000000  0.00000000  0.14314176  1
  Nb  Nb8  1  0.66666700  0.33333300  0.97647476  1
  Nb  Nb9  1  0.66666700  0.33333300  0.47647476  1
  Nb  Nb10  1  0.33333300  0.66666700  0.30980876  1
  Nb  Nb11  1  0.33333300  0.66666700  0.80980876  1
  P  P12  1  0.28015600  0.99332562  0.25001567  1
  P  P13  1  0.71316962  0.71984400  0.25001567  1
  P  P14  1  0.00667438  0.28683038  0.25001567  1
  P  P15  1  0.28015600  0.28683038  0.75001567  1
  P  P16  1  0.00667438  0.71984400  0.75001567  1
  P  P17  1  0.71316962  0.99332562  0.75001567  1
  P  P18  1  0.94682300  0.32665862  0.58334867  1
  P  P19  1  0.37983662  0.05317700  0.58334867  1
  P  P20  1  0.67334138  0.62016338  0.58334867  1
  P  P21  1  0.94682300  0.62016338  0.08334867  1
  P  P22  1  0.67334138  0.05317700  0.08334867  1
  P  P23  1  0.37983662  0.32665862  0.08334867  1
  P  P24  1  0.61348900  0.65999262  0.91668267  1
  P  P25  1  0.04650262  0.38651100  0.91668267  1
  P  P26  1  0.34000738  0.95349738  0.91668267  1
  P  P27  1  0.61348900  0.95349738  0.41668267  1
  P  P28  1  0.34000738  0.38651100  0.41668267  1
  P  P29  1  0.04650262  0.65999262  0.41668267  1
  O  O30  1  0.19924218  0.02388256  0.30399409  1
  O  O31  1  0.82464038  0.80075782  0.30399409  1
  O  O32  1  0.97611744  0.17535962  0.30399409  1
  O  O33  1  0.19924218  0.17535962  0.80399409  1
  O  O34  1  0.97611744  0.80075782  0.80399409  1
  O  O35  1  0.82464038  0.02388256  0.80399409  1
  O  O36  1  0.79994136  0.96332230  0.69520923  1
  O  O37  1  0.16338094  0.20005864  0.69520923  1
  O  O38  1  0.03667770  0.83661906  0.69520923  1
  O  O39  1  0.79994136  0.83661906  0.19520923  1
  O  O40  1  0.03667770  0.20005864  0.19520923  1
  O  O41  1  0.16338094  0.96332230  0.19520923  1
  O  O42  1  0.86590918  0.35721556  0.63732709  1
  O  O43  1  0.49130738  0.13409082  0.63732709  1
  O  O44  1  0.64278444  0.50869262  0.63732709  1
  O  O45  1  0.86590918  0.50869262  0.13732709  1
  O  O46  1  0.64278444  0.13409082  0.13732709  1
  O  O47  1  0.49130738  0.35721556  0.13732709  1
  O  O48  1  0.46660836  0.29665530  0.02854223  1
  O  O49  1  0.83004794  0.53339164  0.02854223  1
  O  O50  1  0.70334470  0.16995206  0.02854223  1
  O  O51  1  0.46660836  0.16995206  0.52854223  1
  O  O52  1  0.70334470  0.53339164  0.52854223  1
  O  O53  1  0.83004794  0.29665530  0.52854223  1
  O  O54  1  0.53257518  0.69054956  0.97066109  1
  O  O55  1  0.15797338  0.46742482  0.97066109  1
  O  O56  1  0.30945044  0.84202662  0.97066109  1
  O  O57  1  0.53257518  0.84202662  0.47066109  1
  O  O58  1  0.30945044  0.46742482  0.47066109  1
  O  O59  1  0.15797338  0.69054956  0.47066109  1
  O  O60  1  0.13327436  0.62998930  0.36187623  1
  O  O61  1  0.49671394  0.86672564  0.36187623  1
  O  O62  1  0.37001070  0.50328606  0.36187623  1
  O  O63  1  0.13327436  0.50328606  0.86187623  1
  O  O64  1  0.37001070  0.86672564  0.86187623  1
  O  O65  1  0.49671394  0.62998930  0.86187623  1
  O  O66  1  0.02037935  0.81469881  0.40707827  1
  O  O67  1  0.79431946  0.97962065  0.40707827  1
  O  O68  1  0.18530119  0.20568054  0.40707827  1
  O  O69  1  0.02037935  0.20568054  0.90707827  1
  O  O70  1  0.18530119  0.97962065  0.90707827  1
  O  O71  1  0.79431946  0.81469881  0.90707827  1
  O  O72  1  0.96179480  0.16055745  0.59318148  1
  O  O73  1  0.19876265  0.03820520  0.59318148  1
  O  O74  1  0.83944255  0.80123735  0.59318148  1
  O  O75  1  0.96179480  0.80123735  0.09318148  1
  O  O76  1  0.83944255  0.03820520  0.09318148  1
  O  O77  1  0.19876265  0.16055745  0.09318148  1
  O  O78  1  0.68704635  0.14803181  0.74041127  1
  O  O79  1  0.46098646  0.31295365  0.74041127  1
  O  O80  1  0.85196819  0.53901354  0.74041127  1
  O  O81  1  0.68704635  0.53901354  0.24041127  1
  O  O82  1  0.85196819  0.31295365  0.24041127  1
  O  O83  1  0.46098646  0.14803181  0.24041127  1
  O  O84  1  0.62846180  0.49389045  0.92651448  1
  O  O85  1  0.86542965  0.37153820  0.92651448  1
  O  O86  1  0.50610955  0.13457035  0.92651448  1
  O  O87  1  0.62846180  0.13457035  0.42651448  1
  O  O88  1  0.50610955  0.37153820  0.42651448  1
  O  O89  1  0.86542965  0.49389045  0.42651448  1
  O  O90  1  0.35371235  0.48136581  0.07374527  1
  O  O91  1  0.12765246  0.64628765  0.07374527  1
  O  O92  1  0.51863419  0.87234754  0.07374527  1
  O  O93  1  0.35371235  0.87234754  0.57374527  1
  O  O94  1  0.51863419  0.64628765  0.57374527  1
  O  O95  1  0.12765246  0.48136581  0.57374527  1
  O  O96  1  0.29512780  0.82722445  0.25984848  1
  O  O97  1  0.53209565  0.70487220  0.25984848  1
  O  O98  1  0.17277555  0.46790435  0.25984848  1
  O  O99  1  0.29512780  0.46790435  0.75984848  1
  O  O100  1  0.17277555  0.70487220  0.75984848  1
  O  O101  1  0.53209565  0.82722445  0.75984848  1
