# generated using pymatgen
data_Sb2(SO4)3
_symmetry_space_group_name_H-M   'P 1'
_cell_length_a   4.78432932
_cell_length_b   13.08811723
_cell_length_c   17.67999362
_cell_angle_alpha   53.57788768
_cell_angle_beta   90.00000000
_cell_angle_gamma   90.00000000
_symmetry_Int_Tables_number   1
_chemical_formula_structural   Sb2(SO4)3
_chemical_formula_sum   'Sb8 S12 O48'
_cell_volume   890.83096610
_cell_formula_units_Z   4
loop_
 _symmetry_equiv_pos_site_id
 _symmetry_equiv_pos_as_xyz
  1  'x, y, z'
loop_
 _atom_site_type_symbol
 _atom_site_label
 _atom_site_symmetry_multiplicity
 _atom_site_fract_x
 _atom_site_fract_y
 _atom_site_fract_z
 _atom_site_occupancy
  Sb  Sb0  1  0.69636298  0.11802623  0.05962343  1
  Sb  Sb1  1  0.19636298  0.88197377  0.44037657  1
  Sb  Sb2  1  0.30363702  0.88197377  0.94037657  1
  Sb  Sb3  1  0.80363702  0.11802623  0.55962343  1
  Sb  Sb4  1  0.93011895  0.35001172  0.22004321  1
  Sb  Sb5  1  0.43011895  0.64998828  0.27995679  1
  Sb  Sb6  1  0.06988105  0.64998828  0.77995679  1
  Sb  Sb7  1  0.56988105  0.35001172  0.72004321  1
  S  S8  1  0.13635024  0.16335142  0.89132116  1
  S  S9  1  0.63635024  0.83664858  0.60867884  1
  S  S10  1  0.86364976  0.83664858  0.10867884  1
  S  S11  1  0.36364976  0.16335142  0.39132116  1
  S  S12  1  0.17616583  0.17521788  0.17228510  1
  S  S13  1  0.67616583  0.82478212  0.32771490  1
  S  S14  1  0.82383417  0.82478212  0.82771490  1
  S  S15  1  0.32383417  0.17521788  0.67228510  1
  S  S16  1  0.43730972  0.55804649  0.11113499  1
  S  S17  1  0.93730972  0.44195351  0.38886501  1
  S  S18  1  0.56269028  0.44195351  0.88886501  1
  S  S19  1  0.06269028  0.55804649  0.61113499  1
  O  O20  1  0.14598741  0.27220718  0.78927495  1
  O  O21  1  0.64598741  0.72779282  0.71072505  1
  O  O22  1  0.85401259  0.72779282  0.21072505  1
  O  O23  1  0.35401259  0.27220718  0.28927495  1
  O  O24  1  0.94974202  0.20609801  0.93538043  1
  O  O25  1  0.44974202  0.79390199  0.56461957  1
  O  O26  1  0.05025798  0.79390199  0.06461957  1
  O  O27  1  0.55025798  0.20609801  0.43538043  1
  O  O28  1  0.41770824  0.13645310  0.92953717  1
  O  O29  1  0.91770824  0.86354690  0.57046283  1
  O  O30  1  0.58229176  0.86354690  0.07046283  1
  O  O31  1  0.08229176  0.13645310  0.42953717  1
  O  O32  1  0.01279151  0.05222424  0.90248652  1
  O  O33  1  0.51279151  0.94777576  0.59751348  1
  O  O34  1  0.98720849  0.94777576  0.09751348  1
  O  O35  1  0.48720849  0.05222424  0.40248652  1
  O  O36  1  0.06375107  0.14839758  0.10569129  1
  O  O37  1  0.47705563  0.17018829  0.16881555  1
  O  O38  1  0.52294437  0.82981171  0.83118445  1
  O  O39  1  0.02294437  0.17018829  0.66881555  1
  O  O40  1  0.95735656  0.56399835  0.68526774  1
  O  O41  1  0.45735656  0.43600165  0.81473226  1
  O  O42  1  0.04264344  0.43600165  0.31473226  1
  O  O43  1  0.54264344  0.56399835  0.18526774  1
  O  O44  1  0.36462329  0.51563832  0.62941192  1
  O  O45  1  0.86462329  0.48436168  0.87058808  1
  O  O46  1  0.63537671  0.48436168  0.37058808  1
  O  O47  1  0.13537671  0.51563832  0.12941192  1
  O  O48  1  0.06721379  0.68150737  0.51836249  1
  O  O49  1  0.56721379  0.31849263  0.98163751  1
  O  O50  1  0.93278621  0.31849263  0.48163751  1
  O  O51  1  0.43278621  0.68150737  0.01836249  1
  O  O52  1  0.89344759  0.46831419  0.60577795  1
  O  O53  1  0.39344759  0.53168581  0.89422205  1
  O  O54  1  0.10655241  0.53168581  0.39422205  1
  O  O55  1  0.60655241  0.46831419  0.10577795  1
  O  O56  1  0.44457813  0.09197413  0.76505731  1
  O  O57  1  0.94457813  0.90802587  0.73494269  1
  O  O58  1  0.55542187  0.90802587  0.23494269  1
  O  O59  1  0.05542187  0.09197413  0.26505731  1
  O  O60  1  0.42042502  0.30986656  0.63005713  1
  O  O61  1  0.92042502  0.69013344  0.86994287  1
  O  O62  1  0.57957498  0.69013344  0.36994287  1
  O  O63  1  0.07957498  0.30986656  0.13005713  1
  O  O64  1  0.43624893  0.14839758  0.60569129  1
  O  O65  1  0.93624893  0.85160242  0.89430871  1
  O  O66  1  0.56375107  0.85160242  0.39430871  1
  O  O67  1  0.97705563  0.82981171  0.33118445  1
