# generated using pymatgen
data_Na3BiO4
_symmetry_space_group_name_H-M   'P 1'
_cell_length_a   5.65128477
_cell_length_b   5.82008627
_cell_length_c   6.66812247
_cell_angle_alpha   90.00000000
_cell_angle_beta   90.00000000
_cell_angle_gamma   109.80328916
_symmetry_Int_Tables_number   1
_chemical_formula_structural   Na3BiO4
_chemical_formula_sum   'Na6 Bi2 O8'
_cell_volume   206.35062910
_cell_formula_units_Z   2
loop_
 _symmetry_equiv_pos_site_id
 _symmetry_equiv_pos_as_xyz
  1  'x, y, z'
loop_
 _atom_site_type_symbol
 _atom_site_label
 _atom_site_symmetry_multiplicity
 _atom_site_fract_x
 _atom_site_fract_y
 _atom_site_fract_z
 _atom_site_occupancy
  Na  Na0  1  0.75000000  0.00000000  0.38206741  1
  Na  Na1  1  0.25000000  0.50000000  0.39824073  1
  Na  Na2  1  0.75000000  0.50000000  0.12984054  1
  Na  Na3  1  0.25000000  0.50000000  0.87015946  1
  Na  Na4  1  0.25000000  0.00000000  0.61793259  1
  Na  Na5  1  0.75000000  0.50000000  0.60175927  1
  Bi  Bi6  1  0.75000000  0.00000000  0.86253343  1
  Bi  Bi7  1  0.25000000  0.00000000  0.13746657  1
  O  O8  1  0.97112807  0.23702224  0.65145221  1
  O  O9  1  0.52887193  0.76297776  0.65145221  1
  O  O10  1  0.02887293  0.76297776  0.34854779  1
  O  O11  1  0.47112807  0.23702224  0.34854779  1
  O  O12  1  0.49840214  0.21088843  0.89810971  1
  O  O13  1  0.00159786  0.78911157  0.89810971  1
  O  O14  1  0.99840214  0.21088843  0.10189029  1
  O  O15  1  0.50159786  0.78911157  0.10189029  1
