# generated using pymatgen
data_MgV3CoO8
_symmetry_space_group_name_H-M   'P 1'
_cell_length_a   6.50511908
_cell_length_b   6.50511891
_cell_length_c   6.87727831
_cell_angle_alpha   73.38800284
_cell_angle_beta   106.61199568
_cell_angle_gamma   145.69081060
_symmetry_Int_Tables_number   1
_chemical_formula_structural   MgV3CoO8
_chemical_formula_sum   'Mg1 V3 Co1 O8'
_cell_volume   156.52304042
_cell_formula_units_Z   1
loop_
 _symmetry_equiv_pos_site_id
 _symmetry_equiv_pos_as_xyz
  1  'x, y, z'
loop_
 _atom_site_type_symbol
 _atom_site_label
 _atom_site_symmetry_multiplicity
 _atom_site_fract_x
 _atom_site_fract_y
 _atom_site_fract_z
 _atom_site_occupancy
  Mg  Mg0  1  0.81877200  0.18122800  0.99443600  1
  V  V1  1  0.40511600  0.59488400  0.30813900  1
  V  V2  1  0.59452000  0.40548000  0.70716000  1
  V  V3  1  0.28810100  0.71189900  0.66261900  1
  Co  Co4  1  0.69132100  0.30867900  0.28638400  1
  O  O5  1  0.12250800  0.87749200  0.67814700  1
  O  O6  1  0.24840800  0.75159200  0.36670200  1
  O  O7  1  0.35584600  0.64415400  0.00550500  1
  O  O8  1  0.44695900  0.55304100  0.64145700  1
  O  O9  1  0.55428700  0.44571300  0.37647800  1
  O  O10  1  0.64462200  0.35537800  0.97188400  1
  O  O11  1  0.76327700  0.23672300  0.69093800  1
  O  O12  1  0.86834700  0.13165300  0.29014900  1
