# generated using pymatgen
data_Na6Ta4Si9Ge4(SO16)3
_symmetry_space_group_name_H-M   'P 1'
_cell_length_a   17.50137479
_cell_length_b   8.78300082
_cell_length_c   22.34852552
_cell_angle_alpha   89.72910006
_cell_angle_beta   89.52837385
_cell_angle_gamma   120.09694976
_symmetry_Int_Tables_number   1
_chemical_formula_structural   Na6Ta4Si9Ge4(SO16)3
_chemical_formula_sum   'Na18 Ta12 Si27 Ge12 S9 O144'
_cell_volume   2971.88516387
_cell_formula_units_Z   3
loop_
 _symmetry_equiv_pos_site_id
 _symmetry_equiv_pos_as_xyz
  1  'x, y, z'
loop_
 _atom_site_type_symbol
 _atom_site_label
 _atom_site_symmetry_multiplicity
 _atom_site_fract_x
 _atom_site_fract_y
 _atom_site_fract_z
 _atom_site_occupancy
  Na  Na0  1  0.00117429  0.63805100  0.24629860  1
  Na  Na1  1  0.50090258  0.63306913  0.24697403  1
  Na  Na2  1  0.00063873  0.36878808  0.74701877  1
  Na  Na3  1  0.50191096  0.36218630  0.74666402  1
  Na  Na4  1  0.33443276  0.96193401  0.58848378  1
  Na  Na5  1  0.83223324  0.70611527  0.08103038  1
  Na  Na6  1  0.99770529  0.01087363  0.50230403  1
  Na  Na7  1  0.50486753  0.99714743  0.50694558  1
  Na  Na8  1  0.00324534  0.01339905  0.00215166  1
  Na  Na9  1  0.49819345  0.98613365  0.99756549  1
  Na  Na10  1  0.32870136  0.33911268  0.82743234  1
  Na  Na11  1  0.82473752  0.33483425  0.82937387  1
  Na  Na12  1  0.32718181  0.31719298  0.33150372  1
  Na  Na13  1  0.82394604  0.31597418  0.33016199  1
  Na  Na14  1  0.17214106  0.67563797  0.16573652  1
  Na  Na15  1  0.66487777  0.66031100  0.16696250  1
  Na  Na16  1  0.16650812  0.67286452  0.66896612  1
  Na  Na17  1  0.66792586  0.66452511  0.66914828  1
  Ta  Ta18  1  0.00390857  0.00657053  0.35506671  1
  Ta  Ta19  1  0.50347489  0.01115888  0.35649607  1
  Ta  Ta20  1  0.00137963  0.99389127  0.85579174  1
  Ta  Ta21  1  0.50221061  0.98673698  0.85151796  1
  Ta  Ta22  1  0.00571330  0.99922752  0.64145617  1
  Ta  Ta23  1  0.50495984  0.01134811  0.14074953  1
  Ta  Ta24  1  0.33010092  0.34238630  0.98280668  1
  Ta  Ta25  1  0.83148141  0.33911578  0.97120883  1
  Ta  Ta26  1  0.33299580  0.32726086  0.47400481  1
  Ta  Ta27  1  0.83000586  0.31799410  0.48341669  1
  Ta  Ta28  1  0.16756183  0.64871026  0.02686514  1
  Ta  Ta29  1  0.66757509  0.68659677  0.52815740  1
  Si  Si30  1  0.15218500  0.00038618  0.25075542  1
  Si  Si31  1  0.65110134  0.01164254  0.24711970  1
  Si  Si32  1  0.85456837  0.71753909  0.24865823  1
  Si  Si33  1  0.49990003  0.29672271  0.24991434  1
  Si  Si34  1  0.14986317  0.28898993  0.74725010  1
  Si  Si35  1  0.65206839  0.30064523  0.75073407  1
  Si  Si36  1  0.99954703  0.70181076  0.75055103  1
  Si  Si37  1  0.50091765  0.70857690  0.74495391  1
  Si  Si38  1  0.35435645  0.98938407  0.74912610  1
  Si  Si39  1  0.47501110  0.32697998  0.58683017  1
  Si  Si40  1  0.98013068  0.34361119  0.58711900  1
  Si  Si41  1  0.19478092  0.04385533  0.58318435  1
  Si  Si42  1  0.68655517  0.05585609  0.59335051  1
  Si  Si43  1  0.83347617  0.61966650  0.58203107  1
  Si  Si44  1  0.47977579  0.61629954  0.08674789  1
  Si  Si45  1  0.97329117  0.61075347  0.08625051  1
  Si  Si46  1  0.33210955  0.04534414  0.08219777  1
  Si  Si47  1  0.18713088  0.31740728  0.09343625  1
  Si  Si48  1  0.69055732  0.34543082  0.07958461  1
  Si  Si49  1  0.30756997  0.66726440  0.91291073  1
  Si  Si50  1  0.80200682  0.67161753  0.91636468  1
  Si  Si51  1  0.02853636  0.38725357  0.91254729  1
  Si  Si52  1  0.66571161  0.93833654  0.91645368  1
  Si  Si53  1  0.30739534  0.94393927  0.41965513  1
  Si  Si54  1  0.80574032  0.94890616  0.41262557  1
  Si  Si55  1  0.16743116  0.39831562  0.41653379  1
  Si  Si56  1  0.52864935  0.66814637  0.41239041  1
  Ge  Ge57  1  0.51042131  0.02521142  0.65421989  1
  Ge  Ge58  1  0.00772983  0.97236347  0.14884172  1
  Ge  Ge59  1  0.33479420  0.31391515  0.69159196  1
  Ge  Ge60  1  0.83209242  0.35402969  0.68447065  1
  Ge  Ge61  1  0.33324878  0.30867105  0.18377601  1
  Ge  Ge62  1  0.82407781  0.35592328  0.18541678  1
  Ge  Ge63  1  0.66191747  0.66653039  0.02018102  1
  Ge  Ge64  1  0.16782235  0.65879428  0.52450073  1
  Ge  Ge65  1  0.17829497  0.69033565  0.31762906  1
  Ge  Ge66  1  0.66814779  0.68448265  0.30576572  1
  Ge  Ge67  1  0.16851846  0.65008852  0.80543525  1
  Ge  Ge68  1  0.66729976  0.66969135  0.81196624  1
  S  S69  1  0.35252558  0.71269028  0.25148544  1
  S  S70  1  0.00157668  0.28979949  0.24827881  1
  S  S71  1  0.85327011  0.99420075  0.75040014  1
  S  S72  1  0.33254534  0.61589385  0.58342021  1
  S  S73  1  0.83406661  0.05145797  0.08531355  1
  S  S74  1  0.52181763  0.37740087  0.91698628  1
  S  S75  1  0.16881731  0.95167525  0.91623089  1
  S  S76  1  0.66942168  0.38765602  0.41577476  1
  S  S77  1  0.02257679  0.66513641  0.41588126  1
  O  O78  1  0.10334851  0.02833127  0.30893147  1
  O  O79  1  0.60196152  0.03970876  0.30580764  1
  O  O80  1  0.40790031  0.80094445  0.30498694  1
  O  O81  1  0.92303206  0.81200903  0.30392894  1
  O  O82  1  0.48332868  0.17016984  0.30881706  1
  O  O83  1  0.99139165  0.18214011  0.30384095  1
  O  O84  1  0.09857581  0.16315800  0.80618289  1
  O  O85  1  0.60344083  0.17291087  0.80911361  1
  O  O86  1  0.48424426  0.79411007  0.80616126  1
  O  O87  1  0.98311706  0.79563497  0.80925070  1
  O  O88  1  0.42136685  0.03278764  0.80553014  1
  O  O89  1  0.90921127  0.01745360  0.80429499  1
  O  O90  1  0.39933095  0.96079214  0.68814646  1
  O  O91  1  0.89522278  0.97193194  0.69609725  1
  O  O92  1  0.08084850  0.19553798  0.69234430  1
  O  O93  1  0.58333363  0.22393327  0.69409234  1
  O  O94  1  0.01094143  0.82897430  0.69333294  1
  O  O95  1  0.52048359  0.84500048  0.68977605  1
  O  O96  1  0.39280180  0.81771555  0.19668972  1
  O  O97  1  0.90116290  0.83919535  0.18751086  1
  O  O98  1  0.01516073  0.20656594  0.19543619  1
  O  O99  1  0.51120039  0.19282187  0.19301571  1
  O  O100  1  0.08211547  0.93763983  0.19456929  1
  O  O101  1  0.58314188  0.97076881  0.19208606  1
  O  O102  1  0.43444414  0.36687830  0.64668055  1
  O  O103  1  0.93431693  0.37065279  0.64687980  1
  O  O104  1  0.25781022  0.13064288  0.64086188  1
  O  O105  1  0.75599881  0.14670020  0.64642002  1
  O  O106  1  0.31860780  0.51012084  0.63751273  1
  O  O107  1  0.81497436  0.50481507  0.64225255  1
  O  O108  1  0.43414055  0.49757766  0.14715558  1
  O  O109  1  0.93125510  0.49389602  0.14859856  1
  O  O110  1  0.31356456  0.12154594  0.14276586  1
  O  O111  1  0.82070333  0.13349234  0.13941246  1
  O  O112  1  0.25499363  0.36264485  0.14756026  1
  O  O113  1  0.75169093  0.39214768  0.13974078  1
  O  O114  1  0.22876761  0.29151476  0.02982454  1
  O  O115  1  0.73412975  0.30259074  0.02343944  1
  O  O116  1  0.41622788  0.52842495  0.02769625  1
  O  O117  1  0.91031612  0.52189082  0.02907452  1
  O  O118  1  0.34782969  0.16693153  0.02302012  1
  O  O119  1  0.84494365  0.15404525  0.02985695  1
  O  O120  1  0.23399664  0.16574245  0.52345228  1
  O  O121  1  0.73067217  0.16423782  0.52890504  1
  O  O122  1  0.34147710  0.53326668  0.52801555  1
  O  O123  1  0.84839109  0.52944379  0.52221924  1
  O  O124  1  0.41229866  0.29860461  0.52844266  1
  O  O125  1  0.91770216  0.30665064  0.52703479  1
  O  O126  1  0.26356111  0.69005252  0.97486039  1
  O  O127  1  0.76206115  0.69889582  0.97936685  1
  O  O128  1  0.08497557  0.47551245  0.97303434  1
  O  O129  1  0.57516910  0.45827041  0.97119439  1
  O  O130  1  0.15519692  0.84878619  0.97123966  1
  O  O131  1  0.64595127  0.82053540  0.97750075  1
  O  O132  1  0.26314548  0.82541611  0.47941328  1
  O  O133  1  0.76528153  0.83662644  0.47421222  1
  O  O134  1  0.14580327  0.47618136  0.47604443  1
  O  O135  1  0.65544214  0.46130250  0.47011957  1
  O  O136  1  0.07558509  0.69266113  0.46961337  1
  O  O137  1  0.58648138  0.69658768  0.47210591  1
  O  O138  1  0.06159068  0.64232334  0.35913532  1
  O  O139  1  0.56856268  0.63347591  0.35114704  1
  O  O140  1  0.25090982  0.87498154  0.35827783  1
  O  O141  1  0.74620072  0.85951813  0.35434765  1
  O  O142  1  0.17864755  0.51128250  0.35438813  1
  O  O143  1  0.68075179  0.48561479  0.35999831  1
  O  O144  1  0.06901856  0.50394060  0.85188210  1
  O  O145  1  0.55892981  0.48084070  0.86081046  1
  O  O146  1  0.18049075  0.87685892  0.86119966  1
  O  O147  1  0.68005728  0.85367252  0.85585152  1
  O  O148  1  0.24586260  0.63303781  0.85567533  1
  O  O149  1  0.74362580  0.63512157  0.85712298  1
  O  O150  1  0.01363727  0.82665585  0.41108577  1
  O  O151  1  0.51710138  0.84221726  0.40585645  1
  O  O152  1  0.40600159  0.96751582  0.41139697  1
  O  O153  1  0.90527740  0.97388459  0.40548852  1
  O  O154  1  0.08164721  0.19805153  0.40764628  1
  O  O155  1  0.58818189  0.20371132  0.41227186  1
  O  O156  1  0.01656630  0.19004178  0.90753286  1
  O  O157  1  0.51283692  0.20145624  0.91297622  1
  O  O158  1  0.08713133  0.97145394  0.91313901  1
  O  O159  1  0.58134605  0.97043596  0.91115130  1
  O  O160  1  0.40527062  0.84239074  0.90987922  1
  O  O161  1  0.90282402  0.84264195  0.91038753  1
  O  O162  1  0.48068311  0.14606309  0.59226801  1
  O  O163  1  0.98745583  0.16607500  0.59158596  1
  O  O164  1  0.09675682  0.02270763  0.58897750  1
  O  O165  1  0.58898084  0.03413964  0.59485069  1
  O  O166  1  0.41006722  0.79449318  0.58477872  1
  O  O167  1  0.91874959  0.81584784  0.58853220  1
  O  O168  1  0.48713070  0.80827249  0.09292339  1
  O  O169  1  0.97939189  0.80594156  0.09053887  1
  O  O170  1  0.41736928  0.01998391  0.08967079  1
  O  O171  1  0.91351477  0.03124136  0.08872173  1
  O  O172  1  0.08616537  0.14683675  0.09933561  1
  O  O173  1  0.59454097  0.16938541  0.08731997  1
  O  O174  1  0.34953699  0.17184955  0.74574119  1
  O  O175  1  0.84788901  0.15544786  0.74847729  1
  O  O176  1  0.24542066  0.30693309  0.73902209  1
  O  O177  1  0.74619442  0.30839121  0.74310325  1
  O  O178  1  0.41429938  0.51109763  0.74045394  1
  O  O179  1  0.91331069  0.50323230  0.74404370  1
  O  O180  1  0.34554057  0.53912998  0.24954965  1
  O  O181  1  0.85095645  0.52475453  0.24405347  1
  O  O182  1  0.41330168  0.32311022  0.24388510  1
  O  O183  1  0.92124079  0.30461386  0.24757862  1
  O  O184  1  0.24636082  0.17758688  0.24327766  1
  O  O185  1  0.74959809  0.18498274  0.23781370  1
  O  O186  1  0.31900604  0.49126680  0.92138957  1
  O  O187  1  0.81643782  0.49880993  0.92116273  1
  O  O188  1  0.43239737  0.35972367  0.92269898  1
  O  O189  1  0.93051218  0.36376741  0.92284690  1
  O  O190  1  0.24628025  0.13391291  0.92124224  1
  O  O191  1  0.75429300  0.13410811  0.92363680  1
  O  O192  1  0.31961345  0.14114268  0.42266814  1
  O  O193  1  0.81904716  0.14877076  0.42017526  1
  O  O194  1  0.25419245  0.37607251  0.42229575  1
  O  O195  1  0.74702942  0.36045383  0.42002648  1
  O  O196  1  0.43000183  0.49902009  0.42222274  1
  O  O197  1  0.93304363  0.50878765  0.41949395  1
  O  O198  1  0.17755059  0.49265052  0.08274160  1
  O  O199  1  0.68168141  0.52086338  0.07319693  1
  O  O200  1  0.07154122  0.63994151  0.07886462  1
  O  O201  1  0.57688628  0.63587703  0.07706663  1
  O  O202  1  0.24519400  0.85235080  0.07533159  1
  O  O203  1  0.75427320  0.86919099  0.08213375  1
  O  O204  1  0.18512852  0.84840171  0.57524346  1
  O  O205  1  0.67830693  0.86191340  0.58279663  1
  O  O206  1  0.25049856  0.63589444  0.58003883  1
  O  O207  1  0.74634819  0.63789725  0.57438830  1
  O  O208  1  0.07738889  0.51949393  0.57725394  1
  O  O209  1  0.57242455  0.49897923  0.57591937  1
  O  O210  1  0.15345020  0.81034463  0.25997981  1
  O  O211  1  0.65412256  0.82966358  0.25218737  1
  O  O212  1  0.26310996  0.69614303  0.25595360  1
  O  O213  1  0.75669636  0.68917996  0.25679895  1
  O  O214  1  0.07999138  0.47050344  0.25392671  1
  O  O215  1  0.58846840  0.49009637  0.25588715  1
  O  O216  1  0.15203731  0.47636671  0.75240095  1
  O  O217  1  0.65676272  0.49227903  0.75954271  1
  O  O218  1  0.08840057  0.68722047  0.75643638  1
  O  O219  1  0.58755643  0.68265166  0.75685603  1
  O  O220  1  0.25610094  0.82008407  0.75738175  1
  O  O221  1  0.76535505  0.83430018  0.75475458  1
