# generated using pymatgen
data_Ti(ClO4)4
_symmetry_space_group_name_H-M   'P 1'
_cell_length_a   7.36965456
_cell_length_b   7.36959662
_cell_length_c   12.98710817
_cell_angle_alpha   73.70079455
_cell_angle_beta   73.70119850
_cell_angle_gamma   64.01522777
_symmetry_Int_Tables_number   1
_chemical_formula_structural   Ti(ClO4)4
_chemical_formula_sum   'Ti2 Cl8 O32'
_cell_volume   598.31195573
_cell_formula_units_Z   2
loop_
 _symmetry_equiv_pos_site_id
 _symmetry_equiv_pos_as_xyz
  1  'x, y, z'
loop_
 _atom_site_type_symbol
 _atom_site_label
 _atom_site_symmetry_multiplicity
 _atom_site_fract_x
 _atom_site_fract_y
 _atom_site_fract_z
 _atom_site_occupancy
  Ti  Ti0  1  0.03569743  0.96430460  0.74999801  1
  Ti  Ti1  1  0.96431765  0.03567986  0.25000062  1
  Cl  Cl2  1  0.33084085  0.78550567  0.58484505  1
  Cl  Cl3  1  0.21449602  0.66916125  0.91515324  1
  Cl  Cl4  1  0.66915837  0.21450559  0.41514725  1
  Cl  Cl5  1  0.78549772  0.33083785  0.08484978  1
  Cl  Cl6  1  0.99187652  0.36142540  0.66008164  1
  Cl  Cl7  1  0.63857675  0.00812778  0.83991811  1
  Cl  Cl8  1  0.00811794  0.63857434  0.33992445  1
  Cl  Cl9  1  0.36142650  0.99187224  0.16008041  1
  O  O10  1  0.33415673  0.89332015  0.66841856  1
  O  O11  1  0.10667838  0.66584486  0.83158293  1
  O  O12  1  0.66584069  0.10668376  0.33157837  1
  O  O13  1  0.89331904  0.33415688  0.16841245  1
  O  O14  1  0.45961841  0.57699722  0.60405819  1
  O  O15  1  0.42299556  0.54037505  0.89594912  1
  O  O16  1  0.54037573  0.42301049  0.39593628  1
  O  O17  1  0.57699898  0.45962576  0.10405528  1
  O  O18  1  0.10883638  0.81473956  0.61777074  1
  O  O19  1  0.18526617  0.89116765  0.88222745  1
  O  O20  1  0.21574144  0.92689481  0.13041933  1
  O  O21  1  0.07309869  0.78425294  0.36958265  1
  O  O22  1  0.78427512  0.07309403  0.86957425  1
  O  O23  1  0.92690702  0.21573287  0.63042502  1
  O  O24  1  0.53735412  0.82115078  0.18649285  1
  O  O25  1  0.17883651  0.46263648  0.31352013  1
  O  O26  1  0.46264357  0.17884267  0.81350839  1
  O  O27  1  0.82115785  0.53736391  0.68649106  1
  O  O28  1  0.22409622  0.07562416  0.25989648  1
  O  O29  1  0.92437695  0.77589466  0.24010574  1
  O  O30  1  0.77591972  0.92437264  0.74010527  1
  O  O31  1  0.07563435  0.22408199  0.75989210  1
  O  O32  1  0.39920876  0.14864594  0.07804605  1
  O  O33  1  0.85134039  0.60079856  0.42195668  1
  O  O34  1  0.60079614  0.85134514  0.92195602  1
  O  O35  1  0.14865295  0.39921315  0.57804370  1
  O  O36  1  0.89190238  0.37088213  0.97892753  1
  O  O37  1  0.62911541  0.10810602  0.52106835  1
  O  O38  1  0.10808072  0.62911564  0.02107916  1
  O  O39  1  0.37087822  0.89192505  0.47892256  1
  O  O40  1  0.81472988  0.10883755  0.11777243  1
  O  O41  1  0.89116277  0.18526992  0.38222334  1
