# generated using pymatgen
data_MgSbS2NCl6
_symmetry_space_group_name_H-M   'P 1'
_cell_length_a   8.04670342
_cell_length_b   7.76073917
_cell_length_c   7.76073886
_cell_angle_alpha   68.77468600
_cell_angle_beta   58.70267492
_cell_angle_gamma   58.70267742
_symmetry_Int_Tables_number   1
_chemical_formula_structural   MgSbS2NCl6
_chemical_formula_sum   'Mg1 Sb1 S2 N1 Cl6'
_cell_volume   351.02843086
_cell_formula_units_Z   1
loop_
 _symmetry_equiv_pos_site_id
 _symmetry_equiv_pos_as_xyz
  1  'x, y, z'
loop_
 _atom_site_type_symbol
 _atom_site_label
 _atom_site_symmetry_multiplicity
 _atom_site_fract_x
 _atom_site_fract_y
 _atom_site_fract_z
 _atom_site_occupancy
  Mg  Mg0  1  0.14222700  0.34161400  0.34161400  1
  Sb  Sb1  1  0.99825600  0.98751000  0.98751000  1
  S  S2  1  0.45814700  0.67448700  0.33336100  1
  S  S3  1  0.45814700  0.33336100  0.67448700  1
  N  N4  1  0.45937700  0.50413500  0.50413500  1
  Cl  Cl5  1  0.94507400  0.82070800  0.82070800  1
  Cl  Cl6  1  0.98608700  0.70382000  0.31529800  1
  Cl  Cl7  1  0.51170700  0.20234500  0.20234500  1
  Cl  Cl8  1  0.98608700  0.31529800  0.70382000  1
  Cl  Cl9  1  0.02909200  0.21499200  0.21499200  1
  Cl  Cl10  1  0.38691000  0.82137300  0.82137300  1
