# generated using pymatgen
data_NaIn2Ge2P3(SO8)3
_symmetry_space_group_name_H-M   'P 1'
_cell_length_a   8.63275095
_cell_length_b   8.63193352
_cell_length_c   22.47458073
_cell_angle_alpha   90.25266163
_cell_angle_beta   90.18739438
_cell_angle_gamma   120.18524887
_symmetry_Int_Tables_number   1
_chemical_formula_structural   NaIn2Ge2P3(SO8)3
_chemical_formula_sum   'Na3 In6 Ge6 P9 S9 O72'
_cell_volume   1447.61418575
_cell_formula_units_Z   3
loop_
 _symmetry_equiv_pos_site_id
 _symmetry_equiv_pos_as_xyz
  1  'x, y, z'
loop_
 _atom_site_type_symbol
 _atom_site_label
 _atom_site_symmetry_multiplicity
 _atom_site_fract_x
 _atom_site_fract_y
 _atom_site_fract_z
 _atom_site_occupancy
  Na  Na0  1  0.67968438  0.33507002  0.83441585  1
  Na  Na1  1  0.66272803  0.34116214  0.33224564  1
  Na  Na2  1  0.34476011  0.67421169  0.16668569  1
  In  In3  1  0.67418467  0.33571729  0.68608037  1
  In  In4  1  0.65482805  0.32880602  0.18450975  1
  In  In5  1  0.66556637  0.32445254  0.98720594  1
  In  In6  1  0.66506607  0.33720152  0.48343765  1
  In  In7  1  0.33637094  0.66904927  0.31028383  1
  In  In8  1  0.32925940  0.66857076  0.80831811  1
  Ge  Ge9  1  0.01412641  0.99260781  0.35497389  1
  Ge  Ge10  1  0.99208595  0.00265411  0.85497708  1
  Ge  Ge11  1  0.99258998  0.99187577  0.65080100  1
  Ge  Ge12  1  0.99844481  0.00006044  0.14658083  1
  Ge  Ge13  1  0.33309407  0.65358432  0.01916198  1
  Ge  Ge14  1  0.32194097  0.65758395  0.51112303  1
  P  P15  1  0.27886364  0.00010800  0.24907389  1
  P  P16  1  0.72707721  0.72396898  0.25015245  1
  P  P17  1  0.99636322  0.72465001  0.75151589  1
  P  P18  1  0.72140156  0.00111444  0.75063476  1
  P  P19  1  0.66730324  0.02519060  0.08364623  1
  P  P20  1  0.35838069  0.32889826  0.08342678  1
  P  P21  1  0.04490141  0.37180897  0.91539289  1
  P  P22  1  0.32271914  0.36812643  0.41466800  1
  P  P23  1  0.04428371  0.67174652  0.41546715  1
  S  S24  1  0.99676521  0.27711559  0.25027750  1
  S  S25  1  0.27993257  0.27660669  0.74988873  1
  S  S26  1  0.97562139  0.33257916  0.58331515  1
  S  S27  1  0.35871686  0.02449574  0.58372425  1
  S  S28  1  0.66334953  0.64084743  0.58374812  1
  S  S29  1  0.97189526  0.63868717  0.08365705  1
  S  S30  1  0.62983327  0.67197548  0.91598747  1
  S  S31  1  0.32368144  0.95620861  0.91629191  1
  S  S32  1  0.63176790  0.95582324  0.41736582  1
  O  O33  1  0.19910812  0.03079203  0.30753479  1
  O  O34  1  0.83516808  0.81291721  0.30916594  1
  O  O35  1  0.97437678  0.17284797  0.30519094  1
  O  O36  1  0.20093549  0.16820292  0.80438128  1
  O  O37  1  0.96977589  0.81327376  0.80841937  1
  O  O38  1  0.84034459  0.03848093  0.80740010  1
  O  O39  1  0.80729847  0.97813424  0.69244362  1
  O  O40  1  0.17242170  0.19603553  0.69383520  1
  O  O41  1  0.02541014  0.83443825  0.69299782  1
  O  O42  1  0.81236589  0.83558898  0.19335172  1
  O  O43  1  0.02059839  0.19633453  0.19485556  1
  O  O44  1  0.16661398  0.97906282  0.19262784  1
  O  O45  1  0.90233255  0.37490389  0.63625040  1
  O  O46  1  0.47470375  0.10291267  0.63698955  1
  O  O47  1  0.62503012  0.52583886  0.63654368  1
  O  O48  1  0.89840840  0.52299309  0.13612929  1
  O  O49  1  0.62143277  0.09931951  0.13863380  1
  O  O50  1  0.48082771  0.38369758  0.13808401  1
  O  O51  1  0.43519768  0.29318197  0.02747435  1
  O  O52  1  0.86179424  0.56531654  0.02964304  1
  O  O53  1  0.71111921  0.13975812  0.02816425  1
  O  O54  1  0.43455433  0.14040230  0.53123733  1
  O  O55  1  0.70669706  0.56714416  0.53140316  1
  O  O56  1  0.85784428  0.29021997  0.53091639  1
  O  O57  1  0.54845352  0.70472735  0.97026983  1
  O  O58  1  0.16660295  0.46235730  0.97233928  1
  O  O59  1  0.29697435  0.84528614  0.97033582  1
  O  O60  1  0.54509016  0.83934120  0.47215255  1
  O  O61  1  0.29128874  0.45558946  0.47303227  1
  O  O62  1  0.16537477  0.70840315  0.47355505  1
  O  O63  1  0.12245559  0.63624498  0.36088746  1
  O  O64  1  0.52075417  0.88510944  0.36403968  1
  O  O65  1  0.36550859  0.48602643  0.36085550  1
  O  O66  1  0.12351122  0.48334686  0.85995507  1
  O  O67  1  0.36184862  0.88357472  0.86276397  1
  O  O68  1  0.52111047  0.63904506  0.86222623  1
  O  O69  1  0.02967113  0.84317283  0.41029522  1
  O  O70  1  0.80748174  0.96920969  0.41156779  1
  O  O71  1  0.14704346  0.18447327  0.40727873  1
  O  O72  1  0.03435258  0.18479286  0.90845475  1
  O  O73  1  0.15690097  0.96717966  0.90922603  1
  O  O74  1  0.80938231  0.83906082  0.91061977  1
  O  O75  1  0.99641235  0.17277352  0.59358174  1
  O  O76  1  0.17847081  0.00732026  0.59311663  1
  O  O77  1  0.82770771  0.82218144  0.59281228  1
  O  O78  1  0.99252328  0.81755891  0.09268196  1
  O  O79  1  0.83033104  0.00041379  0.09492682  1
  O  O80  1  0.17240903  0.16386515  0.09521477  1
  O  O81  1  0.70520419  0.17016429  0.74693897  1
  O  O82  1  0.45677555  0.28997097  0.74529050  1
  O  O83  1  0.82231638  0.54165178  0.74785641  1
  O  O84  1  0.71613987  0.54103922  0.24757624  1
  O  O85  1  0.83567708  0.29475743  0.24663125  1
  O  O86  1  0.46518472  0.16821846  0.24853490  1
  O  O87  1  0.65317367  0.51539764  0.92320185  1
  O  O88  1  0.85764433  0.34762338  0.92297075  1
  O  O89  1  0.48006654  0.13952645  0.92177761  1
  O  O90  1  0.65163399  0.13450078  0.42595355  1
  O  O91  1  0.48250647  0.33989444  0.42390844  1
  O  O92  1  0.85884777  0.50693285  0.42394642  1
  O  O93  1  0.33639445  0.49875629  0.07416986  1
  O  O94  1  0.15426433  0.65908174  0.07456041  1
  O  O95  1  0.49273321  0.83564337  0.07159322  1
  O  O96  1  0.34271765  0.84558112  0.57357102  1
  O  O97  1  0.50379770  0.66052701  0.57279708  1
  O  O98  1  0.15533370  0.49632972  0.57340941  1
  O  O99  1  0.28956916  0.82827850  0.25021282  1
  O  O100  1  0.54141435  0.70723944  0.25148919  1
  O  O101  1  0.16017505  0.45554815  0.25129576  1
  O  O102  1  0.29626395  0.45230422  0.75277248  1
  O  O103  1  0.16211956  0.70866738  0.75347730  1
  O  O104  1  0.54310666  0.83028728  0.75450026  1
