# generated using pymatgen
data_Na6Ca4Hf4Si3(S3O16)3
_symmetry_space_group_name_H-M   'P 1'
_cell_length_a   18.24131189
_cell_length_b   9.07786623
_cell_length_c   23.48795725
_cell_angle_alpha   89.93062763
_cell_angle_beta   90.03534370
_cell_angle_gamma   119.88957720
_symmetry_Int_Tables_number   1
_chemical_formula_structural   Na6Ca4Hf4Si3(S3O16)3
_chemical_formula_sum   'Na18 Ca12 Hf12 Si9 S27 O144'
_cell_volume   3372.07768341
_cell_formula_units_Z   3
loop_
 _symmetry_equiv_pos_site_id
 _symmetry_equiv_pos_as_xyz
  1  'x, y, z'
loop_
 _atom_site_type_symbol
 _atom_site_label
 _atom_site_symmetry_multiplicity
 _atom_site_fract_x
 _atom_site_fract_y
 _atom_site_fract_z
 _atom_site_occupancy
  Na  Na0  1  0.99765247  0.62963265  0.25075455  1
  Na  Na1  1  0.49915613  0.61644529  0.24028916  1
  Na  Na2  1  0.00247910  0.37491917  0.73975182  1
  Na  Na3  1  0.49741618  0.36811630  0.74957487  1
  Na  Na4  1  0.67640708  0.33001249  0.91083430  1
  Na  Na5  1  0.17404660  0.02668631  0.41594709  1
  Na  Na6  1  0.99192929  0.01212951  0.50449306  1
  Na  Na7  1  0.50571278  0.01186075  0.49965621  1
  Na  Na8  1  0.00300519  0.99420944  0.99132809  1
  Na  Na9  1  0.49203056  0.97169887  0.99827687  1
  Na  Na10  1  0.30177381  0.29524942  0.83251409  1
  Na  Na11  1  0.83864214  0.36518249  0.83720460  1
  Na  Na12  1  0.33368596  0.30822006  0.34064812  1
  Na  Na13  1  0.81527786  0.32903662  0.34332633  1
  Na  Na14  1  0.17674252  0.64637412  0.16116551  1
  Na  Na15  1  0.66221003  0.66093375  0.16147319  1
  Na  Na16  1  0.16173262  0.64539346  0.67182284  1
  Na  Na17  1  0.67961565  0.71065627  0.66477849  1
  Ca  Ca18  1  0.99439955  0.00139469  0.35505883  1
  Ca  Ca19  1  0.49417031  0.98619010  0.85368817  1
  Ca  Ca20  1  0.31730364  0.32627262  0.68552942  1
  Ca  Ca21  1  0.83274595  0.32249223  0.67756661  1
  Ca  Ca22  1  0.33114712  0.34039150  0.17721920  1
  Ca  Ca23  1  0.82668467  0.32275827  0.18082247  1
  Ca  Ca24  1  0.83909696  0.34134009  0.98515332  1
  Ca  Ca25  1  0.33843311  0.33678167  0.48703767  1
  Ca  Ca26  1  0.17170073  0.66892477  0.31487413  1
  Ca  Ca27  1  0.67561420  0.66101004  0.31664529  1
  Ca  Ca28  1  0.17398102  0.68225914  0.81355174  1
  Ca  Ca29  1  0.67288312  0.67614580  0.81434583  1
  Hf  Hf30  1  0.50159042  0.01487342  0.36162160  1
  Hf  Hf31  1  0.00770246  0.99715827  0.85772448  1
  Hf  Hf32  1  0.00359039  0.01669284  0.64740487  1
  Hf  Hf33  1  0.50645025  0.99785134  0.64541761  1
  Hf  Hf34  1  0.00701771  0.01542755  0.14444837  1
  Hf  Hf35  1  0.49667590  0.99081601  0.14300406  1
  Hf  Hf36  1  0.32635795  0.33493745  0.98823262  1
  Hf  Hf37  1  0.82591074  0.31888845  0.48992170  1
  Hf  Hf38  1  0.16276661  0.66402303  0.01411931  1
  Hf  Hf39  1  0.67048250  0.67417440  0.01524933  1
  Hf  Hf40  1  0.17021610  0.66679896  0.51745175  1
  Hf  Hf41  1  0.66355462  0.65845117  0.51614454  1
  Si  Si42  1  0.14429506  0.29378626  0.75250882  1
  Si  Si43  1  0.98515282  0.33705362  0.58436586  1
  Si  Si44  1  0.68220748  0.02282468  0.58509093  1
  Si  Si45  1  0.48629709  0.62812517  0.08577036  1
  Si  Si46  1  0.18346659  0.34415366  0.08536002  1
  Si  Si47  1  0.81590305  0.66711537  0.91526539  1
  Si  Si48  1  0.17302362  0.97047417  0.91715563  1
  Si  Si49  1  0.31286873  0.96530627  0.41538504  1
  Si  Si50  1  0.67366592  0.37412550  0.41670897  1
  S  S51  1  0.14449655  -0.00125930  0.24967615  1
  S  S52  1  0.63839224  -0.00206991  0.24991937  1
  S  S53  1  0.36101067  0.71954881  0.25097539  1
  S  S54  1  0.85606328  0.71105159  0.24585443  1
  S  S55  1  0.99927141  0.29577265  0.24698846  1
  S  S56  1  0.49903443  0.28290647  0.25046169  1
  S  S57  1  0.64484316  0.29087861  0.74991007  1
  S  S58  1  0.99675860  0.71269893  0.74977803  1
  S  S59  1  0.50095740  0.70358326  0.74698099  1
  S  S60  1  0.35792922  0.00295572  0.74562703  1
  S  S61  1  0.85935493  0.00105426  0.75062635  1
  S  S62  1  0.48813641  0.33556464  0.58702628  1
  S  S63  1  0.17748894  0.02212173  0.58092499  1
  S  S64  1  0.33396704  0.64425542  0.58354378  1
  S  S65  1  0.83188100  0.63218562  0.58111253  1
  S  S66  1  0.98870076  0.64121822  0.08731288  1
  S  S67  1  0.33182452  0.03120852  0.08206237  1
  S  S68  1  0.83270372  0.02220368  0.08463975  1
  S  S69  1  0.67814523  0.33344308  0.08250691  1
  S  S70  1  0.31372205  0.66301338  0.92072075  1
  S  S71  1  0.02080939  0.36937427  0.91443670  1
  S  S72  1  0.51734201  0.37445521  0.91876752  1
  S  S73  1  0.66553163  0.96469331  0.91856841  1
  S  S74  1  0.81245807  0.96503518  0.42051901  1
  S  S75  1  0.16636026  0.36846630  0.41853504  1
  S  S76  1  0.01744366  0.65947093  0.41799575  1
  S  S77  1  0.52135994  0.67138874  0.41310468  1
  O  O78  1  0.10492328  0.00921148  0.30317723  1
  O  O79  1  0.59457818  0.00799081  0.30103400  1
  O  O80  1  0.41214294  0.81682425  0.30097768  1
  O  O81  1  0.90277399  0.78803951  0.29826549  1
  O  O82  1  0.49857971  0.18757510  0.30203740  1
  O  O83  1  0.99298620  0.20251947  0.29891248  1
  O  O84  1  0.08760923  0.17589057  0.80689777  1
  O  O85  1  0.60547707  0.20142673  0.80349355  1
  O  O86  1  0.49446352  0.78430493  0.79882700  1
  O  O87  1  0.99352987  0.80148841  0.80204872  1
  O  O88  1  0.40471115  0.01799171  0.79812390  1
  O  O89  1  0.90660597  0.00055018  0.80135057  1
  O  O90  1  0.40829417  0.99384503  0.69555161  1
  O  O91  1  0.90295722  0.99111317  0.69732695  1
  O  O92  1  0.08761798  0.18294211  0.69395965  1
  O  O93  1  0.58970221  0.18322150  0.70038597  1
  O  O94  1  -0.00303386  0.80920520  0.69819356  1
  O  O95  1  0.50403335  0.80983099  0.69576154  1
  O  O96  1  0.40651895  0.81866791  0.19763764  1
  O  O97  1  0.90621017  0.81649047  0.19559899  1
  O  O98  1  0.00185727  0.19693675  0.19600041  1
  O  O99  1  0.50156816  0.18942204  0.19891642  1
  O  O100  1  0.08942798  0.99591873  0.20030710  1
  O  O101  1  0.58868963  0.99257201  0.19755657  1
  O  O102  1  0.45316671  0.36614570  0.63896734  1
  O  O103  1  0.95848648  0.37662092  0.64532518  1
  O  O104  1  0.23217058  0.09821279  0.63026050  1
  O  O105  1  0.73366732  0.08756907  0.64272764  1
  O  O106  1  0.32017636  0.54009224  0.63404494  1
  O  O107  1  0.81326144  0.53366161  0.63327488  1
  O  O108  1  0.46014181  0.54060085  0.14751879  1
  O  O109  1  0.95315686  0.54044018  0.13992167  1
  O  O110  1  0.31519855  0.09351793  0.13459234  1
  O  O111  1  0.81765335  0.09691414  0.13555558  1
  O  O112  1  0.23418337  0.38042117  0.14358923  1
  O  O113  1  0.73160903  0.36401961  0.13256341  1
  O  O114  1  0.23144141  0.30772240  0.03185661  1
  O  O115  1  0.71025549  0.29374223  0.03105220  1
  O  O116  1  0.41901311  0.52426246  0.03551699  1
  O  O117  1  0.93417753  0.56654448  0.03787359  1
  O  O118  1  0.34806234  0.14432968  0.03291140  1
  O  O119  1  0.85005518  0.12695194  0.03390442  1
  O  O120  1  0.21026242  0.12518040  0.52872674  1
  O  O121  1  0.72921756  0.15475561  0.53074354  1
  O  O122  1  0.35176859  0.57701908  0.53200330  1
  O  O123  1  0.84366698  0.54379288  0.53141955  1
  O  O124  1  0.43522128  0.30241287  0.53667921  1
  O  O125  1  0.91773960  0.31137305  0.53331017  1
  O  O126  1  0.26301527  0.67238831  0.97008413  1
  O  O127  1  0.76520400  0.68772151  0.97266750  1
  O  O128  1  0.07532485  0.46242587  0.96598205  1
  O  O129  1  0.57850128  0.47812383  0.96538650  1
  O  O130  1  0.15828449  0.84405884  0.97301582  1
  O  O131  1  0.65942982  0.85680333  0.96966555  1
  O  O132  1  0.26450899  0.84247153  0.47168025  1
  O  O133  1  0.76209093  0.85282261  0.46858979  1
  O  O134  1  0.16084866  0.46364084  0.46861017  1
  O  O135  1  0.65673529  0.47110787  0.47063017  1
  O  O136  1  0.07803933  0.67800436  0.46389456  1
  O  O137  1  0.57579117  0.69085066  0.46347665  1
  O  O138  1  0.04747034  0.63388840  0.36244661  1
  O  O139  1  0.55830603  0.65170911  0.35986705  1
  O  O140  1  0.25370111  0.88462716  0.36043745  1
  O  O141  1  0.76876493  0.90125641  0.36614646  1
  O  O142  1  0.17001907  0.45538200  0.36547638  1
  O  O143  1  0.68903349  0.47326343  0.35775704  1
  O  O144  1  0.05854520  0.46574831  0.86234472  1
  O  O145  1  0.54768414  0.46155007  0.86384821  1
  O  O146  1  0.18963838  0.89917065  0.86005256  1
  O  O147  1  0.66894196  0.88300226  0.86630176  1
  O  O148  1  0.26993963  0.63981819  0.86699606  1
  O  O149  1  0.75074667  0.61856777  0.86286787  1
  O  O150  1  0.01689895  0.82228699  0.41824499  1
  O  O151  1  0.51664247  0.83281202  0.41012383  1
  O  O152  1  0.40745255  0.97803440  0.40883312  1
  O  O153  1  0.89607091  0.97645825  0.42172200  1
  O  O154  1  0.09013737  0.19517425  0.42036238  1
  O  O155  1  0.58616165  0.18248573  0.41177092  1
  O  O156  1  0.01592825  0.19992041  0.91406331  1
  O  O157  1  0.51714191  0.21095945  0.91952204  1
  O  O158  1  0.08641949  0.98694163  0.91330049  1
  O  O159  1  0.58914129  0.98438875  0.92103273  1
  O  O160  1  0.39744611  0.81827455  0.92293738  1
  O  O161  1  0.90739661  0.84194373  0.90896883  1
  O  O162  1  0.49973559  0.18165579  0.59467600  1
  O  O163  1  0.99158738  0.15916342  0.58776439  1
  O  O164  1  0.08972750  -0.00586216  0.59128592  1
  O  O165  1  0.58552957  0.00463629  0.58982637  1
  O  O166  1  0.40898532  0.82230781  0.59305883  1
  O  O167  1  0.90976764  0.80239683  0.58570019  1
  O  O168  1  0.49408087  0.82344355  0.09035632  1
  O  O169  1  0.99939119  0.81684852  0.09551299  1
  O  O170  1  0.41101289  0.01505280  0.08878281  1
  O  O171  1  0.90779239  -0.00327280  0.09457922  1
  O  O172  1  0.08698559  0.16889955  0.09082085  1
  O  O173  1  0.59062272  0.18413093  0.09399590  1
  O  O174  1  0.35507973  0.16245619  0.74024603  1
  O  O175  1  0.85771246  0.16151120  0.75030535  1
  O  O176  1  0.23504929  0.30615317  0.75337935  1
  O  O177  1  0.72973869  0.31722673  0.74446540  1
  O  O178  1  0.42726302  0.53222063  0.74169608  1
  O  O179  1  0.92133989  0.54163147  0.75026132  1
  O  O180  1  0.35864343  0.55597320  0.25044018  1
  O  O181  1  0.85020053  0.54178700  0.24142118  1
  O  O182  1  0.42196987  0.29713946  0.25122969  1
  O  O183  1  0.92418593  0.31745598  0.24259288  1
  O  O184  1  0.22962565  0.14283999  0.24445725  1
  O  O185  1  0.72347226  0.14800842  0.24731333  1
  O  O186  1  0.32513469  0.51147174  0.92992641  1
  O  O187  1  0.82476905  0.49901623  0.92368386  1
  O  O188  1  0.43348976  0.35081665  0.93114086  1
  O  O189  1  0.93555042  0.34499521  0.92282827  1
  O  O190  1  0.25533679  0.15963875  0.93092052  1
  O  O191  1  0.74106406  0.13388111  0.92417100  1
  O  O192  1  0.32413615  0.15261977  0.42291716  1
  O  O193  1  0.82399962  0.13862675  0.42876390  1
  O  O194  1  0.24186478  0.34909340  0.42333554  1
  O  O195  1  0.75530186  0.34749199  0.42876411  1
  O  O196  1  0.43566883  0.52732824  0.42098735  1
  O  O197  1  0.93289090  0.51529092  0.42886810  1
  O  O198  1  0.16591710  0.50215287  0.07103492  1
  O  O199  1  0.66687302  0.48460816  0.07462017  1
  O  O200  1  0.07477280  0.66461702  0.07794907  1
  O  O201  1  0.58190213  0.66563660  0.06983537  1
  O  O202  1  0.26047967  0.85519291  0.07088597  1
  O  O203  1  0.75715922  0.84895688  0.07722637  1
  O  O204  1  0.16664802  0.84774709  0.57245794  1
  O  O205  1  0.66519810  0.83123700  0.56888053  1
  O  O206  1  0.25791949  0.66509256  0.57593188  1
  O  O207  1  0.75862567  0.66108643  0.56936076  1
  O  O208  1  0.07958622  0.49287296  0.56639412  1
  O  O209  1  0.57492393  0.48451964  0.57687127  1
  O  O210  1  0.14161130  0.83302860  0.24559402  1
  O  O211  1  0.64116011  0.83831981  0.24927761  1
  O  O212  1  0.27744017  0.70304835  0.24953579  1
  O  O213  1  0.77280977  0.69754342  0.24364440  1
  O  O214  1  0.07545793  0.46412103  0.24489060  1
  O  O215  1  0.57427411  0.45417842  0.24968480  1
  O  O216  1  0.14352015  0.47006691  0.74897616  1
  O  O217  1  0.64136542  0.45027091  0.74573973  1
  O  O218  1  0.07387206  0.69923296  0.74906874  1
  O  O219  1  0.57858371  0.69155516  0.74499117  1
  O  O220  1  0.27438187  0.85213640  0.74333514  1
  O  O221  1  0.77390656  0.85267663  0.74862547  1
