# generated using pymatgen
data_ScMo3O8
_symmetry_space_group_name_H-M   'P 1'
_cell_length_a   6.06436595
_cell_length_b   6.13233588
_cell_length_c   4.62406459
_cell_angle_alpha   90.48992537
_cell_angle_beta   89.83800342
_cell_angle_gamma   120.13057901
_symmetry_Int_Tables_number   1
_chemical_formula_structural   ScMo3O8
_chemical_formula_sum   'Sc1 Mo3 O8'
_cell_volume   148.72240791
_cell_formula_units_Z   1
loop_
 _symmetry_equiv_pos_site_id
 _symmetry_equiv_pos_as_xyz
  1  'x, y, z'
loop_
 _atom_site_type_symbol
 _atom_site_label
 _atom_site_symmetry_multiplicity
 _atom_site_fract_x
 _atom_site_fract_y
 _atom_site_fract_z
 _atom_site_occupancy
  Sc  Sc0  1  0.33270800  0.66617300  0.75327000  1
  Mo  Mo1  1  0.83329200  0.66737400  0.25279800  1
  Mo  Mo2  1  0.83362400  0.16695200  0.25318100  1
  Mo  Mo3  1  0.33405800  0.16675300  0.25373000  1
  O  O4  1  0.51678700  0.01171700  0.48478000  1
  O  O5  1  0.67536100  0.32654900  0.01736400  1
  O  O6  1  0.67078000  0.83555500  0.01944700  1
  O  O7  1  0.16829700  0.83780500  0.01853300  1
  O  O8  1  0.99531200  0.49809900  0.48644200  1
  O  O9  1  0.99255700  0.00782200  0.48935000  1
  O  O10  1  0.15055000  0.32120500  0.02227200  1
  O  O11  1  0.49875400  0.49607600  0.48794300  1
