# generated using pymatgen
data_Zr2Si(SO6)2
_symmetry_space_group_name_H-M   'P 1'
_cell_length_a   9.06537408
_cell_length_b   9.06449086
_cell_length_c   23.29860474
_cell_angle_alpha   90.00772011
_cell_angle_beta   90.00000000
_cell_angle_gamma   120.00322326
_symmetry_Int_Tables_number   1
_chemical_formula_structural   Zr2Si(SO6)2
_chemical_formula_sum   'Zr12 Si6 S12 O72'
_cell_volume   1657.96584080
_cell_formula_units_Z   6
loop_
 _symmetry_equiv_pos_site_id
 _symmetry_equiv_pos_as_xyz
  1  'x, y, z'
loop_
 _atom_site_type_symbol
 _atom_site_label
 _atom_site_symmetry_multiplicity
 _atom_site_fract_x
 _atom_site_fract_y
 _atom_site_fract_z
 _atom_site_occupancy
  Zr  Zr0  1  0.98936839  0.00920005  0.35595608  1
  Zr  Zr1  1  0.01983165  0.00920005  0.85595608  1
  Zr  Zr2  1  0.00774554  0.01931692  0.64418270  1
  Zr  Zr3  1  0.01157139  0.01931692  0.14418270  1
  Zr  Zr4  1  0.67127098  0.33702256  0.68920291  1
  Zr  Zr5  1  0.66575258  0.33702256  0.18920291  1
  Zr  Zr6  1  0.64716033  0.32391399  0.97733809  1
  Zr  Zr7  1  0.67675467  0.32391399  0.47733809  1
  Zr  Zr8  1  0.32934956  0.66781139  0.02271001  1
  Zr  Zr9  1  0.33846083  0.66781139  0.52271001  1
  Zr  Zr10  1  0.33520115  0.67080035  0.31074899  1
  Zr  Zr11  1  0.33559820  0.67080035  0.81074899  1
  Si  Si12  1  0.00011894  0.29436035  0.24994761  1
  Si  Si13  1  0.29424141  0.29436035  0.74994761  1
  Si  Si14  1  0.95879376  0.33796703  0.58403053  1
  Si  Si15  1  0.37917427  0.33796703  0.08403053  1
  Si  Si16  1  0.33353849  0.95187560  0.91668305  1
  Si  Si17  1  0.61833611  0.95187560  0.41668305  1
  S  S18  1  0.28831446  -0.00005318  0.25020769  1
  S  S19  1  0.71199197  0.71185845  0.24981629  1
  S  S20  1  -0.00013352  0.71185845  0.74981629  1
  S  S21  1  0.71163236  -0.00005318  0.75020769  1
  S  S22  1  0.37781278  0.04448119  0.58332953  1
  S  S23  1  0.66848580  0.62256873  0.58323459  1
  S  S24  1  0.95408394  0.62256873  0.08323459  1
  S  S25  1  0.66666941  0.04448119  0.08332953  1
  S  S26  1  0.62318290  0.66869587  0.91655832  1
  S  S27  1  0.04321804  0.37842863  0.91676463  1
  S  S28  1  0.33520960  0.37842863  0.41676463  1
  S  S29  1  0.04551197  0.66869587  0.41655832  1
  O  O30  1  0.21049301  0.02682684  0.30165502  1
  O  O31  1  0.81918511  0.78845721  0.30152666  1
  O  O32  1  0.97150824  0.16971983  0.30507991  1
  O  O33  1  0.19821159  0.16971983  0.80507991  1
  O  O34  1  0.96927209  0.78845721  0.80152666  1
  O  O35  1  0.81633382  0.02682684  0.80165502  1
  O  O36  1  0.78837941  0.96932077  0.69852482  1
  O  O37  1  0.16962198  0.19794808  0.69484315  1
  O  O38  1  0.02688328  0.81632200  0.69833833  1
  O  O39  1  0.78943872  0.81632200  0.19833833  1
  O  O40  1  0.02832610  0.19794808  0.19484315  1
  O  O41  1  0.18094136  0.96932077  0.19852482  1
  O  O42  1  0.86266744  0.36161144  0.63926417  1
  O  O43  1  0.48456099  0.12299164  0.63460306  1
  O  O44  1  0.63717578  0.51406073  0.63492958  1
  O  O45  1  0.87688595  0.51406073  0.13492958  1
  O  O46  1  0.63843164  0.12299164  0.13460306  1
  O  O47  1  0.49894500  0.36161144  0.13926417  1
  O  O48  1  0.46927039  0.30541596  0.02818977  1
  O  O49  1  0.85020183  0.54246650  0.03162274  1
  O  O50  1  0.69834574  0.15246586  0.03194566  1
  O  O51  1  0.45412112  0.15246586  0.53194566  1
  O  O52  1  0.69226567  0.54246650  0.53162274  1
  O  O53  1  0.83614657  0.30541596  0.52818977  1
  O  O54  1  0.54231448  0.69380728  0.96804174  1
  O  O55  1  0.15241402  0.45520696  0.96808114  1
  O  O56  1  0.30581800  0.83398850  0.97267605  1
  O  O57  1  0.52816950  0.83398850  0.47267605  1
  O  O58  1  0.30279194  0.45520696  0.46808114  1
  O  O59  1  0.15149180  0.69380728  0.46804174  1
  O  O60  1  0.12205339  0.63620936  0.36519903  1
  O  O61  1  0.50063690  0.86160429  0.36066556  1
  O  O62  1  0.36044247  0.48468176  0.36533787  1
  O  O63  1  0.12423830  0.48468176  0.86533787  1
  O  O64  1  0.36096638  0.86160429  0.86066556  1
  O  O65  1  0.51415497  0.63620936  0.86519903  1
  O  O66  1  0.02772068  0.81967346  0.40745792  1
  O  O67  1  0.80665894  0.97264870  0.40783586  1
  O  O68  1  0.18428132  0.20641910  0.40824463  1
  O  O69  1  0.02213779  0.20641910  0.90824463  1
  O  O70  1  0.16598976  0.97264870  0.90783586  1
  O  O71  1  0.79195279  0.81967346  0.90745792  1
  O  O72  1  0.97249196  0.16588012  0.59224493  1
  O  O73  1  0.20555301  0.02141861  0.59166597  1
  O  O74  1  0.81832461  0.79193546  0.59284955  1
  O  O75  1  0.97361085  0.79193546  0.09284955  1
  O  O76  1  0.81586560  0.02141861  0.09166597  1
  O  O77  1  0.19338816  0.16588012  0.09224493  1
  O  O78  1  0.69048926  0.15011452  0.74132407  1
  O  O79  1  0.47783346  0.31036852  0.73810211  1
  O  O80  1  0.84786993  0.54042077  0.74234282  1
  O  O81  1  0.69255184  0.54042077  0.24234282  1
  O  O82  1  0.83253606  0.31036852  0.23810211  1
  O  O83  1  0.45962626  0.15011452  0.24132407  1
  O  O84  1  0.64449659  0.51781295  0.92500388  1
  O  O85  1  0.87468923  0.36094043  0.92584127  1
  O  O86  1  0.50087954  0.14010678  0.92557882  1
  O  O87  1  0.63922824  0.14010678  0.42557882  1
  O  O88  1  0.48625220  0.36094043  0.42584127  1
  O  O89  1  0.87331736  0.51781295  0.42500388  1
  O  O90  1  0.35590968  0.50062880  0.07157210  1
  O  O91  1  0.12536445  0.63999768  0.07552513  1
  O  O92  1  0.51546230  0.87401823  0.07502369  1
  O  O93  1  0.35855493  0.87401823  0.57502369  1
  O  O94  1  0.51463224  0.63999768  0.57552513  1
  O  O95  1  0.14471811  0.50062880  0.57157210  1
  O  O96  1  0.30736792  0.84781385  0.25770746  1
  O  O97  1  0.54052573  0.69048937  0.25857990  1
  O  O98  1  0.16731934  0.47795970  0.26186460  1
  O  O99  1  0.31063936  0.47795970  0.76186460  1
  O  O100  1  0.14996264  0.69048937  0.75857990  1
  O  O101  1  0.54044493  0.84781385  0.75770746  1
