# generated using pymatgen
data_Na2Ta4Zn4Si3(S3O16)3
_symmetry_space_group_name_H-M   'P 1'
_cell_length_a   17.58128502
_cell_length_b   8.80419153
_cell_length_c   22.69917816
_cell_angle_alpha   89.99755623
_cell_angle_beta   89.96556097
_cell_angle_gamma   120.14219017
_symmetry_Int_Tables_number   1
_chemical_formula_structural   Na2Ta4Zn4Si3(S3O16)3
_chemical_formula_sum   'Na6 Ta12 Zn12 Si9 S27 O144'
_cell_volume   3038.48226241
_cell_formula_units_Z   3
loop_
 _symmetry_equiv_pos_site_id
 _symmetry_equiv_pos_as_xyz
  1  'x, y, z'
loop_
 _atom_site_type_symbol
 _atom_site_label
 _atom_site_symmetry_multiplicity
 _atom_site_fract_x
 _atom_site_fract_y
 _atom_site_fract_z
 _atom_site_occupancy
  Na  Na0  1  0.99874305  0.99851537  0.50032631  1
  Na  Na1  1  0.49964574  0.00136230  0.99627188  1
  Na  Na2  1  0.33567588  0.33590648  0.83898324  1
  Na  Na3  1  0.82922808  0.33340593  0.83741729  1
  Na  Na4  1  0.33637189  0.33651604  0.34077477  1
  Na  Na5  1  0.83365535  0.33174216  0.34122410  1
  Ta  Ta6  1  0.49953598  0.00850035  0.35560505  1
  Ta  Ta7  1  0.99907767  0.98947329  0.85382689  1
  Ta  Ta8  1  0.50536344  0.01156571  0.64221424  1
  Ta  Ta9  1  -0.00009201  0.00044857  0.14124027  1
  Ta  Ta10  1  0.33596359  0.33799046  0.68432607  1
  Ta  Ta11  1  0.82980814  0.33341271  0.69122160  1
  Ta  Ta12  1  0.33564318  0.33369821  0.18746227  1
  Ta  Ta13  1  0.83358950  0.33181065  0.18344360  1
  Ta  Ta14  1  0.16504869  0.65941717  0.02307739  1
  Ta  Ta15  1  0.66804289  0.67056878  0.02134219  1
  Ta  Ta16  1  0.16720394  0.66382397  0.52371203  1
  Ta  Ta17  1  0.66598179  0.67071992  0.52513418  1
  Zn  Zn18  1  0.99786102  0.99727517  0.35408992  1
  Zn  Zn19  1  0.50277395  0.00746018  0.84818408  1
  Zn  Zn20  1  0.00051713  0.99452339  0.65230868  1
  Zn  Zn21  1  0.50128388  0.00824437  0.15246467  1
  Zn  Zn22  1  0.32912197  0.33517839  0.98171853  1
  Zn  Zn23  1  0.84071940  0.33523741  0.98566344  1
  Zn  Zn24  1  0.34007462  0.34964601  0.48805876  1
  Zn  Zn25  1  0.83117959  0.32502538  0.48425432  1
  Zn  Zn26  1  0.16211559  0.66091487  0.31392785  1
  Zn  Zn27  1  0.66650159  0.66365807  0.31072269  1
  Zn  Zn28  1  0.16862242  0.67213345  0.80962642  1
  Zn  Zn29  1  0.66009627  0.64899686  0.80820741  1
  Si  Si30  1  0.50502747  0.29879399  0.24772128  1
  Si  Si31  1  0.63990335  0.28856905  0.75527130  1
  Si  Si32  1  0.00654339  0.71101041  0.74633868  1
  Si  Si33  1  0.47408707  0.32808193  0.57790601  1
  Si  Si34  1  0.69418126  0.05542261  0.58107874  1
  Si  Si35  1  0.33421922  0.62212675  0.58236247  1
  Si  Si36  1  0.97531997  0.62000625  0.07888260  1
  Si  Si37  1  0.83099206  0.04431585  0.08107218  1
  Si  Si38  1  0.19370452  0.33453598  0.08150186  1
  S  S39  1  0.14412518  0.99925193  0.25137467  1
  S  S40  1  0.64559558  0.00254775  0.25050174  1
  S  S41  1  0.35376801  0.70828734  0.25054854  1
  S  S42  1  0.85711902  0.71128989  0.25128364  1
  S  S43  1  0.99869910  0.28921276  0.25153833  1
  S  S44  1  0.14595443  0.28918957  0.75023750  1
  S  S45  1  0.49753938  0.70998010  0.75155265  1
  S  S46  1  0.35512441  0.00090825  0.75038214  1
  S  S47  1  0.85499764  0.00163835  0.75057401  1
  S  S48  1  0.97779735  0.32712725  0.58240107  1
  S  S49  1  0.18591964  0.04456049  0.58024135  1
  S  S50  1  0.83699573  0.62677930  0.58049201  1
  S  S51  1  0.47885740  0.62757394  0.08256585  1
  S  S52  1  0.33629062  0.04552361  0.08035462  1
  S  S53  1  0.68581685  0.32757603  0.08026110  1
  S  S54  1  0.31312663  0.67159790  0.91446893  1
  S  S55  1  0.81009406  0.66422562  0.91486642  1
  S  S56  1  0.02222155  0.37757049  0.91421866  1
  S  S57  1  0.51766006  0.37368314  0.91805779  1
  S  S58  1  0.16922070  0.95890279  0.91483036  1
  S  S59  1  0.66640499  0.95642415  0.91497887  1
  S  S60  1  0.30880521  0.95480465  0.41421477  1
  S  S61  1  0.81232078  0.95472817  0.41453327  1
  S  S62  1  0.16628790  0.37510810  0.41558693  1
  S  S63  1  0.67036996  0.38126257  0.41471820  1
  S  S64  1  0.01982048  0.66521178  0.41634541  1
  S  S65  1  0.52249225  0.66673951  0.41464664  1
  O  O66  1  0.11076961  0.04171736  0.30432479  1
  O  O67  1  0.59907483  0.02869455  0.30356787  1
  O  O68  1  0.41298159  0.79156275  0.30394056  1
  O  O69  1  0.91265559  0.77833980  0.30401502  1
  O  O70  1  0.48384384  0.15875100  0.30727720  1
  O  O71  1  0.98030106  0.18125672  0.30445261  1
  O  O72  1  0.09899540  0.16906250  0.80371551  1
  O  O73  1  0.61065814  0.16734237  0.81281429  1
  O  O74  1  0.47414442  0.77057646  0.80483090  1
  O  O75  1  0.98419481  0.80786346  0.80695691  1
  O  O76  1  0.40841460  0.04540997  0.80421590  1
  O  O77  1  0.91562892  0.03437796  0.80415089  1
  O  O78  1  0.39977677  0.98393521  0.69797804  1
  O  O79  1  0.89474892  0.98091897  0.69704179  1
  O  O80  1  0.09430661  0.21548690  0.69700448  1
  O  O81  1  0.58065744  0.18076021  0.69744087  1
  O  O82  1  0.01555208  0.82616834  0.69094632  1
  O  O83  1  0.50384798  0.81128315  0.69851059  1
  O  O84  1  0.39317631  0.80667979  0.19699989  1
  O  O85  1  0.90416558  0.82098446  0.19886166  1
  O  O86  1  0.00779288  0.20016110  0.19872285  1
  O  O87  1  0.51252651  0.20392962  0.19121128  1
  O  O88  1  0.08937968  0.98002899  0.19907880  1
  O  O89  1  0.59443750  0.97379204  0.19708531  1
  O  O90  1  0.42821811  0.36350481  0.63731528  1
  O  O91  1  0.94153547  0.36630658  0.63512744  1
  O  O92  1  0.24177358  0.12005202  0.63437949  1
  O  O93  1  0.75853791  0.14369148  0.63837726  1
  O  O94  1  0.31057030  0.48626877  0.63989659  1
  O  O95  1  0.82159287  0.51565909  0.63406970  1
  O  O96  1  0.43824671  0.51117405  0.13672364  1
  O  O97  1  0.92856446  0.49234335  0.13833836  1
  O  O98  1  0.32211760  0.13131756  0.13475266  1
  O  O99  1  0.81151699  0.13298175  0.14043416  1
  O  O100  1  0.25580916  0.36920775  0.14042796  1
  O  O101  1  0.74300506  0.36128427  0.13516990  1
  O  O102  1  0.22804544  0.28707794  0.02501183  1
  O  O103  1  0.72652636  0.30419535  0.02818935  1
  O  O104  1  0.42542102  0.54915374  0.03050605  1
  O  O105  1  0.91641998  0.55461689  0.02279288  1
  O  O106  1  0.35279941  0.15556850  0.02884169  1
  O  O107  1  0.85211778  0.15612392  0.02393661  1
  O  O108  1  0.22592318  0.14642109  0.52739087  1
  O  O109  1  0.72724062  0.16562006  0.52290370  1
  O  O110  1  0.35023735  0.55151420  0.52317282  1
  O  O111  1  0.85307926  0.55187864  0.52800981  1
  O  O112  1  0.41757927  0.28375547  0.52064514  1
  O  O113  1  0.92710156  0.30087557  0.52878269  1
  O  O114  1  0.26460728  0.68838437  0.96904971  1
  O  O115  1  0.76849438  0.68831639  0.97080094  1
  O  O116  1  0.07685227  0.46345124  0.97010428  1
  O  O117  1  0.57638715  0.47194977  0.97224163  1
  O  O118  1  0.15323482  0.84980412  0.96922664  1
  O  O119  1  0.66133009  0.83999848  0.97080393  1
  O  O120  1  0.26745475  0.84578929  0.46864700  1
  O  O121  1  0.76500184  0.84214976  0.46826210  1
  O  O122  1  0.15788879  0.47415374  0.46954630  1
  O  O123  1  0.65325369  0.45609719  0.46842824  1
  O  O124  1  0.07738567  0.68495930  0.46944354  1
  O  O125  1  0.57658275  0.69251689  0.46950537  1
  O  O126  1  0.05965567  0.64158858  0.36271700  1
  O  O127  1  0.56625187  0.64854060  0.36328505  1
  O  O128  1  0.25718223  0.86892133  0.36180433  1
  O  O129  1  0.76060532  0.87174027  0.36159553  1
  O  O130  1  0.17729658  0.48041058  0.36279556  1
  O  O131  1  0.67993763  0.48289573  0.36219886  1
  O  O132  1  0.06725533  0.48568908  0.86378183  1
  O  O133  1  0.55831784  0.47959706  0.86581207  1
  O  O134  1  0.17950464  0.87537681  0.86309622  1
  O  O135  1  0.67604519  0.86871110  0.86368450  1
  O  O136  1  0.25962730  0.64800265  0.86248639  1
  O  O137  1  0.75793978  0.64932946  0.86390780  1
  O  O138  1  0.01571345  0.82940692  0.41486399  1
  O  O139  1  0.51624433  0.83236189  0.40813741  1
  O  O140  1  0.39783646  0.96131058  0.40877057  1
  O  O141  1  0.89950890  0.96464878  0.41431209  1
  O  O142  1  0.08294419  0.20423611  0.41551767  1
  O  O143  1  0.58633096  0.19631685  0.40753537  1
  O  O144  1  0.01656299  0.20136267  0.90959816  1
  O  O145  1  0.51268084  0.20199396  0.91857907  1
  O  O146  1  0.08602121  0.97506196  0.90814324  1
  O  O147  1  0.58295504  0.95527135  0.91948770  1
  O  O148  1  0.39948440  0.83521622  0.91412673  1
  O  O149  1  0.89928645  0.83493185  0.91040084  1
  O  O150  1  0.49068231  0.16986064  0.59549219  1
  O  O151  1  0.99435693  0.18108417  0.59071711  1
  O  O152  1  0.09769760  0.01793854  0.58786026  1
  O  O153  1  0.59484019  0.01023038  0.59736216  1
  O  O154  1  0.41149822  0.80975561  0.60292339  1
  O  O155  1  0.90822924  0.80792911  0.58829136  1
  O  O156  1  0.49251919  0.80306952  0.09309722  1
  O  O157  1  0.99331559  0.81264636  0.10005182  1
  O  O158  1  0.40798582  0.00982787  0.08933812  1
  O  O159  1  0.91138035  0.01321133  0.10084171  1
  O  O160  1  0.09526434  0.17685091  0.10049789  1
  O  O161  1  0.59848980  0.17588540  0.08890113  1
  O  O162  1  0.34241765  0.16036657  0.73973632  1
  O  O163  1  0.85370560  0.17344106  0.74700294  1
  O  O164  1  0.23203494  0.28838582  0.74665068  1
  O  O165  1  0.73954639  0.30742257  0.73847184  1
  O  O166  1  0.41507052  0.52031479  0.74208984  1
  O  O167  1  0.91300387  0.51875866  0.74050421  1
  O  O168  1  0.34861186  0.52867143  0.24577914  1
  O  O169  1  0.84500073  0.52839392  0.24045887  1
  O  O170  1  0.40996377  0.30391950  0.24163404  1
  O  O171  1  0.91575666  0.30621231  0.24228770  1
  O  O172  1  0.23548766  0.16121876  0.23988466  1
  O  O173  1  0.73258314  0.17655764  0.24654688  1
  O  O174  1  0.32268472  0.51531878  0.92149215  1
  O  O175  1  0.82337371  0.51492879  0.92117175  1
  O  O176  1  0.43050967  0.35807407  0.92639060  1
  O  O177  1  0.93402808  0.35360978  0.91987662  1
  O  O178  1  0.24460481  0.13606523  0.92064698  1
  O  O179  1  0.74404429  0.13093288  0.92273376  1
  O  O180  1  0.32316341  0.13121646  0.41976014  1
  O  O181  1  0.82338790  0.13151767  0.42049283  1
  O  O182  1  0.24326291  0.35390830  0.42230831  1
  O  O183  1  0.74510201  0.35333854  0.42018917  1
  O  O184  1  0.43349404  0.51588054  0.41943915  1
  O  O185  1  0.93213270  0.50821516  0.42393145  1
  O  O186  1  0.18266327  0.50930371  0.07149969  1
  O  O187  1  0.67954073  0.49225747  0.07407544  1
  O  O188  1  0.07327232  0.64253894  0.07018377  1
  O  O189  1  0.56674416  0.63692208  0.07545876  1
  O  O190  1  0.25117987  0.87293816  0.07354072  1
  O  O191  1  0.74482008  0.84576208  0.07321687  1
  O  O192  1  0.17847643  0.86402460  0.57239570  1
  O  O193  1  0.68415688  0.85739981  0.57115814  1
  O  O194  1  0.24535560  0.64338639  0.57188393  1
  O  O195  1  0.75185001  0.63121853  0.57198095  1
  O  O196  1  0.06823458  0.49537301  0.57270886  1
  O  O197  1  0.57253415  0.50440311  0.56958892  1
  O  O198  1  0.15534004  0.84689044  0.25599713  1
  O  O199  1  0.66275251  0.86195168  0.26166450  1
  O  O200  1  0.26669265  0.68214425  0.26100764  1
  O  O201  1  0.77175843  0.69684467  0.25512040  1
  O  O202  1  0.07511376  0.46506988  0.25536249  1
  O  O203  1  0.58237767  0.48665824  0.26191149  1
  O  O204  1  0.16223028  0.46296250  0.76204895  1
  O  O205  1  0.65586089  0.48196832  0.75496092  1
  O  O206  1  0.08443078  0.68204132  0.76215620  1
  O  O207  1  0.57432819  0.69088273  0.75587597  1
  O  O208  1  0.26891873  0.84567490  0.75491798  1
  O  O209  1  0.76903927  0.85784669  0.76198368  1
