# generated using pymatgen
data_Na7HfMg3P5SO24
_symmetry_space_group_name_H-M   'P 1'
_cell_length_a   9.02149653
_cell_length_b   8.99616196
_cell_length_c   22.21876045
_cell_angle_alpha   89.67581476
_cell_angle_beta   90.21465746
_cell_angle_gamma   119.88181301
_symmetry_Int_Tables_number   1
_chemical_formula_structural   Na7HfMg3P5SO24
_chemical_formula_sum   'Na21 Hf3 Mg9 P15 S3 O72'
_cell_volume   1563.48994880
_cell_formula_units_Z   3
loop_
 _symmetry_equiv_pos_site_id
 _symmetry_equiv_pos_as_xyz
  1  'x, y, z'
loop_
 _atom_site_type_symbol
 _atom_site_label
 _atom_site_symmetry_multiplicity
 _atom_site_fract_x
 _atom_site_fract_y
 _atom_site_fract_z
 _atom_site_occupancy
  Na  Na0  1  0.62424555  0.99933874  0.25087714  1
  Na  Na1  1  0.36480322  0.35807885  0.25216885  1
  Na  Na2  1  0.00851367  0.64210690  0.24995409  1
  Na  Na3  1  0.64435435  0.63477635  0.74737496  1
  Na  Na4  1  0.99241005  0.35548132  0.74787864  1
  Na  Na5  1  0.29769370  0.33951841  0.58645860  1
  Na  Na6  1  0.02776878  0.69559423  0.58726660  1
  Na  Na7  1  0.67396672  0.96379742  0.58547702  1
  Na  Na8  1  0.29758673  0.96286488  0.08268498  1
  Na  Na9  1  0.66408997  0.70032560  0.07932926  1
  Na  Na10  1  0.03625819  0.33522279  0.07997683  1
  Na  Na11  1  0.97370381  0.67788612  0.91119397  1
  Na  Na12  1  0.32409769  0.29695712  0.91068923  1
  Na  Na13  1  0.32439328  0.02357571  0.41213798  1
  Na  Na14  1  0.69568087  0.67417105  0.41697442  1
  Na  Na15  1  0.99440812  0.01013654  0.49722015  1
  Na  Na16  1  0.99046097  0.00034142  0.99528284  1
  Na  Na17  1  0.65658122  0.31306787  0.82572333  1
  Na  Na18  1  0.66691301  0.32550946  0.33316859  1
  Na  Na19  1  0.33204436  0.67244439  0.16292212  1
  Na  Na20  1  0.33349373  0.66888501  0.66643947  1
  Hf  Hf21  1  0.66734086  0.32850923  0.98081652  1
  Hf  Hf22  1  0.67808049  0.33795386  0.48004595  1
  Hf  Hf23  1  0.33584838  0.67448399  0.81407891  1
  Mg  Mg24  1  0.00759405  0.00895133  0.35382731  1
  Mg  Mg25  1  0.99632561  0.00168189  0.84833124  1
  Mg  Mg26  1  0.99582529  0.00024101  0.65525057  1
  Mg  Mg27  1  0.00651944  0.99854448  0.14708787  1
  Mg  Mg28  1  0.66702019  0.33480955  0.68703416  1
  Mg  Mg29  1  0.66014889  0.32712281  0.17976768  1
  Mg  Mg30  1  0.33523878  0.66789393  0.01589029  1
  Mg  Mg31  1  0.33155663  0.65931183  0.51320463  1
  Mg  Mg32  1  0.33050723  0.67035824  0.32254534  1
  P  P33  1  0.29555281  0.99940123  0.25016339  1
  P  P34  1  0.29630430  0.29208706  0.75032426  1
  P  P35  1  0.99932793  0.70720301  0.74949975  1
  P  P36  1  0.70796350  0.00332351  0.74849156  1
  P  P37  1  0.96470870  0.33446201  0.58629617  1
  P  P38  1  0.66589811  0.62921491  0.58459463  1
  P  P39  1  0.96108626  0.62681350  0.08589054  1
  P  P40  1  0.66657798  0.03521652  0.08691115  1
  P  P41  1  0.37139325  0.33579106  0.08523821  1
  P  P42  1  0.63038211  0.67183337  0.91912091  1
  P  P43  1  0.04130341  0.37088406  0.91863829  1
  P  P44  1  0.33013537  0.95935482  0.91957901  1
  P  P45  1  0.62876547  0.95908340  0.41634502  1
  P  P46  1  0.33051855  0.37073652  0.41648573  1
  P  P47  1  0.04152269  0.66969850  0.41592699  1
  S  S48  1  0.70623683  0.70614796  0.25012002  1
  S  S49  1  0.99987498  0.29293980  0.24939570  1
  S  S50  1  0.37418398  0.04036777  0.58366931  1
  O  O51  1  0.21108611  0.02697894  0.30587743  1
  O  O52  1  0.81090283  0.78789262  0.30411538  1
  O  O53  1  0.97201844  0.18159797  0.30193879  1
  O  O54  1  0.21210681  0.18972907  0.80783750  1
  O  O55  1  0.97444137  0.78959646  0.80615447  1
  O  O56  1  0.82269583  0.02965214  0.80293224  1
  O  O57  1  0.77573371  0.96274161  0.69084772  1
  O  O58  1  0.18496847  0.21785532  0.69351736  1
  O  O59  1  0.02764032  0.81197316  0.69182747  1
  O  O60  1  0.78621474  0.81313671  0.19558739  1
  O  O61  1  0.02345400  0.21474254  0.19401658  1
  O  O62  1  0.18451393  0.97201159  0.19348662  1
  O  O63  1  0.87907600  0.36091124  0.64110321  1
  O  O64  1  0.48469191  0.12455849  0.63532193  1
  O  O65  1  0.63691843  0.51358547  0.63908113  1
  O  O66  1  0.87675435  0.51496742  0.14169004  1
  O  O67  1  0.63801969  0.11624009  0.14303839  1
  O  O68  1  0.48293724  0.36499059  0.14114075  1
  O  O69  1  0.46236077  0.30782584  0.02937815  1
  O  O70  1  0.84498528  0.53622612  0.02927572  1
  O  O71  1  0.69462267  0.15716635  0.03180807  1
  O  O72  1  0.45454543  0.14575451  0.52755122  1
  O  O73  1  0.68807412  0.53650643  0.52748348  1
  O  O74  1  0.84367697  0.30688249  0.53060008  1
  O  O75  1  0.54565223  0.68913243  0.97564029  1
  O  O76  1  0.14828743  0.45545916  0.97486182  1
  O  O77  1  0.30527356  0.85335143  0.97626684  1
  O  O78  1  0.54510064  0.85089677  0.47300612  1
  O  O79  1  0.31266232  0.45433217  0.47352719  1
  O  O80  1  0.15045378  0.69670036  0.47232569  1
  O  O81  1  0.11522149  0.63831146  0.35862851  1
  O  O82  1  0.51746793  0.88472312  0.35951311  1
  O  O83  1  0.36783981  0.48326538  0.35955017  1
  O  O84  1  0.12595475  0.48916742  0.86249363  1
  O  O85  1  0.35725440  0.87084459  0.86444092  1
  O  O86  1  0.51298524  0.63790955  0.86289326  1
  O  O87  1  0.01343665  0.82564494  0.41058618  1
  O  O88  1  0.80635998  0.97699960  0.40936067  1
  O  O89  1  0.17978484  0.18709799  0.41129323  1
  O  O90  1  0.02391732  0.19459918  0.91108151  1
  O  O91  1  0.17317667  0.98241697  0.91168723  1
  O  O92  1  0.81261547  0.82101052  0.91160866  1
  O  O93  1  0.98203445  0.17191981  0.58769949  1
  O  O94  1  0.20338571  0.02527306  0.58739245  1
  O  O95  1  0.83159937  0.80596423  0.58614726  1
  O  O96  1  0.97362702  0.80481620  0.08814559  1
  O  O97  1  0.83042778  0.02086636  0.08997874  1
  O  O98  1  0.19312586  0.17230940  0.08828372  1
  O  O99  1  0.68706340  0.16144419  0.74250610  1
  O  O100  1  0.47977908  0.32545288  0.74467811  1
  O  O101  1  0.84115925  0.52437748  0.74547137  1
  O  O102  1  0.69081255  0.53332433  0.24524465  1
  O  O103  1  0.84703121  0.31580676  0.24502784  1
  O  O104  1  0.47797899  0.16287027  0.24553714  1
  O  O105  1  0.64211707  0.50063661  0.92299523  1
  O  O106  1  0.86257005  0.36218987  0.92300889  1
  O  O107  1  0.49249818  0.14355793  0.92296565  1
  O  O108  1  0.64139200  0.14027877  0.42340463  1
  O  O109  1  0.49803992  0.35182049  0.42287069  1
  O  O110  1  0.85481428  0.50825186  0.42242383  1
  O  O111  1  0.35242683  0.49582760  0.07796107  1
  O  O112  1  0.13977203  0.64586423  0.07903933  1
  O  O113  1  0.50656372  0.85781298  0.07870432  1
  O  O114  1  0.35549883  0.86735081  0.57734521  1
  O  O115  1  0.50643435  0.65064769  0.57751266  1
  O  O116  1  0.14171664  0.49799420  0.57765308  1
  O  O117  1  0.31566379  0.83641384  0.25490749  1
  O  O118  1  0.53159938  0.68464151  0.25461199  1
  O  O119  1  0.15629944  0.46511219  0.25509077  1
  O  O120  1  0.31303138  0.47851495  0.75662949  1
  O  O121  1  0.15963016  0.67996006  0.75603942  1
  O  O122  1  0.52684730  0.83547788  0.75724341  1
