# generated using pymatgen
data_Na4Zr2Sc2Si3(SO8)3
_symmetry_space_group_name_H-M   'P 1'
_cell_length_a   9.09670121
_cell_length_b   9.04928881
_cell_length_c   23.20614869
_cell_angle_alpha   90.06001017
_cell_angle_beta   89.73572743
_cell_angle_gamma   119.74752523
_symmetry_Int_Tables_number   1
_chemical_formula_structural   Na4Zr2Sc2Si3(SO8)3
_chemical_formula_sum   'Na12 Zr6 Sc6 Si9 S9 O72'
_cell_volume   1658.54131919
_cell_formula_units_Z   3
loop_
 _symmetry_equiv_pos_site_id
 _symmetry_equiv_pos_as_xyz
  1  'x, y, z'
loop_
 _atom_site_type_symbol
 _atom_site_label
 _atom_site_symmetry_multiplicity
 _atom_site_fract_x
 _atom_site_fract_y
 _atom_site_fract_z
 _atom_site_occupancy
  Na  Na0  1  0.99554329  0.64360301  0.25222179  1
  Na  Na1  1  0.99499441  0.35546256  0.74154329  1
  Na  Na2  1  0.66340527  0.97686867  0.58854316  1
  Na  Na3  1  0.67022075  0.69715464  0.08145815  1
  Na  Na4  1  0.33499711  0.30601171  0.90505684  1
  Na  Na5  1  0.32176234  0.02255814  0.42077768  1
  Na  Na6  1  0.01008611  0.99939994  0.50272822  1
  Na  Na7  1  0.98663476  0.97965144  0.99490538  1
  Na  Na8  1  0.65470903  0.32763315  0.82057205  1
  Na  Na9  1  0.66440898  0.34346440  0.33242736  1
  Na  Na10  1  0.33134863  0.67521976  0.16913178  1
  Na  Na11  1  0.32888952  0.66658777  0.66019392  1
  Zr  Zr12  1  0.01397871  0.01747730  0.64682191  1
  Zr  Zr13  1  0.99991646  0.98477608  0.15134565  1
  Zr  Zr14  1  0.67989578  0.35031398  0.98047180  1
  Zr  Zr15  1  0.67823635  0.33834869  0.48499240  1
  Zr  Zr16  1  0.33400766  0.67051119  0.31380681  1
  Zr  Zr17  1  0.35631332  0.67239346  0.80930579  1
  Sc  Sc18  1  0.00022884  0.98264507  0.35047685  1
  Sc  Sc19  1  0.98540337  0.99396533  0.84730454  1
  Sc  Sc20  1  0.65170769  0.31418497  0.68469237  1
  Sc  Sc21  1  0.66713982  0.33771591  0.18960463  1
  Sc  Sc22  1  0.33125873  0.67283716  0.01792157  1
  Sc  Sc23  1  0.30692886  0.66075737  0.52203435  1
  Si  Si24  1  0.30104315  0.00621658  0.25249033  1
  Si  Si25  1  0.70248379  0.70420449  0.24991164  1
  Si  Si26  1  0.29686089  0.28863040  0.75477319  1
  Si  Si27  1  0.71208750  0.00559471  0.74783368  1
  Si  Si28  1  0.96206783  0.33691562  0.58751482  1
  Si  Si29  1  0.37307773  0.03831515  0.58059179  1
  Si  Si30  1  0.96801381  0.62664306  0.08609301  1
  Si  Si31  1  0.63157453  0.67634316  0.92028730  1
  Si  Si32  1  0.03409860  0.66379583  0.41579591  1
  S  S33  1  0.99987288  0.28889590  0.25040816  1
  S  S34  1  0.99902152  0.70707780  0.75112825  1
  S  S35  1  0.66620828  0.62603211  0.58413901  1
  S  S36  1  0.66643900  0.04261152  0.08333379  1
  S  S37  1  0.37372813  0.33307755  0.08269079  1
  S  S38  1  0.04298375  0.37553390  0.91730173  1
  S  S39  1  0.33226480  0.95945309  0.91790517  1
  S  S40  1  0.62805229  0.95854791  0.41749424  1
  S  S41  1  0.33184972  0.37446109  0.41697399  1
  O  O42  1  0.21406443  0.03143248  0.30981964  1
  O  O43  1  0.83092618  0.80045850  0.30265773  1
  O  O44  1  0.97911507  0.18778145  0.30187125  1
  O  O45  1  0.20989979  0.18274559  0.81420943  1
  O  O46  1  0.97885607  0.78993574  0.80335287  1
  O  O47  1  0.82861999  0.02804120  0.80411707  1
  O  O48  1  0.79220887  0.96901049  0.69008336  1
  O  O49  1  0.16934574  0.19897702  0.69936271  1
  O  O50  1  0.02757040  0.81144277  0.69903127  1
  O  O51  1  0.78699430  0.81898871  0.18991072  1
  O  O52  1  0.02285922  0.20931299  0.19721648  1
  O  O53  1  0.17083259  0.96911126  0.19682226  1
  O  O54  1  0.87664278  0.36216598  0.64494578  1
  O  O55  1  0.49661873  0.13232360  0.63513717  1
  O  O56  1  0.64276045  0.52276275  0.63536703  1
  O  O57  1  0.87272477  0.51426938  0.14230963  1
  O  O58  1  0.64340105  0.12234289  0.13471719  1
  O  O59  1  0.48248282  0.35732409  0.13283852  1
  O  O60  1  0.45108671  0.30532961  0.02923388  1
  O  O61  1  0.83779956  0.53210053  0.03006822  1
  O  O62  1  0.68242445  0.14363267  0.03054300  1
  O  O63  1  0.45669226  0.15241762  0.52081484  1
  O  O64  1  0.69044871  0.54400055  0.53106435  1
  O  O65  1  0.83746260  0.30608116  0.53107411  1
  O  O66  1  0.53622558  0.68774442  0.97883365  1
  O  O67  1  0.14955173  0.46355376  0.96808813  1
  O  O68  1  0.31083013  0.85452001  0.96980524  1
  O  O69  1  0.55265403  0.85783207  0.46985599  1
  O  O70  1  0.31858220  0.46076119  0.46836982  1
  O  O71  1  0.16347383  0.69794723  0.46887645  1
  O  O72  1  0.12629143  0.63993913  0.35685172  1
  O  O73  1  0.51586771  0.87089706  0.36615743  1
  O  O74  1  0.35529916  0.47969022  0.36411178  1
  O  O75  1  0.11332031  0.47730194  0.86442883  1
  O  O76  1  0.35389043  0.87844686  0.86588796  1
  O  O77  1  0.50021565  0.63456764  0.86561138  1
  O  O78  1  0.02606269  0.84187459  0.41181441  1
  O  O79  1  0.79955749  0.98634806  0.40837717  1
  O  O80  1  0.17779200  0.20380861  0.41154109  1
  O  O81  1  0.03278340  0.20708858  0.91413277  1
  O  O82  1  0.18493304  0.98631410  0.91450775  1
  O  O83  1  0.82078090  0.83588762  0.91320569  1
  O  O84  1  0.96312176  0.15383490  0.58791442  1
  O  O85  1  0.18176609  0.01033053  0.58822982  1
  O  O86  1  0.82082330  0.79773651  0.58769187  1
  O  O87  1  0.97108696  0.81372894  0.08705380  1
  O  O88  1  0.82234648  0.02560644  0.08629357  1
  O  O89  1  0.20123999  0.18391843  0.08854225  1
  O  O90  1  0.70267510  0.17993123  0.74606304  1
  O  O91  1  0.48673006  0.32393221  0.74601763  1
  O  O92  1  0.84965406  0.53581397  0.74628808  1
  O  O93  1  0.69820476  0.52204869  0.24342771  1
  O  O94  1  0.85086537  0.31390163  0.24452106  1
  O  O95  1  0.48763686  0.16446345  0.24106580  1
  O  O96  1  0.63320644  0.48948947  0.92493031  1
  O  O97  1  0.86765407  0.34954730  0.92528598  1
  O  O98  1  0.48790778  0.13232396  0.92445260  1
  O  O99  1  0.63103877  0.12668142  0.41999732  1
  O  O100  1  0.48297877  0.34913745  0.41933748  1
  O  O101  1  0.84459585  0.49515255  0.42118131  1
  O  O102  1  0.36397241  0.49197970  0.07682860  1
  O  O103  1  0.15500146  0.65019924  0.07565578  1
  O  O104  1  0.51780153  0.86610033  0.07806165  1
  O  O105  1  0.37333636  0.85756074  0.57543586  1
  O  O106  1  0.51856793  0.65093844  0.57594537  1
  O  O107  1  0.15147875  0.49504845  0.57851280  1
  O  O108  1  0.30092584  0.82245217  0.25571788  1
  O  O109  1  0.51335126  0.67965920  0.25641131  1
  O  O110  1  0.15382493  0.46363357  0.25401214  1
  O  O111  1  0.29271166  0.47251729  0.75861357  1
  O  O112  1  0.15160440  0.68461375  0.75855180  1
  O  O113  1  0.52019777  0.83931438  0.75592832  1
