# generated using pymatgen
data_Na6Mg2Si5Ge6S7O48
_symmetry_space_group_name_H-M   'P 1'
_cell_length_a   17.13647400
_cell_length_b   8.65419340
_cell_length_c   22.12363888
_cell_angle_alpha   89.73058573
_cell_angle_beta   90.12294311
_cell_angle_gamma   120.36908160
_symmetry_Int_Tables_number   1
_chemical_formula_structural   Na6Mg2Si5Ge6S7O48
_chemical_formula_sum   'Na18 Mg6 Si15 Ge18 S21 O144'
_cell_volume   2830.76100967
_cell_formula_units_Z   3
loop_
 _symmetry_equiv_pos_site_id
 _symmetry_equiv_pos_as_xyz
  1  'x, y, z'
loop_
 _atom_site_type_symbol
 _atom_site_label
 _atom_site_symmetry_multiplicity
 _atom_site_fract_x
 _atom_site_fract_y
 _atom_site_fract_z
 _atom_site_occupancy
  Na  Na0  1  0.65496789  0.34690892  0.58317222  1
  Na  Na1  1  0.51830270  0.68946976  0.58465999  1
  Na  Na2  1  0.82692663  0.96218130  0.58350038  1
  Na  Na3  1  0.15379312  0.96163507  0.08513662  1
  Na  Na4  1  0.32620099  0.69137357  0.08598253  1
  Na  Na5  1  0.01788147  0.34817243  0.08725633  1
  Na  Na6  1  0.00441928  0.99613034  0.49700379  1
  Na  Na7  1  0.49545452  0.00291810  0.49893061  1
  Na  Na8  1  0.99616978  0.98865365  0.00053266  1
  Na  Na9  1  0.50364329  0.00747780  0.99949777  1
  Na  Na10  1  0.32915806  0.32376732  0.82625060  1
  Na  Na11  1  0.83111607  0.33276776  0.83407779  1
  Na  Na12  1  0.32951953  0.32881965  0.33457592  1
  Na  Na13  1  0.83323401  0.33855318  0.32799033  1
  Na  Na14  1  0.16409799  0.66493861  0.16400020  1
  Na  Na15  1  0.67099230  0.67316925  0.16983701  1
  Na  Na16  1  0.17030363  0.66774210  0.66649240  1
  Na  Na17  1  0.66538583  0.66403285  0.66053474  1
  Mg  Mg18  1  0.33139577  0.32393369  0.69103464  1
  Mg  Mg19  1  0.83238128  0.33334317  0.68495171  1
  Mg  Mg20  1  0.33132592  0.32975379  0.18686613  1
  Mg  Mg21  1  0.83317243  0.34075275  0.19291622  1
  Mg  Mg22  1  0.16615651  0.66909601  0.02104989  1
  Mg  Mg23  1  0.66688341  0.66508707  0.52052713  1
  Si  Si24  1  0.64087109  0.99927389  0.25180798  1
  Si  Si25  1  0.85944240  0.71721243  0.25300373  1
  Si  Si26  1  0.14102663  0.28154029  0.75142045  1
  Si  Si27  1  0.36032833  0.00316133  0.75278443  1
  Si  Si28  1  0.47186394  0.33231704  0.58455098  1
  Si  Si29  1  0.68973963  0.04729073  0.58521654  1
  Si  Si30  1  0.83869282  0.63029423  0.58748518  1
  Si  Si31  1  0.97198301  0.61493129  0.08493151  1
  Si  Si32  1  0.33970405  0.04855412  0.08684116  1
  Si  Si33  1  0.18650897  0.33188199  0.08736785  1
  Si  Si34  1  0.81308433  0.67086595  0.91436764  1
  Si  Si35  1  0.66646431  0.96029318  0.91691540  1
  Si  Si36  1  0.31278512  0.95334755  0.41383180  1
  Si  Si37  1  0.16698705  0.37391804  0.41680554  1
  Si  Si38  1  0.01780232  0.65911046  0.41788388  1
  Ge  Ge39  1  0.00302175  0.98972075  0.35705133  1
  Ge  Ge40  1  0.49973446  0.99963431  0.35321526  1
  Ge  Ge41  1  0.99951713  0.99769105  0.85241794  1
  Ge  Ge42  1  0.50298334  0.99571473  0.85004688  1
  Ge  Ge43  1  0.00728912  0.00394057  0.64618208  1
  Ge  Ge44  1  0.49132641  0.00656070  0.64161165  1
  Ge  Ge45  1  0.99550060  0.97907621  0.14685749  1
  Ge  Ge46  1  0.50282865  0.01188698  0.15173748  1
  Ge  Ge47  1  0.32689548  0.31042530  0.98975409  1
  Ge  Ge48  1  0.82920921  0.34942536  0.97710924  1
  Ge  Ge49  1  0.32838237  0.30662553  0.47601839  1
  Ge  Ge50  1  0.83477090  0.35864202  0.48492112  1
  Ge  Ge51  1  0.67370235  0.68498031  0.01320629  1
  Ge  Ge52  1  0.16789275  0.66452535  0.50718617  1
  Ge  Ge53  1  0.16253877  0.65699814  0.32415815  1
  Ge  Ge54  1  0.67557390  0.69042574  0.30935237  1
  Ge  Ge55  1  0.17249262  0.65833824  0.80752488  1
  Ge  Ge56  1  0.67266376  0.68134403  0.81833310  1
  S  S57  1  0.14570490  0.99557732  0.25204863  1
  S  S58  1  0.35306716  0.70965027  0.25092002  1
  S  S59  1  0.00363613  0.28936577  0.25146648  1
  S  S60  1  0.49989862  0.29101489  0.25244727  1
  S  S61  1  0.64557268  0.29623086  0.75197867  1
  S  S62  1  -0.00013658  0.70989519  0.75220915  1
  S  S63  1  0.50361204  0.71226525  0.75082186  1
  S  S64  1  0.85384420  0.99823260  0.75080257  1
  S  S65  1  0.98360477  0.34191427  0.58342274  1
  S  S66  1  0.18850362  0.03619497  0.58316886  1
  S  S67  1  0.32762077  0.61767732  0.58262258  1
  S  S68  1  0.48288791  0.62294941  0.08208135  1
  S  S69  1  0.82910420  0.04079808  0.08233864  1
  S  S70  1  0.68723443  0.33918880  0.08221184  1
  S  S71  1  0.31360361  0.66272040  0.91708989  1
  S  S72  1  0.02212459  0.37640391  0.91520151  1
  S  S73  1  0.52100694  0.37940228  0.91713927  1
  S  S74  1  0.16780948  0.95826592  0.91504931  1
  S  S75  1  0.81264917  0.96170887  0.41691594  1
  S  S76  1  0.66626439  0.37761980  0.41459785  1
  S  S77  1  0.52229857  0.66726500  0.41501171  1
  O  O78  1  0.10412586  0.02715858  0.30575984  1
  O  O79  1  0.59228437  0.03211269  0.31051693  1
  O  O80  1  0.41057346  0.79761980  0.30482560  1
  O  O81  1  0.92111541  0.81926890  0.31169255  1
  O  O82  1  0.48190702  0.17415541  0.30614772  1
  O  O83  1  0.99221061  0.17855552  0.30533622  1
  O  O84  1  0.09304620  0.15415889  0.81126240  1
  O  O85  1  0.60456765  0.18180435  0.80761084  1
  O  O86  1  0.49068969  0.79696618  0.80647758  1
  O  O87  1  0.98196845  0.78848994  0.80686986  1
  O  O88  1  0.42244185  0.02893016  0.81356008  1
  O  O89  1  0.90878134  0.02151805  0.80599696  1
  O  O90  1  0.40209050  0.95031886  0.69345306  1
  O  O91  1  0.89149442  0.96435271  0.69521214  1
  O  O92  1  0.07516293  0.19155172  0.69082248  1
  O  O93  1  0.59089530  0.21602021  0.69639447  1
  O  O94  1  0.01704392  0.82194895  0.69681073  1
  O  O95  1  0.52251182  0.82375209  0.69588179  1
  O  O96  1  0.39246335  0.82102232  0.19352829  1
  O  O97  1  0.89904623  0.84860549  0.19167138  1
  O  O98  1  0.02108008  0.21661226  0.19395299  1
  O  O99  1  0.51721062  0.21387989  0.19601588  1
  O  O100  1  0.09149580  0.96719412  0.19459944  1
  O  O101  1  0.57573446  0.95843150  0.18968194  1
  O  O102  1  0.43365299  0.38203983  0.64119799  1
  O  O103  1  0.94513418  0.36728230  0.63865814  1
  O  O104  1  0.24082186  0.11614832  0.63727764  1
  O  O105  1  0.75246938  0.12273376  0.64264571  1
  O  O106  1  0.31375923  0.51578768  0.63791126  1
  O  O107  1  0.81655625  0.50759844  0.64498433  1
  O  O108  1  0.44518898  0.51930184  0.13706390  1
  O  O109  1  0.93221129  0.48179378  0.13987713  1
  O  O110  1  0.31781075  0.13100697  0.14265242  1
  O  O111  1  0.81230065  0.11077490  0.13683798  1
  O  O112  1  0.25468409  0.38443180  0.14153314  1
  O  O113  1  0.74108916  0.37063304  0.13588841  1
  O  O114  1  0.22596595  0.27824223  0.02365495  1
  O  O115  1  0.72222206  0.29915554  0.02574507  1
  O  O116  1  0.42237309  0.54414445  0.02638639  1
  O  O117  1  0.91113541  0.52728365  0.02097837  1
  O  O118  1  0.36251827  0.17056705  0.02229682  1
  O  O119  1  0.84539183  0.15001409  0.02670435  1
  O  O120  1  0.22264437  0.14673760  0.52676037  1
  O  O121  1  0.73370282  0.18241374  0.52283435  1
  O  O122  1  0.34693647  0.54445012  0.52813125  1
  O  O123  1  0.86132610  0.55575103  0.52479749  1
  O  O124  1  0.41013473  0.29715776  0.52171461  1
  O  O125  1  0.92408644  0.29940906  0.52889342  1
  O  O126  1  0.27458210  0.69351248  0.97074576  1
  O  O127  1  0.77073345  0.70855308  0.97508985  1
  O  O128  1  0.07547735  0.45197248  0.96970377  1
  O  O129  1  0.57835134  0.45971774  0.97232422  1
  O  O130  1  0.15450033  0.85649858  0.97040235  1
  O  O131  1  0.64222630  0.82866164  0.97578953  1
  O  O132  1  0.27318323  0.83449908  0.47581386  1
  O  O133  1  0.77326806  0.84965905  0.47040337  1
  O  O134  1  0.14510456  0.45607394  0.47655099  1
  O  O135  1  0.65241776  0.45169847  0.46996206  1
  O  O136  1  0.08317512  0.70375166  0.47738838  1
  O  O137  1  0.57533685  0.69876651  0.46982879  1
  O  O138  1  0.06046275  0.62129785  0.35722979  1
  O  O139  1  0.56346283  0.63384509  0.36046970  1
  O  O140  1  0.24900233  0.86714224  0.35437789  1
  O  O141  1  0.75420264  0.87880217  0.36117613  1
  O  O142  1  0.19045129  0.50180386  0.35694232  1
  O  O143  1  0.67936094  0.48914933  0.35981791  1
  O  O144  1  0.06347900  0.49400848  0.86026758  1
  O  O145  1  0.56104098  0.49037558  0.86126819  1
  O  O146  1  0.18117467  0.87538963  0.86046884  1
  O  O147  1  0.68553894  0.87343929  0.85714842  1
  O  O148  1  0.25604396  0.62920679  0.86164112  1
  O  O149  1  0.74779459  0.62745882  0.85532799  1
  O  O150  1  0.01002862  0.83877272  0.41185563  1
  O  O151  1  0.51271650  0.83061944  0.40846751  1
  O  O152  1  0.41443879  0.97613067  0.40596607  1
  O  O153  1  0.90314363  0.98129156  0.40940409  1
  O  O154  1  0.07692698  0.17736553  0.40628936  1
  O  O155  1  0.58301231  0.19406302  0.40933242  1
  O  O156  1  0.01231322  0.19441500  0.90850134  1
  O  O157  1  0.51280082  0.20129813  0.91231045  1
  O  O158  1  0.08516220  0.97644582  0.90983045  1
  O  O159  1  0.57649109  0.98293558  0.90655099  1
  O  O160  1  0.40478122  0.82745399  0.90961236  1
  O  O161  1  0.91411980  0.85189316  0.90605985  1
  O  O162  1  0.48366357  0.15210434  0.58807421  1
  O  O163  1  0.99005420  0.17313737  0.58752537  1
  O  O164  1  0.09587042  0.01911820  0.58825935  1
  O  O165  1  0.58497350  0.02258176  0.59388891  1
  O  O166  1  0.41482096  0.80128213  0.58726871  1
  O  O167  1  0.92883028  0.84240054  0.59473793  1
  O  O168  1  0.49079804  0.80254015  0.08516186  1
  O  O169  1  0.98442218  0.81892660  0.08970222  1
  O  O170  1  0.42956379  0.01604087  0.09419571  1
  O  O171  1  0.91272945  0.02639145  0.08615324  1
  O  O172  1  0.08382506  0.14840226  0.09452416  1
  O  O173  1  0.59538344  0.17354902  0.08803301  1
  O  O174  1  0.34987916  0.17253644  0.74926022  1
  O  O175  1  0.84611876  0.15801304  0.74750757  1
  O  O176  1  0.23915024  0.31280463  0.74626402  1
  O  O177  1  0.73478984  0.31508897  0.74900467  1
  O  O178  1  0.42273218  0.53889576  0.74748547  1
  O  O179  1  0.92162817  0.53047955  0.74672048  1
  O  O180  1  0.34825639  0.53699038  0.24643068  1
  O  O181  1  0.84856625  0.52662124  0.24873255  1
  O  O182  1  0.42119999  0.31130030  0.24576846  1
  O  O183  1  0.92326103  0.30315531  0.24639883  1
  O  O184  1  0.23462284  0.15669245  0.24772881  1
  O  O185  1  0.73843529  0.16473156  0.24549978  1
  O  O186  1  0.32434516  0.50193972  0.92221766  1
  O  O187  1  0.82177785  0.49285863  0.92004549  1
  O  O188  1  0.43082083  0.36592566  0.92239744  1
  O  O189  1  0.93029372  0.35271153  0.91912437  1
  O  O190  1  0.25141879  0.14398280  0.91903830  1
  O  O191  1  0.75689678  0.15574010  0.92833255  1
  O  O192  1  0.32276679  0.15040030  0.41988040  1
  O  O193  1  0.81994068  0.13787314  0.42149405  1
  O  O194  1  0.25794376  0.35849952  0.42846746  1
  O  O195  1  0.74757296  0.35736548  0.41823095  1
  O  O196  1  0.43040516  0.50785750  0.41923377  1
  O  O197  1  0.91851331  0.47331107  0.42552331  1
  O  O198  1  0.17179604  0.49530364  0.07384950  1
  O  O199  1  0.67542459  0.49980049  0.07341899  1
  O  O200  1  0.07329536  0.65565647  0.07405473  1
  O  O201  1  0.57345789  0.63764737  0.07415920  1
  O  O202  1  0.25614135  0.85357739  0.07406772  1
  O  O203  1  0.74654604  0.85137860  0.07614310  1
  O  O204  1  0.17785533  0.85587784  0.57636412  1
  O  O205  1  0.67190868  0.85117129  0.57311179  1
  O  O206  1  0.24807352  0.64458538  0.57594310  1
  O  O207  1  0.75505412  0.65969269  0.57577333  1
  O  O208  1  0.07450714  0.50364545  0.57633055  1
  O  O209  1  0.57345548  0.49292296  0.57422750  1
  O  O210  1  0.15088608  0.82893498  0.25619580  1
  O  O211  1  0.64207522  0.80915106  0.25907781  1
  O  O212  1  0.26349228  0.69592008  0.25505569  1
  O  O213  1  0.75668728  0.69577895  0.25875408  1
  O  O214  1  0.08863750  0.47484504  0.25611242  1
  O  O215  1  0.58381679  0.46652277  0.25813161  1
  O  O216  1  0.14250692  0.47444793  0.75857969  1
  O  O217  1  0.64913234  0.47331022  0.75780322  1
  O  O218  1  0.08455176  0.70208798  0.75889920  1
  O  O219  1  0.58783697  0.69571625  0.75836673  1
  O  O220  1  0.25795264  0.81869131  0.75960267  1
  O  O221  1  0.76187001  0.82885886  0.75561575  1
