# generated using pymatgen
data_Zn2(PS3)3
_symmetry_space_group_name_H-M   'P 1'
_cell_length_a   10.65869361
_cell_length_b   10.65869361
_cell_length_c   6.76210434
_cell_angle_alpha   85.31254952
_cell_angle_beta   85.31254952
_cell_angle_gamma   60.14478511
_symmetry_Int_Tables_number   1
_chemical_formula_structural   Zn2(PS3)3
_chemical_formula_sum   'Zn4 P6 S18'
_cell_volume   663.29569118
_cell_formula_units_Z   2
loop_
 _symmetry_equiv_pos_site_id
 _symmetry_equiv_pos_as_xyz
  1  'x, y, z'
loop_
 _atom_site_type_symbol
 _atom_site_label
 _atom_site_symmetry_multiplicity
 _atom_site_fract_x
 _atom_site_fract_y
 _atom_site_fract_z
 _atom_site_occupancy
  Zn  Zn0  1  0.95215917  0.29695346  0.33197828  1
  Zn  Zn1  1  0.70304654  0.04784083  0.66802172  1
  Zn  Zn2  1  0.04784083  0.70304654  0.66802172  1
  Zn  Zn3  1  0.29695346  0.95215917  0.33197828  1
  P  P4  1  0.27852377  0.27852377  0.38255394  1
  P  P5  1  0.72147623  0.72147623  0.61744606  1
  P  P6  1  0.02382727  0.02382727  0.64579597  1
  P  P7  1  0.97617273  0.97617273  0.35420403  1
  P  P8  1  0.37317355  0.37317355  0.70010131  1
  P  P9  1  0.62682645  0.62682645  0.29989869  1
  S  S10  1  0.25850935  0.25850935  0.69819034  1
  S  S11  1  0.07128431  0.07128431  0.16673390  1
  S  S12  1  0.60732147  0.60732147  0.61498256  1
  S  S13  1  0.39267853  0.39267853  0.38501744  1
  S  S14  1  0.23958012  0.91900215  0.66583244  1
  S  S15  1  0.92871569  0.92871569  0.83326610  1
  S  S16  1  0.76041988  0.08099785  0.33416756  1
  S  S17  1  0.91900215  0.23958012  0.66583244  1
  S  S18  1  0.40977965  0.09033473  0.25796164  1
  S  S19  1  0.90966527  0.59022035  0.74203836  1
  S  S20  1  0.59022035  0.90966527  0.74203836  1
  S  S21  1  0.09033473  0.40977965  0.25796164  1
  S  S22  1  0.56247087  0.26430828  0.82878476  1
  S  S23  1  0.73569172  0.43752913  0.17121524  1
  S  S24  1  0.43752913  0.73569172  0.17121524  1
  S  S25  1  0.26430828  0.56247087  0.82878476  1
  S  S26  1  0.08099785  0.76041988  0.33416756  1
  S  S27  1  0.74149065  0.74149065  0.30180966  1
