# generated using pymatgen
data_MgAlCu(WO4)2
_symmetry_space_group_name_H-M   'P 1'
_cell_length_a   5.26183407
_cell_length_b   6.03098416
_cell_length_c   5.88341423
_cell_angle_alpha   94.70342525
_cell_angle_beta   118.11203153
_cell_angle_gamma   95.28302705
_symmetry_Int_Tables_number   1
_chemical_formula_structural   MgAlCu(WO4)2
_chemical_formula_sum   'Mg1 Al1 Cu1 W2 O8'
_cell_volume   162.29943084
_cell_formula_units_Z   1
loop_
 _symmetry_equiv_pos_site_id
 _symmetry_equiv_pos_as_xyz
  1  'x, y, z'
loop_
 _atom_site_type_symbol
 _atom_site_label
 _atom_site_symmetry_multiplicity
 _atom_site_fract_x
 _atom_site_fract_y
 _atom_site_fract_z
 _atom_site_occupancy
  Mg  Mg0  1  0.64306789  0.24628856  0.08356691  1
  Al  Al1  1  0.60615208  0.77421044  0.16096107  1
  Cu  Cu2  1  0.15423508  0.21501906  0.11276540  1
  W  W3  1  0.95330913  0.42180032  0.64146237  1
  W  W4  1  0.34539729  0.03632004  0.56719529  1
  O  O5  1  0.20233011  0.64714397  0.89122065  1
  O  O6  1  0.63540658  0.51236622  0.30811690  1
  O  O7  1  0.18578024  0.17201599  0.81026021  1
  O  O8  1  0.54661274  0.00416470  0.34275946  1
  O  O9  1  0.60986318  0.92435420  0.89281839  1
  O  O10  1  0.02030603  0.83134743  0.34951215  1
  O  O11  1  0.06655448  0.28723833  0.37964892  1
  O  O12  1  0.65198317  0.33241975  0.74955427  1
