# generated using pymatgen
data_Na2Ca4Ti4SiS11O48
_symmetry_space_group_name_H-M   'P 1'
_cell_length_a   17.83467961
_cell_length_b   8.90136826
_cell_length_c   23.21803028
_cell_angle_alpha   89.94970075
_cell_angle_beta   90.05289122
_cell_angle_gamma   119.98413851
_symmetry_Int_Tables_number   1
_chemical_formula_structural   Na2Ca4Ti4SiS11O48
_chemical_formula_sum   'Na6 Ca12 Ti12 Si3 S33 O144'
_cell_volume   3192.62008582
_cell_formula_units_Z   3
loop_
 _symmetry_equiv_pos_site_id
 _symmetry_equiv_pos_as_xyz
  1  'x, y, z'
loop_
 _atom_site_type_symbol
 _atom_site_label
 _atom_site_symmetry_multiplicity
 _atom_site_fract_x
 _atom_site_fract_y
 _atom_site_fract_z
 _atom_site_occupancy
  Na  Na0  1  0.99764837  0.98691523  0.49648405  1
  Na  Na1  1  0.49747337  0.99192760  0.00120351  1
  Na  Na2  1  0.33661272  0.33223096  0.83819695  1
  Na  Na3  1  0.83633477  0.33704821  0.83202815  1
  Na  Na4  1  0.33825662  0.33299773  0.32950482  1
  Na  Na5  1  0.83994606  0.34003119  0.33865321  1
  Ca  Ca6  1  0.00399598  0.99652977  0.35837636  1
  Ca  Ca7  1  0.00192019  0.00283219  0.86337472  1
  Ca  Ca8  1  0.33325616  0.33675867  0.68370604  1
  Ca  Ca9  1  0.83524806  0.33151618  0.68278791  1
  Ca  Ca10  1  0.33939590  0.33756204  0.18348674  1
  Ca  Ca11  1  0.83111156  0.32759699  0.18147113  1
  Ca  Ca12  1  0.33929236  0.33566822  0.98417618  1
  Ca  Ca13  1  0.83116657  0.33075900  0.98548103  1
  Ca  Ca14  1  0.33593795  0.33562010  0.48191191  1
  Ca  Ca15  1  0.83435956  0.33633892  0.48021445  1
  Ca  Ca16  1  0.66254992  0.66009254  0.51950951  1
  Ca  Ca17  1  0.16470201  0.66295260  0.80371295  1
  Ti  Ti18  1  0.49616527  0.00634677  0.35474110  1
  Ti  Ti19  1  0.49968888  0.00826552  0.85648146  1
  Ti  Ti20  1  0.99759375  0.99415470  0.65159711  1
  Ti  Ti21  1  0.49825187  0.99740343  0.64428089  1
  Ti  Ti22  1  0.99957638  0.00232173  0.14904608  1
  Ti  Ti23  1  0.49911240  0.01017135  0.15614245  1
  Ti  Ti24  1  0.16455804  0.66859169  0.01881836  1
  Ti  Ti25  1  0.65836155  0.64481396  0.01705347  1
  Ti  Ti26  1  0.16094886  0.66497965  0.51959852  1
  Ti  Ti27  1  0.15762103  0.66432552  0.31247864  1
  Ti  Ti28  1  0.66560094  0.66334679  0.30888803  1
  Ti  Ti29  1  0.66173561  0.65760185  0.81103154  1
  Si  Si30  1  0.50157090  0.29282974  0.25534102  1
  Si  Si31  1  0.52319231  0.37794477  0.91203735  1
  Si  Si32  1  0.02201747  0.66507847  0.41762043  1
  S  S33  1  0.14328994  0.98999305  0.24922265  1
  S  S34  1  0.63787000  0.99142995  0.25404376  1
  S  S35  1  0.35664423  0.72378452  0.25381656  1
  S  S36  1  0.85212648  0.71501795  0.24998442  1
  S  S37  1  0.00558830  0.29672623  0.25058113  1
  S  S38  1  0.14175697  0.27958675  0.74830628  1
  S  S39  1  0.63916431  0.28592190  0.75360223  1
  S  S40  1  0.99793566  0.71387419  0.74944094  1
  S  S41  1  0.50517688  0.72630407  0.75461951  1
  S  S42  1  0.36613490  0.00532068  0.75088642  1
  S  S43  1  0.85157073  0.98873989  0.75214024  1
  S  S44  1  0.48267675  0.32154636  0.58671393  1
  S  S45  1  0.98999614  0.32925967  0.58315705  1
  S  S46  1  0.17724068  0.02353286  0.58332157  1
  S  S47  1  0.67698183  0.03191819  0.58642196  1
  S  S48  1  0.33273166  0.64296446  0.58334425  1
  S  S49  1  0.84015683  0.64895227  0.58654855  1
  S  S50  1  0.49249259  0.65389002  0.08253843  1
  S  S51  1  0.98948096  0.64891350  0.08368141  1
  S  S52  1  0.33463626  0.01636590  0.08339826  1
  S  S53  1  0.83253775  0.01626887  0.08350379  1
  S  S54  1  0.17650926  0.33341790  0.08393979  1
  S  S55  1  0.67394980  0.32787917  0.08302473  1
  S  S56  1  0.31451562  0.67660934  0.91575757  1
  S  S57  1  0.80027060  0.66205625  0.91557030  1
  S  S58  1  0.02399363  0.38692436  0.91921786  1
  S  S59  1  0.16785982  0.94959102  0.91900385  1
  S  S60  1  0.66271508  0.94260235  0.91252070  1
  S  S61  1  0.30855599  0.94340187  0.41218385  1
  S  S62  1  0.80622242  0.95094777  0.41239306  1
  S  S63  1  0.17008970  0.39892606  0.41624409  1
  S  S64  1  0.66181246  0.36992643  0.40958952  1
  S  S65  1  0.52274367  0.67445449  0.40810847  1
  O  O66  1  0.10758859  0.01781838  0.30149334  1
  O  O67  1  0.59284887  0.01024783  0.30429085  1
  O  O68  1  0.41260246  0.81015373  0.30455890  1
  O  O69  1  0.90392884  0.78693178  0.30143866  1
  O  O70  1  0.49270196  0.16026767  0.30790350  1
  O  O71  1  0.99210192  0.19453135  0.30210877  1
  O  O72  1  0.10237096  0.18592763  0.80163876  1
  O  O73  1  0.59279756  0.17511063  0.80519877  1
  O  O74  1  0.49627379  0.81817063  0.80568085  1
  O  O75  1  0.99083927  0.79559283  0.80209469  1
  O  O76  1  0.41712943  0.01366793  0.80497652  1
  O  O77  1  0.90462155  0.01694695  0.80333803  1
  O  O78  1  0.41386730  0.99584671  0.69975921  1
  O  O79  1  0.89620562  0.97338759  0.69864775  1
  O  O80  1  0.08657127  0.17230548  0.69694879  1
  O  O81  1  0.58906756  0.20775027  0.70071296  1
  O  O82  1  0.99678062  0.81842260  0.69696080  1
  O  O83  1  0.51590143  0.82683632  0.70120712  1
  O  O84  1  0.40239094  0.83047464  0.20024966  1
  O  O85  1  0.89852223  0.82750596  0.19796137  1
  O  O86  1  0.01450568  0.20362726  0.19844207  1
  O  O87  1  0.51291198  0.18984341  0.19702524  1
  O  O88  1  0.08579392  0.96816874  0.19808629  1
  O  O89  1  0.58538803  0.96932936  0.19989859  1
  O  O90  1  0.44168023  0.34857112  0.63680393  1
  O  O91  1  0.95654029  0.37117156  0.63396866  1
  O  O92  1  0.23141043  0.09459762  0.63432753  1
  O  O93  1  0.73071433  0.11360960  0.63670826  1
  O  O94  1  0.31253472  0.53230023  0.63394061  1
  O  O95  1  0.82914906  0.54332467  0.63727449  1
  O  O96  1  0.45889502  0.54146540  0.13302506  1
  O  O97  1  0.95504510  0.53373354  0.13328726  1
  O  O98  1  0.31444970  0.08835570  0.13329301  1
  O  O99  1  0.81037395  0.08540182  0.13381183  1
  O  O100  1  0.23353177  0.38072293  0.13404062  1
  O  O101  1  0.72836029  0.36388223  0.13366959  1
  O  O102  1  0.20925985  0.28461749  0.03407320  1
  O  O103  1  0.70916857  0.29015813  0.03165003  1
  O  O104  1  0.43615508  0.58337616  0.03205842  1
  O  O105  1  0.93292743  0.58132301  0.03332267  1
  O  O106  1  0.35883497  0.12868310  0.03245686  1
  O  O107  1  0.85774444  0.13445192  0.03413716  1
  O  O108  1  0.21295919  0.13517067  0.53238127  1
  O  O109  1  0.70961334  0.13990439  0.53472783  1
  O  O110  1  0.35647498  0.57600979  0.53340379  1
  O  O111  1  0.86148487  0.58270837  0.53459771  1
  O  O112  1  0.42927714  0.28140426  0.53455665  1
  O  O113  1  0.93409351  0.28844225  0.53248205  1
  O  O114  1  0.27291322  0.69816396  0.96851578  1
  O  O115  1  0.75408495  0.67220346  0.96858406  1
  O  O116  1  0.07926470  0.49403039  0.97098423  1
  O  O117  1  0.58118971  0.47375846  0.97131384  1
  O  O118  1  0.16869067  0.84310232  0.97153079  1
  O  O119  1  0.65246194  0.84088196  0.96571662  1
  O  O120  1  0.27095679  0.84647303  0.46594720  1
  O  O121  1  0.76718109  0.85900980  0.46588042  1
  O  O122  1  0.17158940  0.49534556  0.46929196  1
  O  O123  1  0.64561918  0.43108805  0.46342991  1
  O  O124  1  0.08414154  0.66358948  0.47275639  1
  O  O125  1  0.56733729  0.70158381  0.46252385  1
  O  O126  1  0.07960099  0.66193849  0.35787412  1
  O  O127  1  0.57337052  0.65638926  0.35911975  1
  O  O128  1  0.25511334  0.85288332  0.36044706  1
  O  O129  1  0.75406453  0.84456721  0.36049777  1
  O  O130  1  0.17419761  0.49716433  0.36209163  1
  O  O131  1  0.67099489  0.48677222  0.36034713  1
  O  O132  1  0.06336112  0.48067246  0.86613042  1
  O  O133  1  0.57994781  0.50308097  0.85722323  1
  O  O134  1  0.17653481  0.87075153  0.86631807  1
  O  O135  1  0.67246635  0.85697582  0.86028041  1
  O  O136  1  0.26623683  0.65856619  0.86327096  1
  O  O137  1  0.75104393  0.65682530  0.86228792  1
  O  O138  1  0.02516174  0.84552049  0.42436530  1
  O  O139  1  0.51273825  0.82878908  0.39655206  1
  O  O140  1  0.39594463  0.95659717  0.40469679  1
  O  O141  1  0.89409805  0.97702631  0.40942867  1
  O  O142  1  0.08935408  0.23271138  0.41736347  1
  O  O143  1  0.58386813  0.19093115  0.40009927  1
  O  O144  1  0.02186765  0.22162554  0.92338157  1
  O  O145  1  0.52097071  0.18821238  0.90472339  1
  O  O146  1  0.08571435  0.94723066  0.92316130  1
  O  O147  1  0.58166721  0.95522264  0.90726014  1
  O  O148  1  0.40406253  0.84335642  0.91128701  1
  O  O149  1  0.88452765  0.81843053  0.91553959  1
  O  O150  1  0.49062749  0.16026987  0.59883918  1
  O  O151  1  0.00254294  0.17672652  0.59487296  1
  O  O152  1  0.08758564  0.99361682  0.59397353  1
  O  O153  1  0.58808134  0.01621640  0.60047239  1
  O  O154  1  0.41136512  0.81876650  0.59856670  1
  O  O155  1  0.91987315  0.83078225  0.59662255  1
  O  O156  1  0.50669812  0.83115849  0.09407831  1
  O  O157  1  0.00256029  0.82559877  0.09839500  1
  O  O158  1  0.41070745  0.98804423  0.09611472  1
  O  O159  1  0.91065183  0.99662433  0.09946401  1
  O  O160  1  0.08766061  0.18166645  0.09988972  1
  O  O161  1  0.58486164  0.17500862  0.09304691  1
  O  O162  1  0.36156271  0.16421701  0.75061918  1
  O  O163  1  0.83668483  0.13603332  0.74532548  1
  O  O164  1  0.22829075  0.29852070  0.74351481  1
  O  O165  1  0.72511943  0.30441908  0.75304990  1
  O  O166  1  0.42872278  0.55293614  0.75228338  1
  O  O167  1  0.92201107  0.53863239  0.74587175  1
  O  O168  1  0.34836773  0.55290693  0.24827399  1
  O  O169  1  0.83582640  0.53811128  0.24032902  1
  O  O170  1  0.41836934  0.31151044  0.25274523  1
  O  O171  1  0.93333015  0.32883713  0.24153324  1
  O  O172  1  0.23027306  0.13755784  0.23987913  1
  O  O173  1  0.72369972  0.14483437  0.24906791  1
  O  O174  1  0.32900659  0.52938188  0.92228572  1
  O  O175  1  0.80392968  0.50103865  0.91705723  1
  O  O176  1  0.42999905  0.35630963  0.91281707  1
  O  O177  1  0.93720822  0.36745236  0.92469233  1
  O  O178  1  0.24283573  0.12403064  0.92513369  1
  O  O179  1  0.73881561  0.11679856  0.91582034  1
  O  O180  1  0.31971899  0.11821792  0.41417382  1
  O  O181  1  0.80661448  0.11673714  0.40922168  1
  O  O182  1  0.24771561  0.38105963  0.41610685  1
  O  O183  1  0.73898855  0.35212876  0.40978926  1
  O  O184  1  0.43631694  0.51653231  0.40801046  1
  O  O185  1  0.93246022  0.48810328  0.41302237  1
  O  O186  1  0.16171349  0.48115093  0.06865089  1
  O  O187  1  0.66391396  0.48438481  0.07198678  1
  O  O188  1  0.07849955  0.67662786  0.06980477  1
  O  O189  1  0.58033075  0.67408983  0.06807699  1
  O  O190  1  0.25921676  0.84070171  0.07008110  1
  O  O191  1  0.75999281  0.84179740  0.06851182  1
  O  O192  1  0.16774622  0.84822325  0.57050352  1
  O  O193  1  0.65857799  0.85498835  0.57940461  1
  O  O194  1  0.26109413  0.67612181  0.57031620  1
  O  O195  1  0.76768778  0.67821642  0.57917958  1
  O  O196  1  0.07977574  0.48026178  0.57041113  1
  O  O197  1  0.57009371  0.46321868  0.58006545  1
  O  O198  1  0.14851120  0.82628485  0.25450527  1
  O  O199  1  0.64469139  0.83195678  0.25966008  1
  O  O200  1  0.27320648  0.71732405  0.25894420  1
  O  O201  1  0.76683300  0.71048645  0.25539093  1
  O  O202  1  0.08907698  0.46889930  0.25576844  1
  O  O203  1  0.59176621  0.47933315  0.26501448  1
  O  O204  1  0.14409889  0.44482200  0.74388750  1
  O  O205  1  0.64667567  0.46100603  0.76078639  1
  O  O206  1  0.07906387  0.71321890  0.74446770  1
  O  O207  1  0.58563209  0.71350888  0.76205881  1
  O  O208  1  0.28268042  0.84745313  0.75191318  1
  O  O209  1  0.76601010  0.82414384  0.75787715  1
