# generated using pymatgen
data_HfScP(SO6)2
_symmetry_space_group_name_H-M   'P 1'
_cell_length_a   8.88392355
_cell_length_b   8.87582194
_cell_length_c   22.87978501
_cell_angle_alpha   90.06923847
_cell_angle_beta   90.00000000
_cell_angle_gamma   120.03019892
_symmetry_Int_Tables_number   1
_chemical_formula_structural   HfScP(SO6)2
_chemical_formula_sum   'Hf6 Sc6 P6 S12 O72'
_cell_volume   1561.93624720
_cell_formula_units_Z   6
loop_
 _symmetry_equiv_pos_site_id
 _symmetry_equiv_pos_as_xyz
  1  'x, y, z'
loop_
 _atom_site_type_symbol
 _atom_site_label
 _atom_site_symmetry_multiplicity
 _atom_site_fract_x
 _atom_site_fract_y
 _atom_site_fract_z
 _atom_site_occupancy
  Hf  Hf0  1  0.00181456  0.99951220  0.64415640  1
  Hf  Hf1  1  0.99769764  0.99951220  0.14415640  1
  Hf  Hf2  1  0.66405288  0.33162850  0.97751184  1
  Hf  Hf3  1  0.66757662  0.33162850  0.47751184  1
  Hf  Hf4  1  0.34102808  0.66047049  0.31086423  1
  Hf  Hf5  1  0.31944140  0.66047049  0.81086423  1
  Sc  Sc6  1  0.99962069  0.99803660  0.35516457  1
  Sc  Sc7  1  0.99841591  0.99803660  0.85516457  1
  Sc  Sc8  1  0.68233340  0.34137760  0.68850366  1
  Sc  Sc9  1  0.65904520  0.34137760  0.18850366  1
  Sc  Sc10  1  0.32763673  0.65120979  0.02184610  1
  Sc  Sc11  1  0.32357205  0.65120979  0.52184610  1
  P  P12  1  0.71562800  0.71287879  0.25043361  1
  P  P13  1  0.99725080  0.71287879  0.75043361  1
  P  P14  1  0.95535871  0.33334394  0.58347681  1
  P  P15  1  0.37798623  0.33334394  0.08347681  1
  P  P16  1  0.04311998  0.37405527  0.91718126  1
  P  P17  1  0.33093430  0.37405527  0.41718126  1
  S  S18  1  0.28961895  -0.00023337  0.25047867  1
  S  S19  1  0.99662445  0.28810618  0.25026400  1
  S  S20  1  0.29148173  0.28810618  0.75026400  1
  S  S21  1  0.71014768  -0.00023337  0.75047867  1
  S  S22  1  0.37946804  0.04310232  0.58387055  1
  S  S23  1  0.66483701  0.62153429  0.58370155  1
  S  S24  1  0.95669829  0.62153429  0.08370155  1
  S  S25  1  0.66363528  0.04310232  0.08387055  1
  S  S26  1  0.62261509  0.66840464  0.91671697  1
  S  S27  1  0.33153200  0.95391395  0.91732802  1
  S  S28  1  0.62238095  0.95391395  0.41732802  1
  S  S29  1  0.04578855  0.66840464  0.41671697  1
  O  O30  1  0.21007238  0.02941020  0.30220918  1
  O  O31  1  0.82647588  0.79921737  0.30442322  1
  O  O32  1  0.97201955  0.18168806  0.30216408  1
  O  O33  1  0.20966851  0.18168806  0.80216408  1
  O  O34  1  0.97274149  0.79921737  0.80442322  1
  O  O35  1  0.81933782  0.02941020  0.80220918  1
  O  O36  1  0.79187326  0.97021276  0.69766390  1
  O  O37  1  0.17809676  0.20918350  0.69761394  1
  O  O38  1  0.02923981  0.82928498  0.69568412  1
  O  O39  1  0.80004517  0.82928498  0.19568412  1
  O  O40  1  0.03108674  0.20918350  0.19761394  1
  O  O41  1  0.17833950  0.97021276  0.19766390  1
  O  O42  1  0.86922716  0.36083444  0.63711958  1
  O  O43  1  0.48479141  0.12507282  0.63587400  1
  O  O44  1  0.63614646  0.51375947  0.63552803  1
  O  O45  1  0.87761401  0.51375947  0.13552803  1
  O  O46  1  0.64028241  0.12507282  0.13587400  1
  O  O47  1  0.49160828  0.36083444  0.13711958  1
  O  O48  1  0.46570345  0.30346298  0.02907447  1
  O  O49  1  0.84506320  0.54192111  0.03101351  1
  O  O50  1  0.69719435  0.15544012  0.03092903  1
  O  O51  1  0.45824677  0.15544012  0.53092903  1
  O  O52  1  0.69685891  0.54192111  0.53101351  1
  O  O53  1  0.83776052  0.30346298  0.52907447  1
  O  O54  1  0.54390418  0.69668621  0.96890088  1
  O  O55  1  0.15788084  0.46333070  0.97037121  1
  O  O56  1  0.30646069  0.84825192  0.96924173  1
  O  O57  1  0.54179023  0.84825192  0.46924173  1
  O  O58  1  0.30544886  0.46333070  0.47037121  1
  O  O59  1  0.15278103  0.69668621  0.46890088  1
  O  O60  1  0.12498867  0.63739635  0.36407840  1
  O  O61  1  0.51087531  0.87586053  0.36429818  1
  O  O62  1  0.36297318  0.49424181  0.36283904  1
  O  O63  1  0.13126763  0.49424181  0.86283904  1
  O  O64  1  0.36498422  0.87586053  0.86429818  1
  O  O65  1  0.51240668  0.63739635  0.86407840  1
  O  O66  1  0.02350069  0.81946839  0.40836706  1
  O  O67  1  0.79526229  0.97678843  0.40804416  1
  O  O68  1  0.17349484  0.19616388  0.40581887  1
  O  O69  1  0.02266904  0.19616388  0.90581887  1
  O  O70  1  0.18152614  0.97678843  0.90804416  1
  O  O71  1  0.79596770  0.81946839  0.90836706  1
  O  O72  1  0.97454727  0.17093827  0.59395818  1
  O  O73  1  0.20415390  0.02698932  0.59162020  1
  O  O74  1  0.82302183  0.79641861  0.59182415  1
  O  O75  1  0.97339678  0.79641861  0.09182415  1
  O  O76  1  0.82283542  0.02698932  0.09162020  1
  O  O77  1  0.19639100  0.17093827  0.09395818  1
  O  O78  1  0.68814075  0.15084706  0.74138370  1
  O  O79  1  0.46275153  0.30859986  0.74056823  1
  O  O80  1  0.84096377  0.53240536  0.74080717  1
  O  O81  1  0.69144259  0.53240536  0.24080717  1
  O  O82  1  0.84584933  0.30859986  0.24056823  1
  O  O83  1  0.46270731  0.15084706  0.24138370  1
  O  O84  1  0.64075314  0.51098751  0.92532090  1
  O  O85  1  0.86304305  0.35870503  0.92736979  1
  O  O86  1  0.48990761  0.12963820  0.92486874  1
  O  O87  1  0.63973158  0.12963820  0.42486874  1
  O  O88  1  0.49566298  0.35870503  0.42736979  1
  O  O89  1  0.87023536  0.51098751  0.42532090  1
  O  O90  1  0.35805620  0.49238615  0.07405077  1
  O  O91  1  0.13016493  0.64566045  0.07468833  1
  O  O92  1  0.51333569  0.87109136  0.07387776  1
  O  O93  1  0.35775467  0.87109136  0.57387776  1
  O  O94  1  0.51549452  0.64566045  0.57468833  1
  O  O95  1  0.13432895  0.49238615  0.57405077  1
  O  O96  1  0.30548828  0.84225546  0.25914797  1
  O  O97  1  0.53264151  0.69435425  0.25923196  1
  O  O98  1  0.15464475  0.46370588  0.25852734  1
  O  O99  1  0.30906013  0.46370588  0.75852734  1
  O  O100  1  0.16171174  0.69435425  0.75923196  1
  O  O101  1  0.53676618  0.84225546  0.75914797  1
