# generated using pymatgen
data_MgCo2(HO2)2
_symmetry_space_group_name_H-M   'P 1'
_cell_length_a   3.27377532
_cell_length_b   3.30205756
_cell_length_c   9.98837362
_cell_angle_alpha   90.00000000
_cell_angle_beta   90.00000000
_cell_angle_gamma   119.47738089
_symmetry_Int_Tables_number   1
_chemical_formula_structural   MgCo2(HO2)2
_chemical_formula_sum   'Mg1 Co2 H2 O4'
_cell_volume   93.99873789
_cell_formula_units_Z   1
loop_
 _symmetry_equiv_pos_site_id
 _symmetry_equiv_pos_as_xyz
  1  'x, y, z'
loop_
 _atom_site_type_symbol
 _atom_site_label
 _atom_site_symmetry_multiplicity
 _atom_site_fract_x
 _atom_site_fract_y
 _atom_site_fract_z
 _atom_site_occupancy
  Mg  Mg0  1  0.83133119  0.18065294  0.25000000  1
  Co  Co1  1  0.13754004  0.86667444  0.56349765  1
  Co  Co2  1  0.13754004  0.86667444  0.93650235  1
  H  H3  1  0.16105616  0.84181567  0.25000000  1
  H  H4  1  0.80618882  0.20591142  0.75000000  1
  O  O5  1  0.16800023  0.84532743  0.36578727  1
  O  O6  1  0.80558814  0.20505811  0.62737490  1
  O  O7  1  0.80558814  0.20505811  0.87262510  1
  O  O8  1  0.16800023  0.84532743  0.13421273  1
