# generated using pymatgen
data_Tl2CS3
_symmetry_space_group_name_H-M   'P 1'
_cell_length_a   6.60477599
_cell_length_b   6.60477599
_cell_length_c   9.51732305
_cell_angle_alpha   70.67824715
_cell_angle_beta   70.67824715
_cell_angle_gamma   82.73746045
_symmetry_Int_Tables_number   1
_chemical_formula_structural   Tl2CS3
_chemical_formula_sum   'Tl4 C2 S6'
_cell_volume   369.65593250
_cell_formula_units_Z   2
loop_
 _symmetry_equiv_pos_site_id
 _symmetry_equiv_pos_as_xyz
  1  'x, y, z'
loop_
 _atom_site_type_symbol
 _atom_site_label
 _atom_site_symmetry_multiplicity
 _atom_site_fract_x
 _atom_site_fract_y
 _atom_site_fract_z
 _atom_site_occupancy
  Tl  Tl0  1  0.61478470  0.10405571  0.62370447  1
  Tl  Tl1  1  0.38521530  0.89594429  0.37629553  1
  Tl  Tl2  1  0.10405571  0.61478470  0.12370447  1
  Tl  Tl3  1  0.89594429  0.38521530  0.87629553  1
  C  C4  1  0.91662957  0.08337043  0.25000000  1
  C  C5  1  0.08337043  0.91662957  0.75000000  1
  S  S6  1  0.15344497  0.12476852  0.09854911  1
  S  S7  1  0.71902230  0.28097770  0.25000000  1
  S  S8  1  0.84655503  0.87523148  0.90145089  1
  S  S9  1  0.87523148  0.84655503  0.40145089  1
  S  S10  1  0.12476852  0.15344497  0.59854911  1
  S  S11  1  0.28097770  0.71902230  0.75000000  1
