# generated using pymatgen
data_Na3TiAlSi(PO6)2
_symmetry_space_group_name_H-M   'P 1'
_cell_length_a   15.18658696
_cell_length_b   8.76060365
_cell_length_c   8.79412754
_cell_angle_alpha   90.00000000
_cell_angle_beta   124.83968176
_cell_angle_gamma   90.00000000
_symmetry_Int_Tables_number   1
_chemical_formula_structural   Na3TiAlSi(PO6)2
_chemical_formula_sum   'Na12 Ti4 Al4 Si4 P8 O48'
_cell_volume   960.28434395
_cell_formula_units_Z   4
loop_
 _symmetry_equiv_pos_site_id
 _symmetry_equiv_pos_as_xyz
  1  'x, y, z'
loop_
 _atom_site_type_symbol
 _atom_site_label
 _atom_site_symmetry_multiplicity
 _atom_site_fract_x
 _atom_site_fract_y
 _atom_site_fract_z
 _atom_site_occupancy
  Na  Na0  1  0.25182815  0.72387404  0.99712911  1
  Na  Na1  1  0.75182815  0.77612596  0.49712911  1
  Na  Na2  1  0.75182815  0.22387404  0.99712911  1
  Na  Na3  1  0.25182815  0.27612596  0.49712911  1
  Na  Na4  1  0.50120581  0.11264353  0.75534219  1
  Na  Na5  1  0.50120581  0.88735647  0.25534219  1
  Na  Na6  1  0.00120581  0.61264353  0.75534219  1
  Na  Na7  1  0.00120581  0.38735647  0.25534219  1
  Na  Na8  1  0.19132891  0.93413419  0.28089557  1
  Na  Na9  1  0.19132891  0.06586581  0.78089557  1
  Na  Na10  1  0.69132891  0.43413419  0.28089557  1
  Na  Na11  1  0.69132891  0.56586581  0.78089557  1
  Ti  Ti12  1  0.89587699  0.75753247  0.93885325  1
  Ti  Ti13  1  0.89587699  0.24246753  0.43885325  1
  Ti  Ti14  1  0.39587699  0.25753247  0.93885325  1
  Ti  Ti15  1  0.39587699  0.74246753  0.43885325  1
  Al  Al16  1  0.10557544  0.74135308  0.56344408  1
  Al  Al17  1  0.10557544  0.25864692  0.06344408  1
  Al  Al18  1  0.60557544  0.24135308  0.56344408  1
  Al  Al19  1  0.60557544  0.75864692  0.06344408  1
  Si  Si20  1  0.64359951  0.89909698  0.74822390  1
  Si  Si21  1  0.64359951  0.10090302  0.24822390  1
  Si  Si22  1  0.14359951  0.39909698  0.74822390  1
  Si  Si23  1  0.14359951  0.60090302  0.24822390  1
  P  P24  1  0.00288784  0.96182653  0.75826472  1
  P  P25  1  0.00288784  0.03817347  0.25826472  1
  P  P26  1  0.50288784  0.46182653  0.75826472  1
  P  P27  1  0.50288784  0.53817347  0.25826472  1
  P  P28  1  0.35359185  0.88554168  0.75788010  1
  P  P29  1  0.35359185  0.11445832  0.25788010  1
  P  P30  1  0.85359185  0.38554168  0.75788010  1
  P  P31  1  0.85359185  0.61445832  0.25788010  1
  O  O32  1  0.14416127  0.58339030  0.73278475  1
  O  O33  1  0.84720620  0.56434961  0.76106017  1
  O  O34  1  0.84720620  0.43565039  0.26106017  1
  O  O35  1  0.14416127  0.41660970  0.23278475  1
  O  O36  1  0.64416127  0.08339030  0.73278475  1
  O  O37  1  0.34720620  0.06434961  0.76106017  1
  O  O38  1  0.34720620  0.93565039  0.26106017  1
  O  O39  1  0.64416127  0.91660970  0.23278475  1
  O  O40  1  0.43672942  0.56584241  0.58406737  1
  O  O41  1  0.56957461  0.56032808  0.93414499  1
  O  O42  1  0.56957461  0.43967192  0.43414499  1
  O  O43  1  0.43672942  0.43415759  0.08406737  1
  O  O44  1  0.93672942  0.06584241  0.58406737  1
  O  O45  1  0.06957461  0.06032808  0.93414499  1
  O  O46  1  0.06957461  0.93967192  0.43414499  1
  O  O47  1  0.93672942  0.93415759  0.08406737  1
  O  O48  1  0.25238895  0.82419236  0.73868708  1
  O  O49  1  0.74513862  0.81420018  0.76269960  1
  O  O50  1  0.74513862  0.18579982  0.26269960  1
  O  O51  1  0.25238895  0.17580764  0.23868708  1
  O  O52  1  0.75238895  0.32419236  0.73868708  1
  O  O53  1  0.24513862  0.31420018  0.76269960  1
  O  O54  1  0.24513862  0.68579982  0.26269960  1
  O  O55  1  0.75238895  0.67580764  0.23868708  1
  O  O56  1  0.35376339  0.85404167  0.58306275  1
  O  O57  1  0.63513024  0.85293275  0.91685352  1
  O  O58  1  0.63513024  0.14706725  0.41685352  1
  O  O59  1  0.35376339  0.14595833  0.08306275  1
  O  O60  1  0.85376339  0.35404167  0.58306275  1
  O  O61  1  0.13513024  0.35293275  0.91685352  1
  O  O62  1  0.13513024  0.64706725  0.41685352  1
  O  O63  1  0.85376339  0.64595833  0.08306275  1
  O  O64  1  0.45490456  0.82216232  0.93364916  1
  O  O65  1  0.53381227  0.82700350  0.55656452  1
  O  O66  1  0.53381227  0.17299650  0.05656452  1
  O  O67  1  0.45490456  0.17783768  0.43364916  1
  O  O68  1  0.95490456  0.32216232  0.93364916  1
  O  O69  1  0.03381227  0.32700350  0.55656452  1
  O  O70  1  0.03381227  0.67299650  0.05656452  1
  O  O71  1  0.95490456  0.67783768  0.43364916  1
  O  O72  1  0.08095343  0.86165831  0.74090615  1
  O  O73  1  0.92034253  0.85523366  0.75548700  1
  O  O74  1  0.92034253  0.14476634  0.25548700  1
  O  O75  1  0.08095343  0.13834169  0.24090615  1
  O  O76  1  0.58095343  0.36165831  0.74090615  1
  O  O77  1  0.42034253  0.35523366  0.75548700  1
  O  O78  1  0.42034253  0.64476634  0.25548700  1
  O  O79  1  0.58095343  0.63834169  0.24090615  1
