# generated using pymatgen
data_Hg(AuF4)2
_symmetry_space_group_name_H-M   'P 1'
_cell_length_a   5.75104176
_cell_length_b   5.75104176
_cell_length_c   10.46000474
_cell_angle_alpha   90.00000000
_cell_angle_beta   90.00000000
_cell_angle_gamma   90.00000000
_symmetry_Int_Tables_number   1
_chemical_formula_structural   Hg(AuF4)2
_chemical_formula_sum   'Hg2 Au4 F16'
_cell_volume   345.95923144
_cell_formula_units_Z   2
loop_
 _symmetry_equiv_pos_site_id
 _symmetry_equiv_pos_as_xyz
  1  'x, y, z'
loop_
 _atom_site_type_symbol
 _atom_site_label
 _atom_site_symmetry_multiplicity
 _atom_site_fract_x
 _atom_site_fract_y
 _atom_site_fract_z
 _atom_site_occupancy
  Hg  Hg0  1  0.00000000  0.00000000  0.75000000  1
  Hg  Hg1  1  0.00000000  0.00000000  0.25000000  1
  Au  Au2  1  0.50000000  0.00000000  0.50000000  1
  Au  Au3  1  0.00000000  0.50000000  0.50000000  1
  Au  Au4  1  0.50000000  0.00000000  -0.00000000  1
  Au  Au5  1  0.00000000  0.50000000  -0.00000000  1
  F  F6  1  0.68639872  0.84289827  0.62882907  1
  F  F7  1  0.31360128  0.15710173  0.62882907  1
  F  F8  1  0.84289827  0.68639872  0.87117093  1
  F  F9  1  0.84289827  0.31360128  0.62882907  1
  F  F10  1  0.15710173  0.68639872  0.62882907  1
  F  F11  1  0.31360128  0.84289827  0.87117093  1
  F  F12  1  0.84289827  0.68639872  0.12882907  1
  F  F13  1  0.31360128  0.84289827  0.12882907  1
  F  F14  1  0.68639872  0.15710173  0.12882907  1
  F  F15  1  0.84289827  0.31360128  0.37117093  1
  F  F16  1  0.15710173  0.68639872  0.37117093  1
  F  F17  1  0.15710173  0.31360128  0.12882907  1
  F  F18  1  0.68639872  0.84289827  0.37117093  1
  F  F19  1  0.31360128  0.15710173  0.37117093  1
  F  F20  1  0.15710173  0.31360128  0.87117093  1
  F  F21  1  0.68639872  0.15710173  0.87117093  1
