# generated using pymatgen
data_Na4HfMg3SiS5O24
_symmetry_space_group_name_H-M   'P 1'
_cell_length_a   8.84443287
_cell_length_b   8.85745296
_cell_length_c   22.63766820
_cell_angle_alpha   89.97478065
_cell_angle_beta   90.22925746
_cell_angle_gamma   120.09927846
_symmetry_Int_Tables_number   1
_chemical_formula_structural   Na4HfMg3SiS5O24
_chemical_formula_sum   'Na12 Hf3 Mg9 Si3 S15 O72'
_cell_volume   1534.26946390
_cell_formula_units_Z   3
loop_
 _symmetry_equiv_pos_site_id
 _symmetry_equiv_pos_as_xyz
  1  'x, y, z'
loop_
 _atom_site_type_symbol
 _atom_site_label
 _atom_site_symmetry_multiplicity
 _atom_site_fract_x
 _atom_site_fract_y
 _atom_site_fract_z
 _atom_site_occupancy
  Na  Na0  1  0.36246537  0.36285199  0.24981419  1
  Na  Na1  1  0.31691032  0.34469355  0.58810046  1
  Na  Na2  1  0.02195246  0.69722577  0.58283533  1
  Na  Na3  1  0.99078785  0.67674308  0.91779538  1
  Na  Na4  1  0.69923767  0.03087302  0.91119758  1
  Na  Na5  1  0.30888215  0.28725511  0.91821214  1
  Na  Na6  1  0.97113284  0.98331094  0.49891033  1
  Na  Na7  1  0.01563073  0.01311047  0.00168550  1
  Na  Na8  1  0.66648927  0.32339464  0.82593602  1
  Na  Na9  1  0.67946989  0.32858322  0.32853813  1
  Na  Na10  1  0.33095250  0.67757371  0.16601873  1
  Na  Na11  1  0.36534159  0.67808333  0.66199925  1
  Hf  Hf12  1  0.66736798  0.32615282  0.98453315  1
  Hf  Hf13  1  0.66985615  0.34318870  0.48003496  1
  Hf  Hf14  1  0.32453210  0.67042952  0.81434351  1
  Mg  Mg15  1  0.99510687  0.99642294  0.34944194  1
  Mg  Mg16  1  0.00603345  0.00748322  0.84935088  1
  Mg  Mg17  1  0.98367343  0.99176591  0.64886492  1
  Mg  Mg18  1  0.99754109  0.99645910  0.15065727  1
  Mg  Mg19  1  0.66181281  0.33751634  0.68406468  1
  Mg  Mg20  1  0.67357363  0.33281857  0.18480956  1
  Mg  Mg21  1  0.31805664  0.66095369  0.01881472  1
  Mg  Mg22  1  0.35049419  0.67484778  0.51548539  1
  Mg  Mg23  1  0.33477156  0.67635509  0.31554975  1
  Si  Si24  1  0.66473255  0.63412046  0.58628387  1
  Si  Si25  1  0.04239280  0.37017901  0.91913098  1
  Si  Si26  1  0.32885618  0.95779101  0.91893966  1
  S  S27  1  0.29191796  0.99941528  0.24980870  1
  S  S28  1  0.70529110  0.70541030  0.24990809  1
  S  S29  1  0.00011397  0.29243808  0.25034762  1
  S  S30  1  0.29663931  0.29283618  0.74908429  1
  S  S31  1  0.99504955  0.70525625  0.74927502  1
  S  S32  1  0.70705790  0.00306653  0.75007652  1
  S  S33  1  0.95806608  0.33244787  0.58441538  1
  S  S34  1  0.37680264  0.04025506  0.58463949  1
  S  S35  1  0.96186224  0.63131832  0.08619381  1
  S  S36  1  0.66683532  0.03303999  0.08620999  1
  S  S37  1  0.37057830  0.33603007  0.08652880  1
  S  S38  1  0.62229822  0.66705596  0.91823208  1
  S  S39  1  0.62887653  0.95912318  0.41526316  1
  S  S40  1  0.32646150  0.36925678  0.41544189  1
  S  S41  1  0.04626767  0.67108750  0.41689011  1
  O  O42  1  0.21088846  0.02980286  0.30247004  1
  O  O43  1  0.81074208  0.78626148  0.30331446  1
  O  O44  1  0.97574059  0.18661360  0.30363917  1
  O  O45  1  0.21053761  0.19383713  0.80317983  1
  O  O46  1  0.97870623  0.78791240  0.80367333  1
  O  O47  1  0.80284885  0.01877841  0.80577484  1
  O  O48  1  0.79325252  0.98170820  0.69842313  1
  O  O49  1  0.19128401  0.21222177  0.69527178  1
  O  O50  1  0.01963417  0.81030041  0.69611201  1
  O  O51  1  0.78599394  0.81018869  0.19672958  1
  O  O52  1  0.03002858  0.21131849  0.19761514  1
  O  O53  1  0.18628116  0.97582354  0.19629333  1
  O  O54  1  0.87437727  0.35570145  0.63635161  1
  O  O55  1  0.48579865  0.11502329  0.63691883  1
  O  O56  1  0.62684350  0.50086844  0.63985476  1
  O  O57  1  0.86691944  0.51846390  0.13584148  1
  O  O58  1  0.64535110  0.12588634  0.13582188  1
  O  O59  1  0.47797312  0.35148467  0.13862462  1
  O  O60  1  0.45931556  0.31565164  0.03140066  1
  O  O61  1  0.85800907  0.54784758  0.02940567  1
  O  O62  1  0.68921027  0.14096731  0.02953746  1
  O  O63  1  0.46400791  0.15047139  0.53089359  1
  O  O64  1  0.69535500  0.53151728  0.52722491  1
  O  O65  1  0.84655482  0.30103997  0.53018333  1
  O  O66  1  0.54901479  0.70051617  0.96991999  1
  O  O67  1  0.17343629  0.45011668  0.97340288  1
  O  O68  1  0.29980579  0.83773556  0.97447161  1
  O  O69  1  0.54795017  0.85836633  0.46921879  1
  O  O70  1  0.30800698  0.45178467  0.46948092  1
  O  O71  1  0.14219538  0.68814104  0.47265866  1
  O  O72  1  0.12911744  0.64507261  0.36546614  1
  O  O73  1  0.52151597  0.88051615  0.36258896  1
  O  O74  1  0.35726177  0.47617394  0.36220083  1
  O  O75  1  0.12860976  0.49981934  0.86054083  1
  O  O76  1  0.38224887  0.87898075  0.86053166  1
  O  O77  1  0.50974380  0.62899352  0.86425725  1
  O  O78  1  0.01909853  0.82184453  0.41108312  1
  O  O79  1  0.80598084  0.98166407  0.40990948  1
  O  O80  1  0.17371784  0.19238977  0.40973616  1
  O  O81  1  0.99782344  0.17200609  0.90801704  1
  O  O82  1  0.15960741  0.97875425  0.90794021  1
  O  O83  1  0.79931146  0.81616639  0.90742432  1
  O  O84  1  0.99023747  0.18438291  0.58902273  1
  O  O85  1  0.20660354  0.03682872  0.58922968  1
  O  O86  1  0.84796506  0.81885407  0.58734257  1
  O  O87  1  0.97541619  0.80422942  0.08936474  1
  O  O88  1  0.82860469  0.02406353  0.08950923  1
  O  O89  1  0.19686429  0.17604163  0.08855281  1
  O  O90  1  0.68416605  0.15676033  0.74487797  1
  O  O91  1  0.47066302  0.30856887  0.74615883  1
  O  O92  1  0.84457067  0.52686990  0.74510298  1
  O  O93  1  0.68053519  0.52472304  0.24433219  1
  O  O94  1  0.84514763  0.31400638  0.24342729  1
  O  O95  1  0.46842461  0.16220566  0.24402166  1
  O  O96  1  0.63904361  0.50658319  0.92466047  1
  O  O97  1  0.85200724  0.36612177  0.92554354  1
  O  O98  1  0.50216171  0.15862995  0.92444344  1
  O  O99  1  0.64812578  0.13854247  0.42191962  1
  O  O100  1  0.48824153  0.34933346  0.42218474  1
  O  O101  1  0.86605743  0.50520587  0.42114741  1
  O  O102  1  0.36023570  0.49546573  0.08075654  1
  O  O103  1  0.13413336  0.64501561  0.08171992  1
  O  O104  1  0.51152161  0.86056884  0.07894172  1
  O  O105  1  0.34009716  0.85976584  0.57537592  1
  O  O106  1  0.48753865  0.64321043  0.57660361  1
  O  O107  1  0.12887965  0.49617114  0.57584470  1
  O  O108  1  0.31358143  0.84513320  0.25637909  1
  O  O109  1  0.52444034  0.68015843  0.25560806  1
  O  O110  1  0.16236479  0.46843702  0.25665576  1
  O  O111  1  0.31880408  0.47346985  0.75420821  1
  O  O112  1  0.16049199  0.69198855  0.75330947  1
  O  O113  1  0.52943574  0.83897875  0.75335462  1
