# generated using pymatgen
data_Sr2MgFeCoO6
_symmetry_space_group_name_H-M   'P 1'
_cell_length_a   6.35191503
_cell_length_b   5.49550945
_cell_length_c   6.35194387
_cell_angle_alpha   64.36795273
_cell_angle_beta   51.55631656
_cell_angle_gamma   64.36849482
_symmetry_Int_Tables_number   1
_chemical_formula_structural   Sr2MgFeCoO6
_chemical_formula_sum   'Sr2 Mg1 Fe1 Co1 O6'
_cell_volume   152.31023124
_cell_formula_units_Z   1
loop_
 _symmetry_equiv_pos_site_id
 _symmetry_equiv_pos_as_xyz
  1  'x, y, z'
loop_
 _atom_site_type_symbol
 _atom_site_label
 _atom_site_symmetry_multiplicity
 _atom_site_fract_x
 _atom_site_fract_y
 _atom_site_fract_z
 _atom_site_occupancy
  Sr  Sr0  1  0.17930000  0.32070000  0.17930000  1
  Sr  Sr1  1  0.82070000  0.67930000  0.82070000  1
  Mg  Mg2  1  0.50000000  0.00000000  0.50000000  1
  Fe  Fe3  1  0.00000000  0.00000000  0.00000000  1
  Co  Co4  1  0.50000000  0.50000000  0.50000000  1
  O  O5  1  0.73966600  0.26181400  0.26033400  1
  O  O6  1  0.80163100  0.19836900  0.80163100  1
  O  O7  1  0.73966300  0.73819000  0.26033700  1
  O  O8  1  0.26033400  0.73818600  0.73966600  1
  O  O9  1  0.19836900  0.80163100  0.19836900  1
  O  O10  1  0.26033700  0.26181000  0.73966300  1
