# generated using pymatgen
data_Na6Nb5ZnSi6(PO12)3
_symmetry_space_group_name_H-M   'P 1'
_cell_length_a   8.97243761
_cell_length_b   8.97243731
_cell_length_c   22.63967217
_cell_angle_alpha   89.73027047
_cell_angle_beta   90.26972954
_cell_angle_gamma   119.99779173
_symmetry_Int_Tables_number   1
_chemical_formula_structural   Na6Nb5ZnSi6(PO12)3
_chemical_formula_sum   'Na12 Nb10 Zn2 Si12 P6 O72'
_cell_volume   1578.42842173
_cell_formula_units_Z   2
loop_
 _symmetry_equiv_pos_site_id
 _symmetry_equiv_pos_as_xyz
  1  'x, y, z'
loop_
 _atom_site_type_symbol
 _atom_site_label
 _atom_site_symmetry_multiplicity
 _atom_site_fract_x
 _atom_site_fract_y
 _atom_site_fract_z
 _atom_site_occupancy
  Na  Na0  1  0.38271369  0.37089724  0.24025053  1
  Na  Na1  1  0.98043655  0.61439108  0.24112117  1
  Na  Na2  1  0.62910276  0.61728631  0.74025053  1
  Na  Na3  1  0.38560892  0.01956345  0.74112117  1
  Na  Na4  1  0.65909486  0.97527890  0.58625544  1
  Na  Na5  1  0.02472110  0.34090514  0.08625544  1
  Na  Na6  1  0.01341782  0.99831871  0.49839980  1
  Na  Na7  1  0.00168129  0.98658218  0.99839980  1
  Na  Na8  1  0.68211242  0.32995868  0.82935603  1
  Na  Na9  1  0.67004132  0.31788758  0.32935603  1
  Na  Na10  1  0.35561747  0.69039140  0.16346736  1
  Na  Na11  1  0.30960860  0.64438253  0.66346736  1
  Nb  Nb12  1  0.99697455  0.00514482  0.35819540  1
  Nb  Nb13  1  0.99485518  0.00302545  0.85819540  1
  Nb  Nb14  1  0.99893419  0.99765826  0.64329289  1
  Nb  Nb15  1  0.00234174  0.00106581  0.14329289  1
  Nb  Nb16  1  0.66309538  0.33769330  0.97822324  1
  Nb  Nb17  1  0.66230670  0.33690462  0.47822324  1
  Nb  Nb18  1  0.33339530  0.66669230  0.01987957  1
  Nb  Nb19  1  0.33330770  0.66660470  0.51987957  1
  Nb  Nb20  1  0.33196967  0.66626605  0.31385089  1
  Nb  Nb21  1  0.33373395  0.66803033  0.81385089  1
  Zn  Zn22  1  0.67229756  0.32797010  0.68045998  1
  Zn  Zn23  1  0.67202990  0.32770244  0.18045998  1
  Si  Si24  1  0.99474555  0.28961440  0.24954274  1
  Si  Si25  1  0.71038560  0.00525445  0.74954274  1
  Si  Si26  1  0.37713297  0.04410853  0.58572785  1
  Si  Si27  1  0.66242223  0.61609477  0.58758863  1
  Si  Si28  1  0.95589147  0.62286703  0.08572785  1
  Si  Si29  1  0.38390523  0.33757777  0.08758863  1
  Si  Si30  1  0.62098686  0.66499531  0.91634803  1
  Si  Si31  1  0.04194280  0.37916723  0.91751190  1
  Si  Si32  1  0.33535500  0.95741411  0.91599295  1
  Si  Si33  1  0.62083277  0.95805720  0.41751190  1
  Si  Si34  1  0.33500469  0.37901314  0.41634803  1
  Si  Si35  1  0.04258589  0.66464500  0.41599295  1
  P  P36  1  0.28435132  0.99776274  0.25141963  1
  P  P37  1  0.71154931  0.71930431  0.25136923  1
  P  P38  1  0.28069569  0.28845069  0.75136923  1
  P  P39  1  0.00223726  0.71564868  0.75141963  1
  P  P40  1  0.95716590  0.33727597  0.58441147  1
  P  P41  1  0.66272403  0.04283410  0.08441147  1
  O  O42  1  0.18537489  0.00884698  0.30527808  1
  O  O43  1  0.82312535  0.81370468  0.30564597  1
  O  O44  1  0.98944444  0.17105198  0.30614600  1
  O  O45  1  0.18629532  0.17687465  0.80564597  1
  O  O46  1  0.99115302  0.81462511  0.80527808  1
  O  O47  1  0.82894802  0.01055556  0.80614600  1
  O  O48  1  0.80346541  0.97474720  0.69118654  1
  O  O49  1  0.17235922  0.19586943  0.69561276  1
  O  O50  1  0.02905495  0.83178489  0.69543947  1
  O  O51  1  0.80413057  0.82764078  0.19561276  1
  O  O52  1  0.02525280  0.19653459  0.19118654  1
  O  O53  1  0.16821511  0.97094505  0.19543947  1
  O  O54  1  0.88946087  0.36908418  0.64063306  1
  O  O55  1  0.48941607  0.10309440  0.64510266  1
  O  O56  1  0.63420790  0.51628807  0.64838089  1
  O  O57  1  0.89690560  0.51058393  0.14510266  1
  O  O58  1  0.63091582  0.11053913  0.14063306  1
  O  O59  1  0.48371193  0.36579210  0.14838089  1
  O  O60  1  0.47619526  0.30715917  0.02960557  1
  O  O61  1  0.83280551  0.52178546  0.02858935  1
  O  O62  1  0.69929534  0.16060323  0.02984872  1
  O  O63  1  0.47821454  0.16719449  0.52858935  1
  O  O64  1  0.69284083  0.52380474  0.52960557  1
  O  O65  1  0.83939677  0.30070466  0.52984872  1
  O  O66  1  0.52548152  0.69077387  0.97248055  1
  O  O67  1  0.15924072  0.46588249  0.97607544  1
  O  O68  1  0.30693102  0.83185943  0.97181518  1
  O  O69  1  0.53411751  0.84075928  0.47607544  1
  O  O70  1  0.30922613  0.47451848  0.47248055  1
  O  O71  1  0.16814057  0.69306898  0.47181518  1
  O  O72  1  0.13520085  0.63899518  0.35653703  1
  O  O73  1  0.49809753  0.85743367  0.35994794  1
  O  O74  1  0.35888969  0.49469036  0.35647605  1
  O  O75  1  0.14256633  0.50190247  0.85994794  1
  O  O76  1  0.36100482  0.86479915  0.85653703  1
  O  O77  1  0.50530964  0.64111031  0.85647605  1
  O  O78  1  0.02409698  0.83485011  0.40775251  1
  O  O79  1  0.80934505  0.97311876  0.40935155  1
  O  O80  1  0.16642489  0.18791551  0.40988100  1
  O  O81  1  0.02688124  0.19065495  0.90935155  1
  O  O82  1  0.16514989  0.97590302  0.90775251  1
  O  O83  1  0.81208449  0.83357511  0.90988100  1
  O  O84  1  0.97077120  0.16767547  0.58985123  1
  O  O85  1  0.18611366  0.02813021  0.59047613  1
  O  O86  1  0.83463696  0.81699400  0.59060715  1
  O  O87  1  0.97186979  0.81388634  0.09047613  1
  O  O88  1  0.83232453  0.02922880  0.08985123  1
  O  O89  1  0.18300600  0.16536304  0.09060715  1
  O  O90  1  0.68167226  0.16663621  0.75005540  1
  O  O91  1  0.45954598  0.30933909  0.75087625  1
  O  O92  1  0.84141221  0.54231179  0.74889233  1
  O  O93  1  0.69066091  0.54045402  0.25087625  1
  O  O94  1  0.83336379  0.31832774  0.25005540  1
  O  O95  1  0.45768821  0.15858779  0.24889233  1
  O  O96  1  0.63784982  0.49356933  0.92297703  1
  O  O97  1  0.85278693  0.35729447  0.92405422  1
  O  O98  1  0.50642518  0.14338251  0.92458926  1
  O  O99  1  0.64270553  0.14721307  0.42405422  1
  O  O100  1  0.50643067  0.36215018  0.42297703  1
  O  O101  1  0.85661749  0.49357482  0.42458926  1
  O  O102  1  0.34518875  0.49743375  0.07625217  1
  O  O103  1  0.15025396  0.65146914  0.07333669  1
  O  O104  1  0.51114880  0.85814024  0.07418722  1
  O  O105  1  0.34853086  0.84974604  0.57333669  1
  O  O106  1  0.50256625  0.65481125  0.57625217  1
  O  O107  1  0.14185976  0.48885120  0.57418722  1
  O  O108  1  0.29153809  0.82734721  0.25424936  1
  O  O109  1  0.53064154  0.70426678  0.25426856  1
  O  O110  1  0.17912262  0.47887141  0.25420894  1
  O  O111  1  0.29573322  0.46935846  0.75426856  1
  O  O112  1  0.17265279  0.70846191  0.75424936  1
  O  O113  1  0.52112859  0.82087738  0.75420894  1
