# generated using pymatgen
data_Na3Sc3NbP5SO24
_symmetry_space_group_name_H-M   'P 1'
_cell_length_a   8.88289493
_cell_length_b   8.86599743
_cell_length_c   22.98379697
_cell_angle_alpha   89.96137686
_cell_angle_beta   90.08850176
_cell_angle_gamma   120.09066961
_symmetry_Int_Tables_number   1
_chemical_formula_structural   Na3Sc3NbP5SO24
_chemical_formula_sum   'Na9 Sc9 Nb3 P15 S3 O72'
_cell_volume   1566.16132790
_cell_formula_units_Z   3
loop_
 _symmetry_equiv_pos_site_id
 _symmetry_equiv_pos_as_xyz
  1  'x, y, z'
loop_
 _atom_site_type_symbol
 _atom_site_label
 _atom_site_symmetry_multiplicity
 _atom_site_fract_x
 _atom_site_fract_y
 _atom_site_fract_z
 _atom_site_occupancy
  Na  Na0  1  0.64143184  0.63726988  0.74851685  1
  Na  Na1  1  0.30112255  0.96559611  0.08456725  1
  Na  Na2  1  0.33065401  0.02678833  0.41435759  1
  Na  Na3  1  0.98886256  0.99971337  0.50078539  1
  Na  Na4  1  0.99255471  0.00031926  0.99864265  1
  Na  Na5  1  0.66630404  0.32560009  0.83148549  1
  Na  Na6  1  0.66807024  0.33515780  0.32947032  1
  Na  Na7  1  0.33307815  0.66278011  0.16710055  1
  Na  Na8  1  0.32562920  0.66274484  0.66267885  1
  Sc  Sc9  1  0.00109998  0.00258216  0.35199874  1
  Sc  Sc10  1  0.00164532  0.00172306  0.85253638  1
  Sc  Sc11  1  0.99555397  0.00118494  0.64797410  1
  Sc  Sc12  1  0.99997026  0.99833746  0.14656212  1
  Sc  Sc13  1  0.67253301  0.33357573  0.68589131  1
  Sc  Sc14  1  0.66074684  0.32858361  0.18510860  1
  Sc  Sc15  1  0.33440837  0.66127516  0.01893939  1
  Sc  Sc16  1  0.33494761  0.65959361  0.51826251  1
  Sc  Sc17  1  0.33360896  0.67217913  0.31555092  1
  Nb  Nb18  1  0.66863413  0.33513343  0.97971281  1
  Nb  Nb19  1  0.67993827  0.34463886  0.48024727  1
  Nb  Nb20  1  0.32815121  0.66621650  0.81425607  1
  P  P21  1  0.29312969  0.99938739  0.25002875  1
  P  P22  1  0.29048659  0.28878367  0.75043224  1
  P  P23  1  0.00122010  0.71190893  0.75009655  1
  P  P24  1  0.70954181  0.00240949  0.75121569  1
  P  P25  1  0.96067716  0.33419255  0.58432715  1
  P  P26  1  0.66683194  0.62624178  0.58519750  1
  P  P27  1  0.95655004  0.62209239  0.08438697  1
  P  P28  1  0.66878608  0.04360442  0.08345800  1
  P  P29  1  0.37801132  0.33619349  0.08378509  1
  P  P30  1  0.62441003  0.66820727  0.91714904  1
  P  P31  1  0.04280829  0.37501360  0.91791322  1
  P  P32  1  0.33224114  0.95684381  0.91864920  1
  P  P33  1  0.62629405  0.95677918  0.41795292  1
  P  P34  1  0.33345022  0.37599640  0.41661866  1
  P  P35  1  0.04617631  0.66899186  0.41678440  1
  S  S36  1  0.70730731  0.70773796  0.24998951  1
  S  S37  1  0.00064324  0.29308338  0.24970183  1
  S  S38  1  0.37574738  0.04231599  0.58271734  1
  O  O39  1  0.20736778  0.02407633  0.30545752  1
  O  O40  1  0.81406375  0.79048194  0.30262029  1
  O  O41  1  0.97355684  0.18529042  0.30239247  1
  O  O42  1  0.20899105  0.18176999  0.80494783  1
  O  O43  1  0.96848936  0.79100327  0.80428466  1
  O  O44  1  0.81756029  0.02587832  0.80536131  1
  O  O45  1  0.78092870  0.95652491  0.69684723  1
  O  O46  1  0.17952838  0.21441497  0.69552545  1
  O  O47  1  0.03641465  0.82208968  0.69514595  1
  O  O48  1  0.78856850  0.81545985  0.19748035  1
  O  O49  1  0.02361195  0.20932471  0.19734894  1
  O  O50  1  0.18217673  0.97510188  0.19450505  1
  O  O51  1  0.87026462  0.35804220  0.63693515  1
  O  O52  1  0.48340911  0.12514061  0.63462037  1
  O  O53  1  0.63944647  0.51510463  0.63956554  1
  O  O54  1  0.87048040  0.50973338  0.13746367  1
  O  O55  1  0.63449315  0.12718301  0.13631702  1
  O  O56  1  0.48948373  0.36109942  0.13731966  1
  O  O57  1  0.47157128  0.30710768  0.02895859  1
  O  O58  1  0.83818188  0.52758101  0.02886225  1
  O  O59  1  0.69089744  0.16289635  0.02832834  1
  O  O60  1  0.46056829  0.15031510  0.52875215  1
  O  O61  1  0.68616253  0.52377471  0.53054418  1
  O  O62  1  0.83962868  0.31236299  0.52906624  1
  O  O63  1  0.53776716  0.69159165  0.97028493  1
  O  O64  1  0.15257434  0.46144217  0.97106352  1
  O  O65  1  0.30928691  0.85125750  0.97336165  1
  O  O66  1  0.54070185  0.84880704  0.47220796  1
  O  O67  1  0.30527471  0.45621754  0.47120895  1
  O  O68  1  0.15689116  0.70027449  0.47117645  1
  O  O69  1  0.11835003  0.63012397  0.36220893  1
  O  O70  1  0.50884603  0.88431753  0.36373494  1
  O  O71  1  0.36924905  0.48729782  0.36228374  1
  O  O72  1  0.13267129  0.49481007  0.86281792  1
  O  O73  1  0.36080313  0.86498593  0.86385534  1
  O  O74  1  0.50838654  0.63703382  0.86104816  1
  O  O75  1  0.02204326  0.82890796  0.41001080  1
  O  O76  1  0.80924452  0.98464128  0.40991709  1
  O  O77  1  0.17850301  0.18707345  0.41063630  1
  O  O78  1  0.01881251  0.19445105  0.90945284  1
  O  O79  1  0.17561538  0.98017558  0.90944452  1
  O  O80  1  0.80596947  0.82447445  0.90929174  1
  O  O81  1  0.97165729  0.16711542  0.58632052  1
  O  O82  1  0.20372290  0.02898976  0.58695940  1
  O  O83  1  0.83534866  0.80328166  0.58636924  1
  O  O84  1  0.97558072  0.80575907  0.08686533  1
  O  O85  1  0.83250445  0.02896750  0.08755202  1
  O  O86  1  0.20052868  0.16434104  0.08684602  1
  O  O87  1  0.68025815  0.15708416  0.74391359  1
  O  O88  1  0.47942305  0.32548262  0.74417222  1
  O  O89  1  0.83847734  0.52795939  0.74420709  1
  O  O90  1  0.69209161  0.53371274  0.24469458  1
  O  O91  1  0.84402715  0.31168533  0.24445268  1
  O  O92  1  0.47551285  0.16454753  0.24499672  1
  O  O93  1  0.63753658  0.49765558  0.92416325  1
  O  O94  1  0.86031951  0.36280937  0.92345756  1
  O  O95  1  0.50279427  0.14033614  0.92364526  1
  O  O96  1  0.63869604  0.14234788  0.42728992  1
  O  O97  1  0.49709770  0.34888791  0.42693189  1
  O  O98  1  0.85804316  0.50284618  0.42544698  1
  O  O99  1  0.35790370  0.49559531  0.07659627  1
  O  O100  1  0.14011888  0.64850253  0.07621402  1
  O  O101  1  0.50107980  0.86680437  0.07540355  1
  O  O102  1  0.35913420  0.86890139  0.57644087  1
  O  O103  1  0.50469119  0.64254566  0.57659221  1
  O  O104  1  0.13723627  0.49902101  0.57609535  1
  O  O105  1  0.31008835  0.83410484  0.25559841  1
  O  O106  1  0.53227971  0.68899943  0.25562609  1
  O  O107  1  0.15928422  0.46667366  0.25553930  1
  O  O108  1  0.31496033  0.48025311  0.75982195  1
  O  O109  1  0.16550482  0.68915632  0.75982499  1
  O  O110  1  0.52340456  0.82991543  0.76025750  1
