# generated using pymatgen
data_FeCoH18(NCl)6
_symmetry_space_group_name_H-M   'P 1'
_cell_length_a   11.27910977
_cell_length_b   11.27910977
_cell_length_c   11.27910977
_cell_angle_alpha   90.00000000
_cell_angle_beta   90.00000000
_cell_angle_gamma   90.00000000
_symmetry_Int_Tables_number   1
_chemical_formula_structural   FeCoH18(NCl)6
_chemical_formula_sum   'Fe4 Co4 H72 N24 Cl24'
_cell_volume   1434.90936450
_cell_formula_units_Z   4
loop_
 _symmetry_equiv_pos_site_id
 _symmetry_equiv_pos_as_xyz
  1  'x, y, z'
loop_
 _atom_site_type_symbol
 _atom_site_label
 _atom_site_symmetry_multiplicity
 _atom_site_fract_x
 _atom_site_fract_y
 _atom_site_fract_z
 _atom_site_occupancy
  Fe  Fe0  1  -0.00000000  0.00000000  0.00000000  1
  Fe  Fe1  1  0.50000000  0.00000000  0.50000000  1
  Fe  Fe2  1  0.50000000  0.50000000  0.00000000  1
  Fe  Fe3  1  -0.00000000  0.50000000  0.50000000  1
  Co  Co4  1  0.50000000  0.50000000  0.50000000  1
  Co  Co5  1  -0.00000000  0.50000000  0.00000000  1
  Co  Co6  1  -0.00000000  0.00000000  0.50000000  1
  Co  Co7  1  0.50000000  0.00000000  0.00000000  1
  H  H8  1  0.09956984  0.63325731  0.14971077  1
  H  H9  1  0.59956984  0.86674269  0.85028923  1
  H  H10  1  0.90043016  0.13325731  0.35028923  1
  H  H11  1  0.86674269  0.85028923  0.59956984  1
  H  H12  1  0.35028923  0.90043016  0.13325731  1
  H  H13  1  0.85028923  0.59956984  0.86674269  1
  H  H14  1  0.63325731  0.14971077  0.09956984  1
  H  H15  1  0.14971077  0.09956984  0.63325731  1
  H  H16  1  0.13325731  0.35028923  0.90043016  1
  H  H17  1  0.36674269  0.64971077  0.40043016  1
  H  H18  1  0.64971077  0.40043016  0.36674269  1
  H  H19  1  0.40043016  0.36674269  0.64971077  1
  H  H20  1  0.90043016  0.36674269  0.85028923  1
  H  H21  1  0.40043016  0.13325731  0.14971077  1
  H  H22  1  0.09956984  0.86674269  0.64971077  1
  H  H23  1  0.13325731  0.14971077  0.40043016  1
  H  H24  1  0.64971077  0.09956984  0.86674269  1
  H  H25  1  0.14971077  0.40043016  0.13325731  1
  H  H26  1  0.36674269  0.85028923  0.90043016  1
  H  H27  1  0.85028923  0.90043016  0.36674269  1
  H  H28  1  0.86674269  0.64971077  0.09956984  1
  H  H29  1  0.63325731  0.35028923  0.59956984  1
  H  H30  1  0.35028923  0.59956984  0.63325731  1
  H  H31  1  0.59956984  0.63325731  0.35028923  1
  H  H32  1  0.18521105  0.62675987  0.03167446  1
  H  H33  1  0.68521105  0.87324013  0.96832554  1
  H  H34  1  0.81478895  0.12675987  0.46832554  1
  H  H35  1  0.87324013  0.96832554  0.68521105  1
  H  H36  1  0.46832554  0.81478895  0.12675987  1
  H  H37  1  0.96832554  0.68521105  0.87324013  1
  H  H38  1  0.62675987  0.03167446  0.18521105  1
  H  H39  1  0.21287090  0.46721279  0.93038797  1
  H  H40  1  0.03167446  0.18521105  0.62675987  1
  H  H41  1  0.37324013  0.53167446  0.31478895  1
  H  H42  1  0.53167446  0.31478895  0.37324013  1
  H  H43  1  0.31478895  0.37324013  0.53167446  1
  H  H44  1  0.81478895  0.37324013  0.96832554  1
  H  H45  1  0.31478895  0.12675987  0.03167446  1
  H  H46  1  0.18521105  0.87324013  0.53167446  1
  H  H47  1  0.12675987  0.03167446  0.31478895  1
  H  H48  1  0.53167446  0.18521105  0.87324013  1
  H  H49  1  0.03167446  0.31478895  0.12675987  1
  H  H50  1  0.37324013  0.96832554  0.81478895  1
  H  H51  1  0.96832554  0.81478895  0.37324013  1
  H  H52  1  0.87324013  0.53167446  0.18521105  1
  H  H53  1  0.62675987  0.46832554  0.68521105  1
  H  H54  1  0.46832554  0.68521105  0.62675987  1
  H  H55  1  0.68521105  0.62675987  0.46832554  1
  H  H56  1  0.06961203  0.71287090  0.03278721  1
  H  H57  1  0.56961203  0.78712910  0.96721279  1
  H  H58  1  0.93038797  0.21287090  0.46721279  1
  H  H59  1  0.78712910  0.96721279  0.56961203  1
  H  H60  1  0.46721279  0.93038797  0.21287090  1
  H  H61  1  0.96721279  0.56961203  0.78712910  1
  H  H62  1  0.71287090  0.03278721  0.06961203  1
  H  H63  1  0.03278721  0.06961203  0.71287090  1
  H  H64  1  0.56961203  0.71287090  0.46721279  1
  H  H65  1  0.46721279  0.56961203  0.71287090  1
  H  H66  1  0.71287090  0.46721279  0.56961203  1
  H  H67  1  0.78712910  0.53278721  0.06961203  1
  H  H68  1  0.96721279  0.93038797  0.28712910  1
  H  H69  1  0.28712910  0.96721279  0.93038797  1
  H  H70  1  0.03278721  0.43038797  0.21287090  1
  H  H71  1  0.53278721  0.06961203  0.78712910  1
  H  H72  1  0.21287090  0.03278721  0.43038797  1
  H  H73  1  0.06961203  0.78712910  0.53278721  1
  H  H74  1  0.43038797  0.21287090  0.03278721  1
  H  H75  1  0.93038797  0.28712910  0.96721279  1
  H  H76  1  0.43038797  0.28712910  0.53278721  1
  H  H77  1  0.53278721  0.43038797  0.28712910  1
  H  H78  1  0.28712910  0.53278721  0.43038797  1
  H  H79  1  0.12675987  0.46832554  0.81478895  1
  N  N80  1  0.09862353  0.63113452  0.05891507  1
  N  N81  1  0.59862353  0.86886548  0.94108493  1
  N  N82  1  0.90137647  0.13113452  0.44108493  1
  N  N83  1  0.86886548  0.94108493  0.59862353  1
  N  N84  1  0.44108493  0.90137647  0.13113452  1
  N  N85  1  0.94108493  0.59862353  0.86886548  1
  N  N86  1  0.63113452  0.05891507  0.09862353  1
  N  N87  1  0.05891507  0.09862353  0.63113452  1
  N  N88  1  0.13113452  0.44108493  0.90137647  1
  N  N89  1  0.36886548  0.55891507  0.40137647  1
  N  N90  1  0.55891507  0.40137647  0.36886548  1
  N  N91  1  0.40137647  0.36886548  0.55891507  1
  N  N92  1  0.90137647  0.36886548  0.94108493  1
  N  N93  1  0.40137647  0.13113452  0.05891507  1
  N  N94  1  0.09862353  0.86886548  0.55891507  1
  N  N95  1  0.13113452  0.05891507  0.40137647  1
  N  N96  1  0.55891507  0.09862353  0.86886548  1
  N  N97  1  0.05891507  0.40137647  0.13113452  1
  N  N98  1  0.36886548  0.94108493  0.90137647  1
  N  N99  1  0.94108493  0.90137647  0.36886548  1
  N  N100  1  0.86886548  0.55891507  0.09862353  1
  N  N101  1  0.63113452  0.44108493  0.59862353  1
  N  N102  1  0.44108493  0.59862353  0.63113452  1
  N  N103  1  0.59862353  0.63113452  0.44108493  1
  Cl  Cl104  1  0.42822851  0.13484635  0.35237407  1
  Cl  Cl105  1  0.92822851  0.36515365  0.64762593  1
  Cl  Cl106  1  0.57177149  0.63484635  0.14762593  1
  Cl  Cl107  1  0.36515365  0.64762593  0.92822851  1
  Cl  Cl108  1  0.92822851  0.13484635  0.14762593  1
  Cl  Cl109  1  0.64762593  0.92822851  0.36515365  1
  Cl  Cl110  1  0.13484635  0.35237407  0.42822851  1
  Cl  Cl111  1  0.35237407  0.42822851  0.13484635  1
  Cl  Cl112  1  0.63484635  0.14762593  0.57177149  1
  Cl  Cl113  1  0.86515365  0.85237407  0.07177149  1
  Cl  Cl114  1  0.85237407  0.07177149  0.86515365  1
  Cl  Cl115  1  0.07177149  0.86515365  0.85237407  1
  Cl  Cl116  1  0.57177149  0.86515365  0.64762593  1
  Cl  Cl117  1  0.07177149  0.63484635  0.35237407  1
  Cl  Cl118  1  0.42822851  0.36515365  0.85237407  1
  Cl  Cl119  1  0.63484635  0.35237407  0.07177149  1
  Cl  Cl120  1  0.85237407  0.42822851  0.36515365  1
  Cl  Cl121  1  0.35237407  0.07177149  0.63484635  1
  Cl  Cl122  1  0.86515365  0.64762593  0.57177149  1
  Cl  Cl123  1  0.64762593  0.57177149  0.86515365  1
  Cl  Cl124  1  0.36515365  0.85237407  0.42822851  1
  Cl  Cl125  1  0.13484635  0.14762593  0.92822851  1
  Cl  Cl126  1  0.14762593  0.92822851  0.13484635  1
  Cl  Cl127  1  0.14762593  0.57177149  0.63484635  1
