# generated using pymatgen
data_Na2Si3Sn2Ge2(SO8)3
_symmetry_space_group_name_H-M   'P 1'
_cell_length_a   8.68482880
_cell_length_b   8.64063655
_cell_length_c   22.55797730
_cell_angle_alpha   90.36255789
_cell_angle_beta   90.51043376
_cell_angle_gamma   119.83901824
_symmetry_Int_Tables_number   1
_chemical_formula_structural   Na2Si3Sn2Ge2(SO8)3
_chemical_formula_sum   'Na6 Si9 Sn6 Ge6 S9 O72'
_cell_volume   1468.21394031
_cell_formula_units_Z   3
loop_
 _symmetry_equiv_pos_site_id
 _symmetry_equiv_pos_as_xyz
  1  'x, y, z'
loop_
 _atom_site_type_symbol
 _atom_site_label
 _atom_site_symmetry_multiplicity
 _atom_site_fract_x
 _atom_site_fract_y
 _atom_site_fract_z
 _atom_site_occupancy
  Na  Na0  1  0.97978069  0.97711002  0.49409343  1
  Na  Na1  1  0.00183890  0.98917111  0.99851695  1
  Na  Na2  1  0.65500064  0.32176600  0.83334706  1
  Na  Na3  1  0.67739354  0.32486081  0.33436178  1
  Na  Na4  1  0.31613598  0.66294105  0.17101195  1
  Na  Na5  1  0.35100027  0.66340170  0.66760432  1
  Si  Si6  1  0.29752745  0.01271805  0.24876492  1
  Si  Si7  1  0.00644806  0.28294821  0.25048897  1
  Si  Si8  1  0.28847871  0.29975513  0.75378605  1
  Si  Si9  1  0.71737001  0.00191398  0.75519116  1
  Si  Si10  1  0.66432882  0.62601436  0.58426384  1
  Si  Si11  1  0.93897512  0.60650313  0.08297847  1
  Si  Si12  1  0.33005520  0.95580884  0.91611667  1
  Si  Si13  1  0.63991608  0.96104461  0.41387672  1
  Si  Si14  1  0.04428853  0.67852020  0.41491878  1
  Sn  Sn15  1  0.99071177  0.00098554  0.64948429  1
  Sn  Sn16  1  0.00388419  0.99312946  0.14807078  1
  Sn  Sn17  1  0.65694075  0.33239018  0.69066149  1
  Sn  Sn18  1  0.67845979  0.34444166  0.47613496  1
  Sn  Sn19  1  0.35024300  0.68178459  0.51410428  1
  Sn  Sn20  1  0.32190315  0.67644756  0.31203482  1
  Ge  Ge21  1  0.00866525  0.00695935  0.35268506  1
  Ge  Ge22  1  0.02289799  0.01824570  0.84945020  1
  Ge  Ge23  1  0.68984720  0.33680839  0.19587547  1
  Ge  Ge24  1  0.65359763  0.32897896  0.98190454  1
  Ge  Ge25  1  0.30479927  0.67176888  0.02008565  1
  Ge  Ge26  1  0.35787482  0.68639044  0.81212848  1
  S  S27  1  0.71011260  0.70679505  0.24963577  1
  S  S28  1  0.00850178  0.71453099  0.75394253  1
  S  S29  1  0.96215796  0.33763797  0.58434331  1
  S  S30  1  0.37202928  0.04070749  0.58381399  1
  S  S31  1  0.65886381  0.04037233  0.08070773  1
  S  S32  1  0.37899882  0.34168264  0.07983576  1
  S  S33  1  0.61880061  0.66600147  0.91899548  1
  S  S34  1  0.04319672  0.37899250  0.91749367  1
  S  S35  1  0.32813672  0.37161902  0.41488448  1
  O  O36  1  0.20348686  0.04125078  0.30661717  1
  O  O37  1  0.82286239  0.78626539  0.30239629  1
  O  O38  1  0.96568263  0.15500224  0.30703326  1
  O  O39  1  0.20928423  0.17067860  0.81113926  1
  O  O40  1  0.97315819  0.79586734  0.80674555  1
  O  O41  1  0.84043305  0.02622654  0.81487732  1
  O  O42  1  0.78003983  0.95188441  0.69443914  1
  O  O43  1  0.17458807  0.21698560  0.69281703  1
  O  O44  1  0.04049207  0.81721584  0.69868864  1
  O  O45  1  0.77734977  0.81030749  0.19386719  1
  O  O46  1  0.02442349  0.20589544  0.18577540  1
  O  O47  1  0.18100344  0.95771007  0.18710156  1
  O  O48  1  0.87970892  0.35808001  0.63921437  1
  O  O49  1  0.48167711  0.11487339  0.63898846  1
  O  O50  1  0.63723428  0.51203122  0.64463965  1
  O  O51  1  0.84705166  0.48417680  0.14132088  1
  O  O52  1  0.62687099  0.11486953  0.13476177  1
  O  O53  1  0.48406058  0.36788637  0.13319087  1
  O  O54  1  0.45382387  0.30166204  0.02476822  1
  O  O55  1  0.82173295  0.51564129  0.02140295  1
  O  O56  1  0.68688429  0.14984484  0.02642017  1
  O  O57  1  0.45392638  0.14470377  0.53056334  1
  O  O58  1  0.69211339  0.53456434  0.52588427  1
  O  O59  1  0.84979686  0.30068935  0.53081493  1
  O  O60  1  0.53487717  0.69374010  0.97216604  1
  O  O61  1  0.15728054  0.45623814  0.97310572  1
  O  O62  1  0.29229435  0.83447137  0.97592141  1
  O  O63  1  0.57132781  0.84830695  0.47557413  1
  O  O64  1  0.29860397  0.44556393  0.47099676  1
  O  O65  1  0.15643477  0.70693701  0.47734478  1
  O  O66  1  0.11468564  0.61717615  0.35854616  1
  O  O67  1  0.51504347  0.87202436  0.35651183  1
  O  O68  1  0.36203403  0.48338571  0.36271580  1
  O  O69  1  0.12344095  0.48828001  0.86509938  1
  O  O70  1  0.36670616  0.86054437  0.85959405  1
  O  O71  1  0.50869768  0.62899101  0.86369318  1
  O  O72  1  0.03698288  0.86055451  0.40513102  1
  O  O73  1  0.83686404  0.98788468  0.40559678  1
  O  O74  1  0.16621027  0.19575927  0.41008461  1
  O  O75  1  0.02534072  0.19744709  0.91371140  1
  O  O76  1  0.14887438  0.97392754  0.90713424  1
  O  O77  1  0.79752535  0.82345076  0.91324436  1
  O  O78  1  0.98482547  0.17799338  0.58706134  1
  O  O79  1  0.19775514  0.03076676  0.58966758  1
  O  O80  1  0.84825286  0.82090949  0.58764906  1
  O  O81  1  0.96196169  0.80692638  0.08502423  1
  O  O82  1  0.81951124  0.02148483  0.08422999  1
  O  O83  1  0.19744659  0.18318031  0.08138930  1
  O  O84  1  0.70429334  0.18339535  0.74862357  1
  O  O85  1  0.48582416  0.32268193  0.75101000  1
  O  O86  1  0.84983678  0.53579117  0.74900551  1
  O  O87  1  0.69874172  0.52875446  0.24248680  1
  O  O88  1  0.82894681  0.30798595  0.24619600  1
  O  O89  1  0.49112870  0.19878381  0.23662733  1
  O  O90  1  0.63496221  0.49933840  0.92366441  1
  O  O91  1  0.86309818  0.35948409  0.92430544  1
  O  O92  1  0.51109605  0.15693735  0.92756546  1
  O  O93  1  0.63945450  0.14958032  0.42241136  1
  O  O94  1  0.48367962  0.34686750  0.42069961  1
  O  O95  1  0.84374072  0.50761094  0.41828196  1
  O  O96  1  0.36956714  0.51036129  0.07104394  1
  O  O97  1  0.14118896  0.62808552  0.07577835  1
  O  O98  1  0.49746037  0.85562785  0.07317112  1
  O  O99  1  0.34744093  0.85850438  0.58114818  1
  O  O100  1  0.48330134  0.64092997  0.58014247  1
  O  O101  1  0.13611059  0.50005965  0.57948037  1
  O  O102  1  0.33313728  0.84506556  0.25088000  1
  O  O103  1  0.53039032  0.67890955  0.25508806  1
  O  O104  1  0.18513612  0.47706786  0.25370743  1
  O  O105  1  0.29676223  0.49192598  0.76602271  1
  O  O106  1  0.16773772  0.69566444  0.76150641  1
  O  O107  1  0.51714062  0.82918253  0.76089884  1
