# generated using pymatgen
data_Ba2Mg(BiO3)2
_symmetry_space_group_name_H-M   'P 1'
_cell_length_a   7.69705202
_cell_length_b   7.12708427
_cell_length_c   7.23455736
_cell_angle_alpha   49.46079432
_cell_angle_beta   50.30920940
_cell_angle_gamma   49.34986791
_symmetry_Int_Tables_number   1
_chemical_formula_structural   Ba2Mg(BiO3)2
_chemical_formula_sum   'Ba2 Mg1 Bi2 O6'
_cell_volume   212.28839723
_cell_formula_units_Z   1
loop_
 _symmetry_equiv_pos_site_id
 _symmetry_equiv_pos_as_xyz
  1  'x, y, z'
loop_
 _atom_site_type_symbol
 _atom_site_label
 _atom_site_symmetry_multiplicity
 _atom_site_fract_x
 _atom_site_fract_y
 _atom_site_fract_z
 _atom_site_occupancy
  Ba  Ba0  1  0.16760744  0.19277262  0.18529551  1
  Ba  Ba1  1  0.74341215  0.72712461  0.70653898  1
  Mg  Mg2  1  0.40181393  0.34526355  0.33067567  1
  Bi  Bi3  1  0.03891368  0.98486179  0.98786793  1
  Bi  Bi4  1  0.53193471  0.55321740  0.56551186  1
  O  O5  1  0.37202132  0.53305215  0.95031766  1
  O  O6  1  0.50504634  0.95005574  0.37396970  1
  O  O7  1  0.88842090  0.37715688  0.54665757  1
  O  O8  1  0.76029479  0.28744675  0.17846723  1
  O  O9  1  0.17833335  0.74214681  0.29848945  1
  O  O10  1  0.28720241  0.18190268  0.74079244  1
