# generated using pymatgen
data_Na3ZrAlSi(PO6)2
_symmetry_space_group_name_H-M   'P 1'
_cell_length_a   8.95291706
_cell_length_b   8.95291675
_cell_length_c   22.09421171
_cell_angle_alpha   89.82689422
_cell_angle_beta   90.17310578
_cell_angle_gamma   120.26144580
_symmetry_Int_Tables_number   1
_chemical_formula_structural   Na3ZrAlSi(PO6)2
_chemical_formula_sum   'Na18 Zr6 Al6 Si6 P12 O72'
_cell_volume   1529.62659494
_cell_formula_units_Z   6
loop_
 _symmetry_equiv_pos_site_id
 _symmetry_equiv_pos_as_xyz
  1  'x, y, z'
loop_
 _atom_site_type_symbol
 _atom_site_label
 _atom_site_symmetry_multiplicity
 _atom_site_fract_x
 _atom_site_fract_y
 _atom_site_fract_z
 _atom_site_occupancy
  Na  Na0  1  0.00542252  0.99545470  0.49473978  1
  Na  Na1  1  0.00454530  0.99457748  0.99473978  1
  Na  Na2  1  0.66600643  0.32768889  0.82817746  1
  Na  Na3  1  0.67231111  0.33399357  0.32817746  1
  Na  Na4  1  0.36199636  0.67918972  0.16088541  1
  Na  Na5  1  0.32081028  0.63800364  0.66088541  1
  Na  Na6  1  0.35681157  0.36237553  0.24493193  1
  Na  Na7  1  0.99731544  0.62441512  0.24459607  1
  Na  Na8  1  0.63762447  0.64318843  0.74493193  1
  Na  Na9  1  0.37558488  0.00268456  0.74459607  1
  Na  Na10  1  0.03175460  0.69688974  0.57696833  1
  Na  Na11  1  0.66042668  0.96287141  0.58546928  1
  Na  Na12  1  0.30311026  0.96824540  0.07696833  1
  Na  Na13  1  0.03712859  0.33957332  0.08546928  1
  Na  Na14  1  0.97096135  0.67005978  0.91892655  1
  Na  Na15  1  0.69602368  0.03405231  0.90830847  1
  Na  Na16  1  0.96594769  0.30397632  0.40830847  1
  Na  Na17  1  0.32994022  0.02903865  0.41892655  1
  Zr  Zr18  1  0.00796968  0.00866892  0.64585314  1
  Zr  Zr19  1  0.99133108  0.99203032  0.14585314  1
  Zr  Zr20  1  0.66091078  0.33720856  0.97949603  1
  Zr  Zr21  1  0.66279144  0.33908922  0.47949603  1
  Zr  Zr22  1  0.33138826  0.66810798  0.31251531  1
  Zr  Zr23  1  0.33189202  0.66861174  0.81251531  1
  Al  Al24  1  0.98784193  0.99130921  0.35311705  1
  Al  Al25  1  0.00869079  0.01215807  0.85311705  1
  Al  Al26  1  0.67034463  0.32479715  0.68589475  1
  Al  Al27  1  0.67520285  0.32965537  0.18589475  1
  Al  Al28  1  0.32702046  0.66976991  0.01892689  1
  Al  Al29  1  0.33023009  0.67297954  0.51892689  1
  Si  Si30  1  0.98213235  0.27801674  0.25254885  1
  Si  Si31  1  0.72198326  0.01786765  0.75254885  1
  Si  Si32  1  0.37805431  0.03214809  0.58412866  1
  Si  Si33  1  0.96785191  0.62194569  0.08412866  1
  Si  Si34  1  0.31803055  0.95775633  0.91684159  1
  Si  Si35  1  0.04224367  0.68196945  0.41684159  1
  P  P36  1  0.30167798  0.01581133  0.25148136  1
  P  P37  1  0.71392966  0.70098515  0.25286211  1
  P  P38  1  0.29901485  0.28607034  0.75286211  1
  P  P39  1  0.98418867  0.69832202  0.75148136  1
  P  P40  1  0.96253693  0.34655316  0.58313995  1
  P  P41  1  0.64853388  0.61350607  0.58887466  1
  P  P42  1  0.65344684  0.03746307  0.08313995  1
  P  P43  1  0.38649393  0.35146612  0.08887466  1
  P  P44  1  0.62196979  0.67766120  0.91894446  1
  P  P45  1  0.05012317  0.36702584  0.92181286  1
  P  P46  1  0.63297416  0.94987683  0.42181286  1
  P  P47  1  0.32233880  0.37803021  0.41894446  1
  O  O48  1  0.21085568  0.03580442  0.30779253  1
  O  O49  1  0.82898112  0.79826226  0.30702705  1
  O  O50  1  0.97473425  0.16635590  0.31235566  1
  O  O51  1  0.20173774  0.17101888  0.80702705  1
  O  O52  1  0.96419558  0.78914432  0.80779253  1
  O  O53  1  0.83364410  0.02526575  0.81235566  1
  O  O54  1  0.80120353  0.97944622  0.69185590  1
  O  O55  1  0.19751431  0.20367846  0.69395268  1
  O  O56  1  0.02018987  0.81376295  0.69447179  1
  O  O57  1  0.79632154  0.80248569  0.19395268  1
  O  O58  1  0.02055378  0.19879647  0.19185590  1
  O  O59  1  0.18623705  0.97981013  0.19447179  1
  O  O60  1  0.86797260  0.37211507  0.63663474  1
  O  O61  1  0.50046423  0.13717370  0.64202711  1
  O  O62  1  0.63830710  0.51172268  0.64667687  1
  O  O63  1  0.86282630  0.49953577  0.14202711  1
  O  O64  1  0.62788493  0.13202740  0.13663474  1
  O  O65  1  0.48827732  0.36169290  0.14667687  1
  O  O66  1  0.46919154  0.31267137  0.03398545  1
  O  O67  1  0.86192445  0.53867392  0.02122037  1
  O  O68  1  0.68098251  0.14182978  0.02396153  1
  O  O69  1  0.46132608  0.13807555  0.52122037  1
  O  O70  1  0.68732863  0.53080846  0.53398545  1
  O  O71  1  0.85817022  0.31901749  0.52396153  1
  O  O72  1  0.51258857  0.68539730  0.97060812  1
  O  O73  1  0.14852238  0.45373802  0.98068060  1
  O  O74  1  0.29495992  0.83363649  0.97524314  1
  O  O75  1  0.54626198  0.85147762  0.48068060  1
  O  O76  1  0.31460270  0.48741143  0.47060812  1
  O  O77  1  0.16636351  0.70504008  0.47524314  1
  O  O78  1  0.12846718  0.64860514  0.35644207  1
  O  O79  1  0.51436074  0.85910957  0.36712154  1
  O  O80  1  0.34201993  0.46890930  0.35723848  1
  O  O81  1  0.14089043  0.48563926  0.86712154  1
  O  O82  1  0.35139486  0.87153282  0.85644207  1
  O  O83  1  0.53109070  0.65798007  0.85723848  1
  O  O84  1  0.03257975  0.85810145  0.40819852  1
  O  O85  1  0.81376400  0.97233515  0.41415777  1
  O  O86  1  0.15672842  0.19733800  0.41759110  1
  O  O87  1  0.02766485  0.18623600  0.91415777  1
  O  O88  1  0.14189855  0.96742025  0.90819852  1
  O  O89  1  0.80266200  0.84327158  0.91759110  1
  O  O90  1  0.97451320  0.17957951  0.58828248  1
  O  O91  1  0.17899090  0.99823723  0.58558584  1
  O  O92  1  0.81178426  0.80066197  0.58968414  1
  O  O93  1  0.00176277  0.82100910  0.08558584  1
  O  O94  1  0.82042049  0.02548680  0.08828248  1
  O  O95  1  0.19933803  0.18821574  0.08968414  1
  O  O96  1  0.69538690  0.18373038  0.74385722  1
  O  O97  1  0.47935789  0.30273840  0.74811614  1
  O  O98  1  0.81832254  0.52141751  0.74343796  1
  O  O99  1  0.69726160  0.52064211  0.24811614  1
  O  O100  1  0.81626962  0.30461310  0.24385722  1
  O  O101  1  0.47858249  0.18167746  0.24343796  1
  O  O102  1  0.65243625  0.52074786  0.92210367  1
  O  O103  1  0.86405772  0.34576691  0.92126991  1
  O  O104  1  0.49572557  0.14735328  0.91945893  1
  O  O105  1  0.65423309  0.13594228  0.42126991  1
  O  O106  1  0.47925214  0.34756375  0.42210367  1
  O  O107  1  0.85264672  0.50427443  0.41945893  1
  O  O108  1  0.37041082  0.51241836  0.07959365  1
  O  O109  1  0.16030580  0.63912478  0.07982335  1
  O  O110  1  0.49261824  0.85680283  0.07659708  1
  O  O111  1  0.36087522  0.83969420  0.57982335  1
  O  O112  1  0.48758164  0.62958918  0.57959365  1
  O  O113  1  0.14319717  0.50738176  0.57659708  1
  O  O114  1  0.32467343  0.85493672  0.25469436  1
  O  O115  1  0.52948848  0.67554841  0.25507187  1
  O  O116  1  0.15858712  0.47680009  0.25373941  1
  O  O117  1  0.32445159  0.47051152  0.75507187  1
  O  O118  1  0.14506328  0.67532657  0.75469436  1
  O  O119  1  0.52319991  0.84141288  0.75373941  1
