# generated using pymatgen
data_Na6Zn4SiS5O24
_symmetry_space_group_name_H-M   'P 1'
_cell_length_a   9.08162994
_cell_length_b   9.00832180
_cell_length_c   22.03714663
_cell_angle_alpha   88.03267703
_cell_angle_beta   90.78606065
_cell_angle_gamma   120.13864609
_symmetry_Int_Tables_number   1
_chemical_formula_structural   Na6Zn4SiS5O24
_chemical_formula_sum   'Na18 Zn12 Si3 S15 O72'
_cell_volume   1558.20854298
_cell_formula_units_Z   3
loop_
 _symmetry_equiv_pos_site_id
 _symmetry_equiv_pos_as_xyz
  1  'x, y, z'
loop_
 _atom_site_type_symbol
 _atom_site_label
 _atom_site_symmetry_multiplicity
 _atom_site_fract_x
 _atom_site_fract_y
 _atom_site_fract_z
 _atom_site_occupancy
  Na  Na0  1  0.62525555  0.99932302  0.24994375  1
  Na  Na1  1  0.36224219  0.34759570  0.25353306  1
  Na  Na2  1  0.01208347  0.64826177  0.24418457  1
  Na  Na3  1  0.63347299  0.64392935  0.74087009  1
  Na  Na4  1  0.98443853  0.34922845  0.75644377  1
  Na  Na5  1  0.37554467  0.00233223  0.75117730  1
  Na  Na6  1  0.31488307  0.34238185  0.58665532  1
  Na  Na7  1  0.01931789  0.69748346  0.57775256  1
  Na  Na8  1  0.66968564  0.95533022  0.58845173  1
  Na  Na9  1  0.29561393  0.96470064  0.08928506  1
  Na  Na10  1  0.70356255  0.03529526  0.91135035  1
  Na  Na11  1  0.70170846  0.66616746  0.42366447  1
  Na  Na12  1  0.00149624  0.00240314  0.49724502  1
  Na  Na13  1  0.00015877  0.99991678  0.00047284  1
  Na  Na14  1  0.66672847  0.33614184  0.83551961  1
  Na  Na15  1  0.64736268  0.30304958  0.33562255  1
  Na  Na16  1  0.33135139  0.66374774  0.16476630  1
  Na  Na17  1  0.35887779  0.67695143  0.66739561  1
  Zn  Zn18  1  0.02728162  0.01312724  0.34525593  1
  Zn  Zn19  1  0.98875959  0.00225236  0.84610588  1
  Zn  Zn20  1  0.96299057  0.97015612  0.65442863  1
  Zn  Zn21  1  0.00634928  0.99838588  0.15580542  1
  Zn  Zn22  1  0.66295848  0.32885424  0.67911414  1
  Zn  Zn23  1  0.65652909  0.32372937  0.17678320  1
  Zn  Zn24  1  0.67159018  0.34297903  0.98805132  1
  Zn  Zn25  1  0.67060852  0.34160065  0.48853706  1
  Zn  Zn26  1  0.32808914  0.65692385  0.01263391  1
  Zn  Zn27  1  0.34637838  0.66474166  0.51210670  1
  Zn  Zn28  1  0.33208724  0.68521788  0.32229292  1
  Zn  Zn29  1  0.34551894  0.67694119  0.82391653  1
  Si  Si30  1  0.30471972  0.00143424  0.24637341  1
  Si  Si31  1  0.69194648  0.00279446  0.75124212  1
  Si  Si32  1  0.66661117  0.63114747  0.58186860  1
  S  S33  1  0.70432944  0.70472606  0.25237202  1
  S  S34  1  0.99838592  0.29294790  0.24956601  1
  S  S35  1  0.29027744  0.29112276  0.74955450  1
  S  S36  1  0.00501400  0.70605239  0.75179322  1
  S  S37  1  0.96795522  0.33515488  0.58311722  1
  S  S38  1  0.36648003  0.03341473  0.58287989  1
  S  S39  1  0.96331629  0.62957984  0.08360140  1
  S  S40  1  0.66894184  0.03113579  0.08186401  1
  S  S41  1  0.36739479  0.33707220  0.08239599  1
  S  S42  1  0.63252638  0.66290142  0.91738783  1
  S  S43  1  0.03625377  0.37042004  0.91629197  1
  S  S44  1  0.33120908  0.96872877  0.91820754  1
  S  S45  1  0.64226925  0.97465323  0.41652008  1
  S  S46  1  0.32949716  0.36817916  0.41564807  1
  S  S47  1  0.03119947  0.66274651  0.41758904  1
  O  O48  1  0.22128901  0.04967272  0.30169477  1
  O  O49  1  0.80003015  0.78143972  0.30905917  1
  O  O50  1  0.95791289  0.17965276  0.30485512  1
  O  O51  1  0.20540177  0.17768182  0.80304823  1
  O  O52  1  0.98838491  0.79730442  0.80289331  1
  O  O53  1  0.81261072  0.04214630  0.81139181  1
  O  O54  1  0.76826498  0.96293894  0.69078563  1
  O  O55  1  0.19777675  0.21217150  0.69242975  1
  O  O56  1  0.03880223  0.80877679  0.69307748  1
  O  O57  1  0.78364818  0.82238289  0.19890052  1
  O  O58  1  0.01990608  0.21238304  0.19546554  1
  O  O59  1  0.18756670  0.95848445  0.18478261  1
  O  O60  1  0.89361668  0.35407158  0.64019588  1
  O  O61  1  0.46787185  0.09901072  0.63959833  1
  O  O62  1  0.63493366  0.51070085  0.64346383  1
  O  O63  1  0.88148728  0.53285694  0.14180621  1
  O  O64  1  0.64603588  0.11291198  0.13645012  1
  O  O65  1  0.45981122  0.35611697  0.14115175  1
  O  O66  1  0.45977575  0.31443987  0.03187169  1
  O  O67  1  0.86411045  0.53922387  0.03034576  1
  O  O68  1  0.68806710  0.13627599  0.02538160  1
  O  O69  1  0.45724853  0.14360394  0.52939667  1
  O  O70  1  0.69696154  0.54983142  0.52145305  1
  O  O71  1  0.85054643  0.30008892  0.53148079  1
  O  O72  1  0.54091362  0.68636930  0.96791673  1
  O  O73  1  0.13618466  0.46050294  0.96942154  1
  O  O74  1  0.31258971  0.86316792  0.97444995  1
  O  O75  1  0.55517451  0.86497753  0.47190299  1
  O  O76  1  0.31898451  0.44894744  0.47227602  1
  O  O77  1  0.13190117  0.67378860  0.47284533  1
  O  O78  1  0.11533783  0.65566423  0.36134620  1
  O  O79  1  0.54174313  0.89496735  0.36056438  1
  O  O80  1  0.34645895  0.47911690  0.36080845  1
  O  O81  1  0.11811049  0.46674646  0.85808872  1
  O  O82  1  0.35407908  0.88726907  0.86340446  1
  O  O83  1  0.54017273  0.64351338  0.85864096  1
  O  O84  1  0.00765624  0.81646914  0.41576014  1
  O  O85  1  0.80911787  0.98053369  0.41361210  1
  O  O86  1  0.17428989  0.19724994  0.41364889  1
  O  O87  1  0.01707546  0.19521517  0.91726241  1
  O  O88  1  0.18025086  0.98926013  0.91265725  1
  O  O89  1  0.80448813  0.82263415  0.91472132  1
  O  O90  1  0.00255720  0.18979454  0.58739227  1
  O  O91  1  0.19995207  0.02773521  0.58676245  1
  O  O92  1  0.84022776  0.82292649  0.58433509  1
  O  O93  1  0.98138816  0.80382951  0.08260427  1
  O  O94  1  0.81984338  0.01041153  0.08761000  1
  O  O95  1  0.19567373  0.17843366  0.08466198  1
  O  O96  1  0.67423272  0.17697578  0.74374023  1
  O  O97  1  0.46687876  0.31956895  0.74958498  1
  O  O98  1  0.84528974  0.53646643  0.74877044  1
  O  O99  1  0.69798335  0.53675910  0.24609963  1
  O  O100  1  0.85357793  0.32673861  0.24298043  1
  O  O101  1  0.49963818  0.17098061  0.24177269  1
  O  O102  1  0.65045682  0.50846664  0.92487889  1
  O  O103  1  0.86039603  0.34753466  0.91802558  1
  O  O104  1  0.49327114  0.13898620  0.92118033  1
  O  O105  1  0.66137212  0.14681376  0.42099232  1
  O  O106  1  0.48730588  0.35497540  0.41662894  1
  O  O107  1  0.85836048  0.50554580  0.41927475  1
  O  O108  1  0.35061251  0.49252862  0.07505048  1
  O  O109  1  0.13935104  0.65240698  0.08190716  1
  O  O110  1  0.50684077  0.86086317  0.07874540  1
  O  O111  1  0.33498208  0.85464765  0.57750806  1
  O  O112  1  0.49533508  0.65290357  0.57870385  1
  O  O113  1  0.13436908  0.49856859  0.57474208  1
  O  O114  1  0.32272409  0.82714805  0.25476606  1
  O  O115  1  0.52562047  0.67143513  0.25549847  1
  O  O116  1  0.15948567  0.46173376  0.25545971  1
  O  O117  1  0.29965570  0.46154361  0.75326457  1
  O  O118  1  0.15233010  0.67699451  0.75811765  1
  O  O119  1  0.50107965  0.82902650  0.75766123  1
