# generated using pymatgen
data_Na6Ca5TaP3(SO6)6
_symmetry_space_group_name_H-M   'P 1'
_cell_length_a   9.21505605
_cell_length_b   9.25697767
_cell_length_c   23.49971331
_cell_angle_alpha   89.89440244
_cell_angle_beta   90.00000000
_cell_angle_gamma   119.85030620
_symmetry_Int_Tables_number   1
_chemical_formula_structural   Na6Ca5TaP3(SO6)6
_chemical_formula_sum   'Na12 Ca10 Ta2 P6 S12 O72'
_cell_volume   1738.65147741
_cell_formula_units_Z   2
loop_
 _symmetry_equiv_pos_site_id
 _symmetry_equiv_pos_as_xyz
  1  'x, y, z'
loop_
 _atom_site_type_symbol
 _atom_site_label
 _atom_site_symmetry_multiplicity
 _atom_site_fract_x
 _atom_site_fract_y
 _atom_site_fract_z
 _atom_site_occupancy
  Na  Na0  1  0.30621419  0.33572363  0.58028118  1
  Na  Na1  1  0.66860922  0.97117177  0.59455296  1
  Na  Na2  1  0.30256354  0.97117177  0.09455296  1
  Na  Na3  1  0.02951044  0.33572363  0.08028118  1
  Na  Na4  1  0.96296879  0.66735778  0.90471127  1
  Na  Na5  1  0.70438799  0.66735778  0.40471127  1
  Na  Na6  1  0.03212116  0.01595103  0.49378903  1
  Na  Na7  1  0.98382987  0.01595103  0.99378903  1
  Na  Na8  1  0.68129290  0.31787880  0.82513219  1
  Na  Na9  1  0.63658690  0.31787880  0.32513219  1
  Na  Na10  1  0.36238964  0.67978808  0.17003798  1
  Na  Na11  1  0.31739744  0.67978808  0.67003798  1
  Ca  Ca12  1  0.01455069  0.01172942  0.34633494  1
  Ca  Ca13  1  0.99717873  0.01172942  0.84633494  1
  Ca  Ca14  1  0.98808725  0.98022368  0.66302844  1
  Ca  Ca15  1  0.99213642  0.98022368  0.16302844  1
  Ca  Ca16  1  0.67759286  0.33971911  0.68840790  1
  Ca  Ca17  1  0.66212724  0.33971911  0.18840790  1
  Ca  Ca18  1  0.66540623  0.32987036  0.97648384  1
  Ca  Ca19  1  0.66446512  0.32987036  0.47648384  1
  Ca  Ca20  1  0.34246638  0.66264302  0.01521695  1
  Ca  Ca21  1  0.32017564  0.66264302  0.51521695  1
  Ta  Ta22  1  0.33256198  0.66234445  0.31567791  1
  Ta  Ta23  1  0.32978147  0.66234445  0.81567791  1
  P  P24  1  0.31003759  0.98940749  0.25028812  1
  P  P25  1  0.69018869  0.69291143  0.25892173  1
  P  P26  1  0.00272274  0.69291143  0.75892173  1
  P  P27  1  0.67936990  0.98940749  0.75028812  1
  P  P28  1  0.04262242  0.37624077  0.91788167  1
  P  P29  1  0.33361734  0.37624077  0.41788167  1
  S  S30  1  0.01078981  0.31741470  0.25105523  1
  S  S31  1  0.30662490  0.31741470  0.75105523  1
  S  S32  1  0.96642986  0.32554853  0.58351850  1
  S  S33  1  0.36903152  0.04007349  0.58371944  1
  S  S34  1  0.66757545  0.63694801  0.58050823  1
  S  S35  1  0.96937356  0.63694801  0.08050823  1
  S  S36  1  0.67104296  0.04007349  0.08371944  1
  S  S37  1  0.35911967  0.32554853  0.08351850  1
  S  S38  1  0.62888096  0.66588409  0.91292497  1
  S  S39  1  0.33321135  0.95404643  0.91460196  1
  S  S40  1  0.62083409  0.95404643  0.41460196  1
  S  S41  1  0.03700213  0.66588409  0.41292497  1
  O  O42  1  0.21031919  0.01215644  0.29664601  1
  O  O43  1  0.78614369  0.77610342  0.31286074  1
  O  O44  1  0.99054946  0.21048614  0.29922002  1
  O  O45  1  0.21993668  0.21048614  0.79922002  1
  O  O46  1  0.98995974  0.77610342  0.81286074  1
  O  O47  1  0.80183726  0.01215644  0.79664601  1
  O  O48  1  0.72971331  0.95071091  0.69181461  1
  O  O49  1  0.21199821  0.25720013  0.69715807  1
  O  O50  1  0.04524057  0.79957097  0.70523506  1
  O  O51  1  0.75433040  0.79957097  0.20523506  1
  O  O52  1  0.04520192  0.25720013  0.19715807  1
  O  O53  1  0.22099760  0.95071091  0.19181461  1
  O  O54  1  0.88197798  0.33680030  0.63465947  1
  O  O55  1  0.47129158  0.12567434  0.63389004  1
  O  O56  1  0.65285807  0.53106021  0.62935742  1
  O  O57  1  0.87820313  0.53106021  0.12935742  1
  O  O58  1  0.65438376  0.12567434  0.13389004  1
  O  O59  1  0.45482332  0.33680030  0.13465947  1
  O  O60  1  0.44425109  0.31470284  0.03166126  1
  O  O61  1  0.88080226  0.56070099  0.02649412  1
  O  O62  1  0.68595777  0.13620044  0.03105043  1
  O  O63  1  0.45024367  0.13620044  0.53105043  1
  O  O64  1  0.67989973  0.56070099  0.52649412  1
  O  O65  1  0.87045275  0.31470284  0.53166126  1
  O  O66  1  0.55361831  0.67831894  0.96581145  1
  O  O67  1  0.12321514  0.45203157  0.97518315  1
  O  O68  1  0.32462043  0.86968330  0.96885458  1
  O  O69  1  0.54506187  0.86968330  0.46885458  1
  O  O70  1  0.32881543  0.45203157  0.47518315  1
  O  O71  1  0.12469963  0.67831894  0.46581145  1
  O  O72  1  0.13996184  0.66516477  0.36327032  1
  O  O73  1  0.50710691  0.84847093  0.36618944  1
  O  O74  1  0.32853934  0.49732445  0.36872859  1
  O  O75  1  0.16878411  0.49732445  0.86872859  1
  O  O76  1  0.34136302  0.84847093  0.86618944  1
  O  O77  1  0.52520194  0.66516477  0.86327032  1
  O  O78  1  0.00865980  0.81005532  0.40957001  1
  O  O79  1  0.78364815  0.96130036  0.40887186  1
  O  O80  1  0.18339442  0.20202798  0.41202827  1
  O  O81  1  0.01863357  0.20202798  0.91202827  1
  O  O82  1  0.17765222  0.96130036  0.90887186  1
  O  O83  1  0.80139552  0.81005532  0.90957001  1
  O  O84  1  0.98254254  0.17090199  0.58591356  1
  O  O85  1  0.20100400  0.02677387  0.58756304  1
  O  O86  1  0.81376373  0.80883640  0.58527697  1
  O  O87  1  0.99507267  0.80883640  0.08527697  1
  O  O88  1  0.82576986  0.02677387  0.08756304  1
  O  O89  1  0.18835946  0.17090199  0.08591356  1
  O  O90  1  0.64073827  0.13172411  0.74838125  1
  O  O91  1  0.47828133  0.35019173  0.74682217  1
  O  O92  1  0.85827509  0.51537451  0.75287872  1
  O  O93  1  0.65710042  0.51537451  0.25287872  1
  O  O94  1  0.87191140  0.35019173  0.24682217  1
  O  O95  1  0.49098684  0.13172411  0.24838125  1
  O  O96  1  0.63871706  0.51046404  0.91039555  1
  O  O97  1  0.88001744  0.38442806  0.90913475  1
  O  O98  1  0.48306290  0.11908114  0.91074862  1
  O  O99  1  0.63601924  0.11908114  0.41074862  1
  O  O100  1  0.50441162  0.38442806  0.40913475  1
  O  O101  1  0.87174798  0.51046404  0.41039555  1
  O  O102  1  0.33151617  0.47193561  0.08206237  1
  O  O103  1  0.14131109  0.65312300  0.08032625  1
  O  O104  1  0.51674754  0.87200217  0.08094683  1
  O  O105  1  0.35525362  0.87200217  0.58094683  1
  O  O106  1  0.51181091  0.65312300  0.58032625  1
  O  O107  1  0.14041844  0.47193561  0.58206237  1
  O  O108  1  0.32052961  0.82386116  0.26647172  1
  O  O109  1  0.50457665  0.67213634  0.26861929  1
  O  O110  1  0.16863054  0.48857804  0.26216256  1
  O  O111  1  0.31994650  0.48857804  0.76216256  1
  O  O112  1  0.16755869  0.67213634  0.76861929  1
  O  O113  1  0.50333055  0.82386116  0.76647172  1
