# generated using pymatgen
data_Nb5Zn(PO4)9
_symmetry_space_group_name_H-M   'P 1'
_cell_length_a   8.79503730
_cell_length_b   8.79503702
_cell_length_c   22.68220003
_cell_angle_alpha   90.00000000
_cell_angle_beta   90.00000000
_cell_angle_gamma   120.00000107
_symmetry_Int_Tables_number   1
_chemical_formula_structural   Nb5Zn(PO4)9
_chemical_formula_sum   'Nb10 Zn2 P18 O72'
_cell_volume   1519.46660770
_cell_formula_units_Z   2
loop_
 _symmetry_equiv_pos_site_id
 _symmetry_equiv_pos_as_xyz
  1  'x, y, z'
loop_
 _atom_site_type_symbol
 _atom_site_label
 _atom_site_symmetry_multiplicity
 _atom_site_fract_x
 _atom_site_fract_y
 _atom_site_fract_z
 _atom_site_occupancy
  Nb  Nb0  1  0.00000000  0.00000000  0.35517749  1
  Nb  Nb1  1  0.00000000  0.00000000  0.85517749  1
  Nb  Nb2  1  0.00000000  0.00000000  0.64285475  1
  Nb  Nb3  1  0.00000000  0.00000000  0.14285475  1
  Nb  Nb4  1  0.66666700  0.33333300  0.97767629  1
  Nb  Nb5  1  0.66666700  0.33333300  0.47767629  1
  Nb  Nb6  1  0.33333300  0.66666700  0.02466128  1
  Nb  Nb7  1  0.33333300  0.66666700  0.52466128  1
  Nb  Nb8  1  0.33333300  0.66666700  0.30646933  1
  Nb  Nb9  1  0.33333300  0.66666700  0.80646933  1
  Zn  Zn10  1  0.66666700  0.33333300  0.68950468  1
  Zn  Zn11  1  0.66666700  0.33333300  0.18950468  1
  P  P12  1  0.29037657  0.00631746  0.24938809  1
  P  P13  1  0.71594090  0.70962343  0.24938809  1
  P  P14  1  0.99368254  0.28405910  0.24938809  1
  P  P15  1  0.29037657  0.28405910  0.74938809  1
  P  P16  1  0.99368254  0.70962343  0.74938809  1
  P  P17  1  0.71594090  0.00631746  0.74938809  1
  P  P18  1  0.94987282  0.33332567  0.58509307  1
  P  P19  1  0.38345385  0.05012718  0.58509307  1
  P  P20  1  0.66667433  0.61654615  0.58509307  1
  P  P21  1  0.94987282  0.61654615  0.08509307  1
  P  P22  1  0.66667433  0.05012718  0.08509307  1
  P  P23  1  0.38345385  0.33332567  0.08509307  1
  P  P24  1  0.61718001  0.66649129  0.91620790  1
  P  P25  1  0.04931028  0.38281999  0.91620790  1
  P  P26  1  0.33350871  0.95068972  0.91620790  1
  P  P27  1  0.61718001  0.95068972  0.41620790  1
  P  P28  1  0.33350871  0.38281999  0.41620790  1
  P  P29  1  0.04931028  0.66649129  0.41620790  1
  O  O30  1  0.19138606  0.02060739  0.30490384  1
  O  O31  1  0.82922134  0.80861395  0.30490384  1
  O  O32  1  0.97939261  0.17077866  0.30490384  1
  O  O33  1  0.19138606  0.17077866  0.80490384  1
  O  O34  1  0.97939261  0.80861395  0.80490384  1
  O  O35  1  0.82922134  0.02060739  0.80490384  1
  O  O36  1  0.80102485  0.96651772  0.69543125  1
  O  O37  1  0.16549287  0.19897515  0.69543125  1
  O  O38  1  0.03348228  0.83450713  0.69543125  1
  O  O39  1  0.80102485  0.83450713  0.19543125  1
  O  O40  1  0.03348228  0.19897515  0.19543125  1
  O  O41  1  0.16549287  0.96651772  0.19543125  1
  O  O42  1  0.88009073  0.37317804  0.63894758  1
  O  O43  1  0.49308830  0.11990927  0.63894758  1
  O  O44  1  0.62682196  0.50691170  0.63894758  1
  O  O45  1  0.88009073  0.50691170  0.13894758  1
  O  O46  1  0.62682196  0.11990927  0.13894758  1
  O  O47  1  0.49308830  0.37317804  0.13894758  1
  O  O48  1  0.46692522  0.30375141  0.02814462  1
  O  O49  1  0.83682719  0.53307478  0.02814462  1
  O  O50  1  0.69624859  0.16317281  0.02814462  1
  O  O51  1  0.46692522  0.16317281  0.52814462  1
  O  O52  1  0.69624859  0.53307478  0.52814462  1
  O  O53  1  0.83682719  0.30375141  0.52814462  1
  O  O54  1  0.53275772  0.69612046  0.97118796  1
  O  O55  1  0.16336175  0.46724228  0.97118796  1
  O  O56  1  0.30387954  0.83663825  0.97118796  1
  O  O57  1  0.53275772  0.83663825  0.47118796  1
  O  O58  1  0.30387954  0.46724228  0.47118796  1
  O  O59  1  0.16336175  0.69612046  0.47118796  1
  O  O60  1  0.13390014  0.63552997  0.36165604  1
  O  O61  1  0.50162883  0.86609986  0.36165604  1
  O  O62  1  0.36447003  0.49837117  0.36165604  1
  O  O63  1  0.13390014  0.49837117  0.86165604  1
  O  O64  1  0.36447003  0.86609986  0.86165604  1
  O  O65  1  0.50162883  0.63552997  0.86165604  1
  O  O66  1  0.02593017  0.82755559  0.40686459  1
  O  O67  1  0.80162542  0.97406983  0.40686459  1
  O  O68  1  0.17244441  0.19837458  0.40686459  1
  O  O69  1  0.02593017  0.19837458  0.90686459  1
  O  O70  1  0.17244441  0.97406983  0.90686459  1
  O  O71  1  0.80162542  0.82755559  0.90686459  1
  O  O72  1  0.97495880  0.17038309  0.59170629  1
  O  O73  1  0.19542430  0.02504120  0.59170629  1
  O  O74  1  0.82961691  0.80457570  0.59170629  1
  O  O75  1  0.97495880  0.80457570  0.09170629  1
  O  O76  1  0.82961691  0.02504120  0.09170629  1
  O  O77  1  0.19542430  0.17038309  0.09170629  1
  O  O78  1  0.69402590  0.16154338  0.74383522  1
  O  O79  1  0.46751848  0.30597410  0.74383522  1
  O  O80  1  0.83845662  0.53248152  0.74383522  1
  O  O81  1  0.69402590  0.53248152  0.24383522  1
  O  O82  1  0.83845662  0.30597410  0.24383522  1
  O  O83  1  0.46751848  0.16154338  0.24383522  1
  O  O84  1  0.63930891  0.50448913  0.92692092  1
  O  O85  1  0.86518122  0.36069109  0.92692092  1
  O  O86  1  0.49551087  0.13481878  0.92692092  1
  O  O87  1  0.63930891  0.13481878  0.42692092  1
  O  O88  1  0.49551087  0.36069109  0.42692092  1
  O  O89  1  0.86518122  0.50448913  0.42692092  1
  O  O90  1  0.35338740  0.49091206  0.07031605  1
  O  O91  1  0.13752366  0.64661260  0.07031605  1
  O  O92  1  0.50908794  0.86247634  0.07031605  1
  O  O93  1  0.35338740  0.86247634  0.57031605  1
  O  O94  1  0.50908794  0.64661260  0.57031605  1
  O  O95  1  0.13752366  0.49091206  0.57031605  1
  O  O96  1  0.29784564  0.83292560  0.26061531  1
  O  O97  1  0.53507896  0.70215436  0.26061531  1
  O  O98  1  0.16707440  0.46492104  0.26061531  1
  O  O99  1  0.29784564  0.46492104  0.76061531  1
  O  O100  1  0.16707440  0.70215436  0.76061531  1
  O  O101  1  0.53507896  0.83292560  0.76061531  1
