# generated using pymatgen
data_Na14Sc3Nb5(SiO4)12
_symmetry_space_group_name_H-M   'P 1'
_cell_length_a   18.32971913
_cell_length_b   9.16178357
_cell_length_c   22.60551767
_cell_angle_alpha   90.04501561
_cell_angle_beta   89.87804328
_cell_angle_gamma   120.02707502
_symmetry_Int_Tables_number   1
_chemical_formula_structural   Na14Sc3Nb5(SiO4)12
_chemical_formula_sum   'Na42 Sc9 Nb15 Si36 O144'
_cell_volume   3286.70987146
_cell_formula_units_Z   3
loop_
 _symmetry_equiv_pos_site_id
 _symmetry_equiv_pos_as_xyz
  1  'x, y, z'
loop_
 _atom_site_type_symbol
 _atom_site_label
 _atom_site_symmetry_multiplicity
 _atom_site_fract_x
 _atom_site_fract_y
 _atom_site_fract_z
 _atom_site_occupancy
  Na  Na0  1  0.31954124  0.01129361  0.24794809  1
  Na  Na1  1  0.81627487  0.00930351  0.24666794  1
  Na  Na2  1  0.18880791  0.36822501  0.24638757  1
  Na  Na3  1  0.68604598  0.36080786  0.24822633  1
  Na  Na4  1  0.99529076  0.62279758  0.24709979  1
  Na  Na5  1  0.49390602  0.62749285  0.24774492  1
  Na  Na6  1  0.31669257  0.62446768  0.74754576  1
  Na  Na7  1  0.81652755  0.62420156  0.74774450  1
  Na  Na8  1  0.99519486  0.36681761  0.74787322  1
  Na  Na9  1  0.49512008  0.36648497  0.74771760  1
  Na  Na10  1  0.18851762  0.00910009  0.74757069  1
  Na  Na11  1  0.68813652  0.00879877  0.74758011  1
  Na  Na12  1  0.15313086  0.34625964  0.58059740  1
  Na  Na13  1  0.65255572  0.34460217  0.58077830  1
  Na  Na14  1  0.01999598  0.69454956  0.58048829  1
  Na  Na15  1  0.51938176  0.69409679  0.58076974  1
  Na  Na16  1  0.32725571  0.95946819  0.58057576  1
  Na  Na17  1  0.82750338  0.96050152  0.58130065  1
  Na  Na18  1  0.15381863  0.96129039  0.08070361  1
  Na  Na19  1  0.65262152  0.96058772  0.08099322  1
  Na  Na20  1  0.32789050  0.69560705  0.08153222  1
  Na  Na21  1  0.82709717  0.69384377  0.08115351  1
  Na  Na22  1  0.01942499  0.34522511  0.08043191  1
  Na  Na23  1  0.51921048  0.34407492  0.08090394  1
  Na  Na24  1  0.34842246  0.03011943  0.91922102  1
  Na  Na25  1  0.84834073  0.03013389  0.91915667  1
  Na  Na26  1  0.48477056  0.29292130  0.41536128  1
  Na  Na27  1  0.66109354  0.03004293  0.41516176  1
  Na  Na28  1  0.35310964  0.67779003  0.41562441  1
  Na  Na29  1  0.84851984  0.66763125  0.41752864  1
  Na  Na30  1  0.00386007  0.00748385  0.49726782  1
  Na  Na31  1  0.49957660  0.99993975  0.49448718  1
  Na  Na32  1  0.00367080  0.99976747  0.99793873  1
  Na  Na33  1  0.50355583  0.99982397  0.99879927  1
  Na  Na34  1  0.33312307  0.33913972  0.83359879  1
  Na  Na35  1  0.83309989  0.33911005  0.83356750  1
  Na  Na36  1  0.33103874  0.32897684  0.33030710  1
  Na  Na37  1  0.83541148  0.33140347  0.33043779  1
  Na  Na38  1  0.16732412  0.66709614  0.16153917  1
  Na  Na39  1  0.66635282  0.66673094  0.16129371  1
  Na  Na40  1  0.16704141  0.66704895  0.66192388  1
  Na  Na41  1  0.66656415  0.66667583  0.66226488  1
  Sc  Sc42  1  0.49938890  0.99978064  0.35101867  1
  Sc  Sc43  1  0.33349961  0.33352945  0.68501359  1
  Sc  Sc44  1  0.83301745  0.33280123  0.68514918  1
  Sc  Sc45  1  0.33352272  0.33383565  0.18382908  1
  Sc  Sc46  1  0.83286333  0.33252549  0.18415729  1
  Sc  Sc47  1  0.16612276  0.66606202  0.01643957  1
  Sc  Sc48  1  0.66589257  0.66571086  0.01643865  1
  Sc  Sc49  1  0.16494422  0.66482091  0.51641523  1
  Sc  Sc50  1  0.66755884  0.66790603  0.51731451  1
  Nb  Nb51  1  0.00294670  0.00452837  0.35439071  1
  Nb  Nb52  1  0.00208357  0.00018148  0.85529567  1
  Nb  Nb53  1  0.50202920  0.00006799  0.85527197  1
  Nb  Nb54  1  0.99983166  0.99933474  0.64666456  1
  Nb  Nb55  1  0.49978064  0.99968123  0.64601369  1
  Nb  Nb56  1  0.99971369  0.00023663  0.14586703  1
  Nb  Nb57  1  0.49974532  0.00001867  0.14725249  1
  Nb  Nb58  1  0.33344306  0.33812387  0.97926072  1
  Nb  Nb59  1  0.83330466  0.33827478  0.97914767  1
  Nb  Nb60  1  0.32976439  0.32760987  0.47949176  1
  Nb  Nb61  1  0.83696535  0.33452393  0.47958727  1
  Nb  Nb62  1  0.16755808  0.66868299  0.31552385  1
  Nb  Nb63  1  0.66571519  0.66549526  0.31446040  1
  Nb  Nb64  1  0.16657713  0.66575846  0.81630980  1
  Nb  Nb65  1  0.66635047  0.66547595  0.81628777  1
  Si  Si66  1  0.14495744  0.99815413  0.25003018  1
  Si  Si67  1  0.64633236  0.00018535  0.25145396  1
  Si  Si68  1  0.35320782  0.70677080  0.25158589  1
  Si  Si69  1  0.85492307  0.71073208  0.25147463  1
  Si  Si70  1  0.00073084  0.29082261  0.25092031  1
  Si  Si71  1  0.49987015  0.29317026  0.25145383  1
  Si  Si72  1  0.14478552  0.29139229  0.75056777  1
  Si  Si73  1  0.64459615  0.29109508  0.75047743  1
  Si  Si74  1  0.00084608  0.71039670  0.75100206  1
  Si  Si75  1  0.50086210  0.71079966  0.75084522  1
  Si  Si76  1  0.35463585  0.99834539  0.75150693  1
  Si  Si77  1  0.85447601  0.99822607  0.75162403  1
  Si  Si78  1  0.47901592  0.33402359  0.58424914  1
  Si  Si79  1  0.98007217  0.33402228  0.58548123  1
  Si  Si80  1  0.18696217  0.03953268  0.58558186  1
  Si  Si81  1  0.68810776  0.04260968  0.58418264  1
  Si  Si82  1  0.33266874  0.62408421  0.58428706  1
  Si  Si83  1  0.83313894  0.62466757  0.58469603  1
  Si  Si84  1  0.47975359  0.62567896  0.08455255  1
  Si  Si85  1  0.97955606  0.62457003  0.08490226  1
  Si  Si86  1  0.33305033  0.04145927  0.08398961  1
  Si  Si87  1  0.83285461  0.04173328  0.08369684  1
  Si  Si88  1  0.18774868  0.33421393  0.08454221  1
  Si  Si89  1  0.68745461  0.33376367  0.08469312  1
  Si  Si90  1  0.31280561  0.66436093  0.91762368  1
  Si  Si91  1  0.81271919  0.66453494  0.91758553  1
  Si  Si92  1  0.02000644  0.37447129  0.91829326  1
  Si  Si93  1  0.51995239  0.37422781  0.91826291  1
  Si  Si94  1  0.16650580  0.95998704  0.91842170  1
  Si  Si95  1  0.66644191  0.95986385  0.91838879  1
  Si  Si96  1  0.31272332  0.96014478  0.41877323  1
  Si  Si97  1  0.81358743  0.96011472  0.41714209  1
  Si  Si98  1  0.16597822  0.37426913  0.41833166  1
  Si  Si99  1  0.66669024  0.37247491  0.41833784  1
  Si  Si100  1  0.02151414  0.66769153  0.41789845  1
  Si  Si101  1  0.51938196  0.66644368  0.41876649  1
  O  O102  1  0.09356073  0.02206500  0.30506837  1
  O  O103  1  0.60457293  0.03153196  0.30888277  1
  O  O104  1  0.41062301  0.79035643  0.30884279  1
  O  O105  1  0.91561438  0.80746907  0.30775504  1
  O  O106  1  0.48456811  0.17859671  0.30883799  1
  O  O107  1  0.98814731  0.16276556  0.30540227  1
  O  O108  1  0.09336305  0.16374957  0.80501862  1
  O  O109  1  0.59349642  0.16391235  0.80506000  1
  O  O110  1  0.48793966  0.81295514  0.80526200  1
  O  O111  1  0.98785143  0.81304181  0.80520209  1
  O  O112  1  0.41557409  0.02408055  0.80749951  1
  O  O113  1  0.91563029  0.02409609  0.80745197  1
  O  O114  1  0.40095612  0.96573188  0.69300202  1
  O  O115  1  0.90086974  0.96578777  0.69298784  1
  O  O116  1  0.08227794  0.19922922  0.69216229  1
  O  O117  1  0.58244043  0.19947744  0.69212511  1
  O  O118  1  0.01732392  0.83547488  0.69234871  1
  O  O119  1  0.51745611  0.83560488  0.69232091  1
  O  O120  1  0.40012845  0.83463134  0.19291098  1
  O  O121  1  0.90098606  0.83598761  0.19314581  1
  O  O122  1  0.01727873  0.19889445  0.19249324  1
  O  O123  1  0.51719335  0.19986324  0.19278958  1
  O  O124  1  0.08208644  0.96497184  0.19218858  1
  O  O125  1  0.58278261  0.96610631  0.19278177  1
  O  O126  1  0.43795439  0.36520967  0.64282138  1
  O  O127  1  0.93812034  0.36500548  0.64343815  1
  O  O128  1  0.24409502  0.12302243  0.64357149  1
  O  O129  1  0.74473376  0.12449478  0.64262930  1
  O  O130  1  0.31757952  0.51060321  0.64271456  1
  O  O131  1  0.81761465  0.51081034  0.64291310  1
  O  O132  1  0.43881130  0.51264279  0.14286318  1
  O  O133  1  0.93894509  0.51218274  0.14359866  1
  O  O134  1  0.31697033  0.12253056  0.14263005  1
  O  O135  1  0.81828268  0.12426391  0.14240212  1
  O  O136  1  0.24339081  0.36462399  0.14306204  1
  O  O137  1  0.74420710  0.36631817  0.14321747  1
  O  O138  1  0.23581999  0.29847591  0.02767127  1
  O  O139  1  0.73629641  0.29915866  0.02789224  1
  O  O140  1  0.41373880  0.52786566  0.02782218  1
  O  O141  1  0.91366912  0.52811788  0.02813382  1
  O  O142  1  0.35071697  0.16737021  0.02564864  1
  O  O143  1  0.85120540  0.16750288  0.02542491  1
  O  O144  1  0.23521560  0.17167813  0.52845488  1
  O  O145  1  0.73424057  0.16943585  0.52576989  1
  O  O146  1  0.35062557  0.53315461  0.52588872  1
  O  O147  1  0.85085001  0.53353162  0.52617313  1
  O  O148  1  0.41543649  0.29839515  0.52622177  1
  O  O149  1  0.91426396  0.29983931  0.52817645  1
  O  O150  1  0.27585922  0.70943600  0.97472527  1
  O  O151  1  0.77599585  0.70966407  0.97483290  1
  O  O152  1  0.07540853  0.45015170  0.97634881  1
  O  O153  1  0.57554364  0.45028223  0.97626872  1
  O  O154  1  0.15053065  0.84979152  0.97667994  1
  O  O155  1  0.65079318  0.84984360  0.97669168  1
  O  O156  1  0.27088942  0.84238268  0.47560482  1
  O  O157  1  0.77636999  0.84535546  0.47517139  1
  O  O158  1  0.15036795  0.44977744  0.47720153  1
  O  O159  1  0.65163766  0.45870790  0.47547459  1
  O  O160  1  0.07419476  0.69943452  0.47673121  1
  O  O161  1  0.57867611  0.69927156  0.47541234  1
  O  O162  1  0.06790612  0.63975145  0.35855462  1
  O  O163  1  0.56799710  0.63456869  0.35998858  1
  O  O164  1  0.25073645  0.86260853  0.35936018  1
  O  O165  1  0.75082464  0.86696648  0.35875839  1
  O  O166  1  0.18166886  0.49865508  0.35930487  1
  O  O167  1  0.68346913  0.50163477  0.35974686  1
  O  O168  1  0.06863759  0.49606861  0.85894203  1
  O  O169  1  0.56867093  0.49615680  0.85895545  1
  O  O170  1  0.18117097  0.86372788  0.85936613  1
  O  O171  1  0.68134366  0.86393703  0.85933740  1
  O  O172  1  0.25192655  0.64031022  0.85841536  1
  O  O173  1  0.75198656  0.64039936  0.85839583  1
  O  O174  1  0.00451020  0.82669571  0.40712774  1
  O  O175  1  0.50794922  0.82939917  0.41224749  1
  O  O176  1  0.40599076  0.98382666  0.41175497  1
  O  O177  1  0.90567448  0.97486268  0.40692419  1
  O  O178  1  0.08440166  0.18527337  0.40717126  1
  O  O179  1  0.58519874  0.18680660  0.41212701  1
  O  O180  1  0.00502391  0.18263087  0.90697108  1
  O  O181  1  0.50506105  0.18264493  0.90692164  1
  O  O182  1  0.08404821  0.98232445  0.90694466  1
  O  O183  1  0.58411219  0.98233036  0.90695623  1
  O  O184  1  0.40489841  0.83549363  0.90603057  1
  O  O185  1  0.90494063  0.83555273  0.90607103  1
  O  O186  1  0.48454586  0.15736663  0.58916320  1
  O  O187  1  0.98440165  0.15650376  0.58885991  1
  O  O188  1  0.09385947  0.03107988  0.58911358  1
  O  O189  1  0.59439709  0.03130549  0.58911907  1
  O  O190  1  0.42134309  0.81176653  0.58930777  1
  O  O191  1  0.92160668  0.81227899  0.58911560  1
  O  O192  1  0.48474442  0.81259069  0.08846941  1
  O  O193  1  0.98447488  0.81172011  0.08896869  1
  O  O194  1  0.42150567  0.03046526  0.08902602  1
  O  O195  1  0.92136673  0.03022474  0.08920869  1
  O  O196  1  0.09398695  0.15695481  0.08898765  1
  O  O197  1  0.59412705  0.15695355  0.08874294  1
  O  O198  1  0.34507906  0.16387508  0.74788556  1
  O  O199  1  0.84514889  0.16394247  0.74783264  1
  O  O200  1  0.23654004  0.30926050  0.74800703  1
  O  O201  1  0.73659872  0.30929642  0.74800951  1
  O  O202  1  0.41787968  0.52687260  0.74806847  1
  O  O203  1  0.91781376  0.52690389  0.74800128  1
  O  O204  1  0.34044840  0.51967364  0.24511693  1
  O  O205  1  0.84557220  0.52616740  0.24848668  1
  O  O206  1  0.41868828  0.31778493  0.24522323  1
  O  O207  1  0.91798728  0.30886345  0.24852074  1
  O  O208  1  0.23664217  0.16339571  0.24849649  1
  O  O209  1  0.74009454  0.16288848  0.24513984  1
  O  O210  1  0.32179007  0.49538739  0.92177674  1
  O  O211  1  0.82184043  0.49562087  0.92178996  1
  O  O212  1  0.42403982  0.34799703  0.92146972  1
  O  O213  1  0.92401946  0.34806346  0.92150101  1
  O  O214  1  0.25466305  0.14336185  0.92125337  1
  O  O215  1  0.75463490  0.14344969  0.92139883  1
  O  O216  1  0.32187203  0.14963167  0.42245915  1
  O  O217  1  0.81746667  0.14395840  0.42178701  1
  O  O218  1  0.25459222  0.36665129  0.42208268  1
  O  O219  1  0.75489907  0.36311334  0.42179987  1
  O  O220  1  0.42679575  0.49028888  0.42183400  1
  O  O221  1  0.92487215  0.49943350  0.42216967  1
  O  O222  1  0.17488891  0.49590031  0.07795517  1
  O  O223  1  0.67523199  0.49630596  0.07798751  1
  O  O224  1  0.07327884  0.65080238  0.07847604  1
  O  O225  1  0.57347826  0.65095640  0.07826649  1
  O  O226  1  0.25217911  0.85282264  0.07823325  1
  O  O227  1  0.75230675  0.85305115  0.07836393  1
  O  O228  1  0.17435747  0.85290347  0.57892236  1
  O  O229  1  0.67511763  0.85486281  0.57832670  1
  O  O230  1  0.25216907  0.65097719  0.57861760  1
  O  O231  1  0.75260525  0.65135548  0.57888055  1
  O  O232  1  0.07321832  0.49547121  0.57910302  1
  O  O233  1  0.57318859  0.49556948  0.57852339  1
  O  O234  1  0.14961279  0.82315052  0.25630403  1
  O  O235  1  0.65184606  0.82388222  0.25551760  1
  O  O236  1  0.25958341  0.69701619  0.25525794  1
  O  O237  1  0.76247021  0.69997595  0.25678118  1
  O  O238  1  0.08775695  0.47533645  0.25688725  1
  O  O239  1  0.58878347  0.48006625  0.25551185  1
  O  O240  1  0.14999329  0.47618608  0.75609720  1
  O  O241  1  0.65018823  0.47627656  0.75614158  1
  O  O242  1  0.08797258  0.69998329  0.75652888  1
  O  O243  1  0.58792932  0.69982044  0.75661821  1
  O  O244  1  0.26156337  0.82389393  0.75621027  1
  O  O245  1  0.76161824  0.82386505  0.75605842  1
