# generated using pymatgen
data_K4Be3O5
_symmetry_space_group_name_H-M   'P 1'
_cell_length_a   6.28590976
_cell_length_b   6.28590976
_cell_length_c   10.72232841
_cell_angle_alpha   67.36723799
_cell_angle_beta   67.36723799
_cell_angle_gamma   70.23064877
_symmetry_Int_Tables_number   1
_chemical_formula_structural   K4Be3O5
_chemical_formula_sum   'K8 Be6 O10'
_cell_volume   351.82211313
_cell_formula_units_Z   2
loop_
 _symmetry_equiv_pos_site_id
 _symmetry_equiv_pos_as_xyz
  1  'x, y, z'
loop_
 _atom_site_type_symbol
 _atom_site_label
 _atom_site_symmetry_multiplicity
 _atom_site_fract_x
 _atom_site_fract_y
 _atom_site_fract_z
 _atom_site_occupancy
  K  K0  1  0.44264703  0.22473792  0.59456548  1
  K  K1  1  0.77526208  0.55735297  0.90543452  1
  K  K2  1  0.55735297  0.77526208  0.40543452  1
  K  K3  1  0.22473792  0.44264703  0.09456548  1
  K  K4  1  0.25425231  0.09148060  0.92443939  1
  K  K5  1  0.90851940  0.74574769  0.57556061  1
  K  K6  1  0.74574769  0.90851940  0.07556061  1
  K  K7  1  0.09148060  0.25425231  0.42443939  1
  Be  Be8  1  0.31099912  0.68900088  0.75000000  1
  Be  Be9  1  0.68900088  0.31099912  0.25000000  1
  Be  Be10  1  0.26737680  0.73262320  0.25000000  1
  Be  Be11  1  0.73262320  0.26737680  0.75000000  1
  Be  Be12  1  0.97904173  0.02095827  0.25000000  1
  Be  Be13  1  0.02095827  0.97904173  0.75000000  1
  O  O14  1  0.47770645  0.52229355  0.25000000  1
  O  O15  1  0.52229355  0.47770645  0.75000000  1
  O  O16  1  0.87433151  0.22815291  0.12152970  1
  O  O17  1  0.77184709  0.12566849  0.37847030  1
  O  O18  1  0.12566849  0.77184709  0.87847030  1
  O  O19  1  0.22815291  0.87433151  0.62152970  1
  O  O20  1  0.26566113  0.99019088  0.23180652  1
  O  O21  1  0.00980912  0.73433887  0.26819348  1
  O  O22  1  0.73433887  0.00980912  0.76819348  1
  O  O23  1  0.99019088  0.26566113  0.73180652  1
