# generated using pymatgen
data_Na7La2Hf2Si3(PO8)3
_symmetry_space_group_name_H-M   'P 1'
_cell_length_a   9.43361086
_cell_length_b   9.44495493
_cell_length_c   23.15014709
_cell_angle_alpha   90.03315122
_cell_angle_beta   90.09251176
_cell_angle_gamma   120.07637469
_symmetry_Int_Tables_number   1
_chemical_formula_structural   Na7La2Hf2Si3(PO8)3
_chemical_formula_sum   'Na21 La6 Hf6 Si9 P9 O72'
_cell_volume   1784.95125398
_cell_formula_units_Z   3
loop_
 _symmetry_equiv_pos_site_id
 _symmetry_equiv_pos_as_xyz
  1  'x, y, z'
loop_
 _atom_site_type_symbol
 _atom_site_label
 _atom_site_symmetry_multiplicity
 _atom_site_fract_x
 _atom_site_fract_y
 _atom_site_fract_z
 _atom_site_occupancy
  Na  Na0  1  0.63489762  0.00437532  0.25531910  1
  Na  Na1  1  0.36342007  0.36995237  0.24680535  1
  Na  Na2  1  0.00126287  0.61921570  0.25077474  1
  Na  Na3  1  0.63593780  0.63574389  0.74631384  1
  Na  Na4  1  0.98783407  0.36103820  0.74465140  1
  Na  Na5  1  0.37786051  0.00267428  0.74241788  1
  Na  Na6  1  0.03403792  0.69192909  0.58161563  1
  Na  Na7  1  0.65978354  0.97173357  0.58118755  1
  Na  Na8  1  0.67063411  0.68780506  0.08213382  1
  Na  Na9  1  0.02954072  0.34261096  0.08747192  1
  Na  Na10  1  0.95596423  0.66250910  0.92417409  1
  Na  Na11  1  0.69829088  0.03023292  0.91865454  1
  Na  Na12  1  0.34312495  0.30697274  0.92177290  1
  Na  Na13  1  0.96640446  0.30889047  0.41665866  1
  Na  Na14  1  0.33588322  0.02575213  0.41997167  1
  Na  Na15  1  0.00078610  0.99880579  0.50012159  1
  Na  Na16  1  0.01124305  0.99315603  0.00402341  1
  Na  Na17  1  0.66659771  0.33345437  0.83301016  1
  Na  Na18  1  0.67859992  0.34451064  0.33692887  1
  Na  Na19  1  0.32085528  0.66446665  0.16407750  1
  Na  Na20  1  0.33367703  0.66032414  0.66227786  1
  La  La21  1  0.99331568  0.99771831  0.85084404  1
  La  La22  1  0.66556035  0.32950633  0.66870048  1
  La  La23  1  0.66799147  0.33297411  0.18045218  1
  La  La24  1  0.66139320  0.33482508  0.99500477  1
  La  La25  1  0.33073803  0.66347740  0.32410996  1
  La  La26  1  0.34003405  0.66878279  0.81451853  1
  Hf  Hf27  1  0.99169198  0.99721819  0.35667258  1
  Hf  Hf28  1  0.00267454  0.00647979  0.64411559  1
  Hf  Hf29  1  0.00769411  0.00562108  0.14898191  1
  Hf  Hf30  1  0.66644827  0.33197797  0.48679595  1
  Hf  Hf31  1  0.33481277  0.66872367  0.01828772  1
  Hf  Hf32  1  0.33329753  0.66742269  0.51233316  1
  Si  Si33  1  0.99916942  0.28616630  0.25226310  1
  Si  Si34  1  0.70313140  0.00320394  0.74550446  1
  Si  Si35  1  0.97875786  0.33687779  0.58206539  1
  Si  Si36  1  0.35736909  0.01992583  0.58141535  1
  Si  Si37  1  0.98771196  0.65444867  0.08393578  1
  Si  Si38  1  0.34700555  0.33615349  0.08317441  1
  Si  Si39  1  0.63228929  0.66268274  0.91884348  1
  Si  Si40  1  0.63741861  0.97659392  0.41733260  1
  Si  Si41  1  0.02355596  0.66387860  0.41721413  1
  P  P42  1  0.28051659  0.00083608  0.25363932  1
  P  P43  1  0.71981658  0.71990808  0.25040688  1
  P  P44  1  0.29346819  0.29244612  0.74641378  1
  P  P45  1  0.99742762  0.70476165  0.74468320  1
  P  P46  1  0.66488298  0.64049842  0.58285316  1
  P  P47  1  0.66851973  0.01190940  0.08464234  1
  P  P48  1  0.03743381  0.37179334  0.91964938  1
  P  P49  1  0.33593911  0.96305633  0.91836135  1
  P  P50  1  0.33618059  0.36088899  0.41685276  1
  O  O51  1  0.18956600  0.00509317  0.30902494  1
  O  O52  1  0.82292642  0.81698709  0.30431066  1
  O  O53  1  0.99752314  0.18038241  0.30972674  1
  O  O54  1  0.22681831  0.21020759  0.80543369  1
  O  O55  1  0.99036423  0.78092016  0.80295625  1
  O  O56  1  0.79308503  0.01888740  0.80777382  1
  O  O57  1  0.81935928  0.99784441  0.69226617  1
  O  O58  1  0.18086402  0.17732377  0.69683911  1
  O  O59  1  0.00182111  0.81504133  0.69338991  1
  O  O60  1  0.81024513  0.81317454  0.19540499  1
  O  O61  1  0.99832741  0.18293177  0.19508169  1
  O  O62  1  0.17960846  0.99681632  0.20016882  1
  O  O63  1  0.92623848  0.38721747  0.64237403  1
  O  O64  1  0.45954147  0.07558988  0.64180458  1
  O  O65  1  0.63165662  0.55901426  0.64246466  1
  O  O66  1  0.90755364  0.52535445  0.13852898  1
  O  O67  1  0.63619243  0.08892644  0.13814247  1
  O  O68  1  0.47205280  0.37965054  0.13836498  1
  O  O69  1  0.41667345  0.29954460  0.02449228  1
  O  O70  1  0.86874866  0.58169653  0.02710100  1
  O  O71  1  0.71039160  0.12288943  0.03114382  1
  O  O72  1  0.46594900  0.15207107  0.53052215  1
  O  O73  1  0.69094895  0.53291948  0.53784834  1
  O  O74  1  0.83612001  0.30671274  0.53326380  1
  O  O75  1  0.51532359  0.66529617  0.97154673  1
  O  O76  1  0.14545398  0.48340460  0.97018720  1
  O  O77  1  0.33359775  0.84870791  0.96699210  1
  O  O78  1  0.53305294  0.84830344  0.46912496  1
  O  O79  1  0.30871914  0.46489952  0.46256391  1
  O  O80  1  0.16251845  0.69221223  0.46688732  1
  O  O81  1  0.07976465  0.61343745  0.35721258  1
  O  O82  1  0.53376819  0.91606927  0.35698583  1
  O  O83  1  0.36916799  0.44595088  0.35768245  1
  O  O84  1  0.10718247  0.45819071  0.86131182  1
  O  O85  1  0.34337234  0.89197871  0.85894790  1
  O  O86  1  0.54210681  0.64882122  0.85676331  1
  O  O87  1  0.02529336  0.83967677  0.41231513  1
  O  O88  1  0.82494876  0.00260234  0.41295665  1
  O  O89  1  0.17503338  0.18805010  0.41442071  1
  O  O90  1  0.03905619  0.20874436  0.92438082  1
  O  O91  1  0.17901746  0.97541613  0.92414107  1
  O  O92  1  0.81007317  0.83282150  0.92514423  1
  O  O93  1  0.97800055  0.16107855  0.58688409  1
  O  O94  1  0.17037501  0.99288601  0.58673088  1
  O  O95  1  0.82767743  0.81199819  0.58502074  1
  O  O96  1  0.99588813  0.82905987  0.09550860  1
  O  O97  1  0.81809851  0.98723610  0.09395166  1
  O  O98  1  0.16049575  0.18141118  0.09308638  1
  O  O99  1  0.68282379  0.16620754  0.74359260  1
  O  O100  1  0.46918308  0.32083422  0.74163733  1
  O  O101  1  0.84078740  0.53371155  0.74285311  1
  O  O102  1  0.70404056  0.54799495  0.25210427  1
  O  O103  1  0.83129671  0.29961712  0.25445674  1
  O  O104  1  0.45120429  0.15906973  0.25263272  1
  O  O105  1  0.65367062  0.50035074  0.92011625  1
  O  O106  1  0.86068274  0.34143197  0.92371915  1
  O  O107  1  0.49285402  0.13344199  0.92192843  1
  O  O108  1  0.65886237  0.16042429  0.42940926  1
  O  O109  1  0.48011614  0.33183633  0.43147897  1
  O  O110  1  0.84464518  0.50460060  0.43330590  1
  O  O111  1  0.32733230  0.49982726  0.07580146  1
  O  O112  1  0.16663878  0.67028086  0.07384619  1
  O  O113  1  0.51819302  0.83871300  0.07518505  1
  O  O114  1  0.33902774  0.83789907  0.56881171  1
  O  O115  1  0.52218389  0.67046812  0.56736694  1
  O  O116  1  0.15669132  0.49410939  0.56514103  1
  O  O117  1  0.29643437  0.84514308  0.25124753  1
  O  O118  1  0.54906271  0.70653185  0.25091252  1
  O  O119  1  0.16717382  0.46742084  0.24904916  1
  O  O120  1  0.29143952  0.45532019  0.74131008  1
  O  O121  1  0.15510220  0.69231173  0.74085066  1
  O  O122  1  0.52574247  0.83206001  0.74030479  1
