# generated using pymatgen
data_MgV(TeO3)4
_symmetry_space_group_name_H-M   'P 1'
_cell_length_a   5.67159483
_cell_length_b   10.39127947
_cell_length_c   10.36627085
_cell_angle_alpha   28.63069047
_cell_angle_beta   57.13643764
_cell_angle_gamma   58.27418447
_symmetry_Int_Tables_number   1
_chemical_formula_structural   MgV(TeO3)4
_chemical_formula_sum   'Mg1 V1 Te4 O12'
_cell_volume   244.01809714
_cell_formula_units_Z   1
loop_
 _symmetry_equiv_pos_site_id
 _symmetry_equiv_pos_as_xyz
  1  'x, y, z'
loop_
 _atom_site_type_symbol
 _atom_site_label
 _atom_site_symmetry_multiplicity
 _atom_site_fract_x
 _atom_site_fract_y
 _atom_site_fract_z
 _atom_site_occupancy
  Mg  Mg0  1  0.81584641  0.54271340  0.74176541  1
  V  V1  1  0.34575148  0.06083348  0.23087978  1
  Te  Te2  1  0.95383384  0.90514168  0.08133749  1
  Te  Te3  1  0.06472295  0.63112017  0.85842493  1
  Te  Te4  1  0.43680884  0.12522845  0.50128870  1
  Te  Te5  1  0.47845489  0.44603134  0.51330424  1
  O  O6  1  0.43672961  0.40487331  0.96982519  1
  O  O7  1  0.09763035  0.00006984  0.78474132  1
  O  O8  1  0.04919138  0.24363595  0.82282261  1
  O  O9  1  0.99177195  0.27725864  0.10458151  1
  O  O10  1  0.31977491  0.69907350  0.19762952  1
  O  O11  1  0.62562533  0.19063236  0.56889184  1
  O  O12  1  0.16247000  0.72124505  0.57024654  1
  O  O13  1  0.56141708  0.07301085  0.00478280  1
  O  O14  1  0.27300311  0.98166828  0.50254547  1
  O  O15  1  0.86107690  0.58459315  0.28965365  1
  O  O16  1  0.75059352  0.82216875  0.36665089  1
  O  O17  1  0.64709647  0.77958980  0.74754512  1
