# generated using pymatgen
data_Na6Y4Ta4Si7S5O48
_symmetry_space_group_name_H-M   'P 1'
_cell_length_a   18.20436260
_cell_length_b   9.05813011
_cell_length_c   23.33799559
_cell_angle_alpha   90.16266280
_cell_angle_beta   89.74065528
_cell_angle_gamma   119.87313316
_symmetry_Int_Tables_number   1
_chemical_formula_structural   Na6Y4Ta4Si7S5O48
_chemical_formula_sum   'Na18 Y12 Ta12 Si21 S15 O144'
_cell_volume   3337.00955788
_cell_formula_units_Z   3
loop_
 _symmetry_equiv_pos_site_id
 _symmetry_equiv_pos_as_xyz
  1  'x, y, z'
loop_
 _atom_site_type_symbol
 _atom_site_label
 _atom_site_symmetry_multiplicity
 _atom_site_fract_x
 _atom_site_fract_y
 _atom_site_fract_z
 _atom_site_occupancy
  Na  Na0  1  0.00198509  0.61369581  0.25494608  1
  Na  Na1  1  0.49904676  0.63810731  0.26227317  1
  Na  Na2  1  0.99853125  0.36404340  0.75366764  1
  Na  Na3  1  0.50256616  0.39073384  0.75065004  1
  Na  Na4  1  0.33130171  0.98390351  0.57577548  1
  Na  Na5  1  0.82990603  0.67600087  0.07914524  1
  Na  Na6  1  0.00070835  0.97486026  0.50203671  1
  Na  Na7  1  0.50147556  0.01562032  0.49481868  1
  Na  Na8  1  0.99433208  0.98411427  0.99722011  1
  Na  Na9  1  0.50291115  0.02896279  0.00493774  1
  Na  Na10  1  0.32714356  0.35997325  0.82656087  1
  Na  Na11  1  0.83167551  0.33270353  0.83619349  1
  Na  Na12  1  0.33354361  0.33363710  0.33898055  1
  Na  Na13  1  0.82355138  0.29432837  0.32902654  1
  Na  Na14  1  0.17159294  0.65438301  0.17690375  1
  Na  Na15  1  0.66692329  0.66627095  0.16913495  1
  Na  Na16  1  0.16615942  0.66967733  0.66201409  1
  Na  Na17  1  0.67129494  0.68931875  0.66787091  1
  Y  Y18  1  0.50609064  0.99565181  0.64194069  1
  Y  Y19  1  0.00484979  0.01347585  0.14398422  1
  Y  Y20  1  0.33535680  0.34529540  0.68788715  1
  Y  Y21  1  0.82450899  0.32960292  0.68552474  1
  Y  Y22  1  0.32554054  0.32156159  0.18823033  1
  Y  Y23  1  0.83512766  0.32663133  0.18928873  1
  Y  Y24  1  0.66637924  0.64759032  0.01010169  1
  Y  Y25  1  0.16395887  0.68247701  0.50976155  1
  Y  Y26  1  0.17356129  0.66804502  0.31677396  1
  Y  Y27  1  0.66770549  0.68151910  0.32118758  1
  Y  Y28  1  0.16606197  0.64528547  0.81769725  1
  Y  Y29  1  0.67290398  0.67743579  0.81566133  1
  Ta  Ta30  1  0.99138530  0.00708247  0.35716655  1
  Ta  Ta31  1  0.50200038  0.98357514  0.35916010  1
  Ta  Ta32  1  0.99521695  0.01541768  0.85407575  1
  Ta  Ta33  1  0.49249069  0.97706544  0.85691044  1
  Ta  Ta34  1  0.99902351  0.00120859  0.64309465  1
  Ta  Ta35  1  0.49958065  0.00150180  0.14567174  1
  Ta  Ta36  1  0.34181110  0.33006306  0.97933819  1
  Ta  Ta37  1  0.83426133  0.34691047  0.98374768  1
  Ta  Ta38  1  0.33482712  0.32031883  0.48421618  1
  Ta  Ta39  1  0.83501490  0.35370955  0.47557737  1
  Ta  Ta40  1  0.16791230  0.66768109  0.01737179  1
  Ta  Ta41  1  0.66606437  0.65142173  0.51396886  1
  Si  Si42  1  0.64207520  0.99943124  0.24937973  1
  Si  Si43  1  0.35898315  0.71865432  0.24985000  1
  Si  Si44  1  0.00245965  0.29946326  0.25118277  1
  Si  Si45  1  0.14219887  0.27913621  0.74915350  1
  Si  Si46  1  0.50246147  0.70568931  0.75078627  1
  Si  Si47  1  0.85578762  0.00101777  0.74733691  1
  Si  Si48  1  0.48497212  0.34125953  0.58552360  1
  Si  Si49  1  0.18633063  0.04139036  0.58610899  1
  Si  Si50  1  0.83090387  0.62865610  0.58366310  1
  Si  Si51  1  0.98409976  0.63008986  0.08422720  1
  Si  Si52  1  0.33219065  0.03475128  0.08374096  1
  Si  Si53  1  0.68597014  0.32961649  0.08573199  1
  Si  Si54  1  0.31230651  0.65562400  0.91904628  1
  Si  Si55  1  0.82230783  0.67003035  0.91733097  1
  Si  Si56  1  0.01534291  0.37234372  0.91780157  1
  Si  Si57  1  0.51689762  0.36112357  0.91041797  1
  Si  Si58  1  0.32003649  0.97020102  0.41729706  1
  Si  Si59  1  0.81172009  0.96834059  0.42032015  1
  Si  Si60  1  0.66553513  0.36959508  0.41343236  1
  Si  Si61  1  0.01605407  0.67146319  0.41012705  1
  Si  Si62  1  0.51510099  0.65510187  0.41859701  1
  S  S63  1  0.14151746  0.00129598  0.25438144  1
  S  S64  1  0.85694548  0.71850948  0.25187337  1
  S  S65  1  0.50148224  0.28129229  0.24849958  1
  S  S66  1  0.64123527  0.27964008  0.75492688  1
  S  S67  1  0.00147794  0.72467270  0.74918537  1
  S  S68  1  0.35763818  0.99715525  0.75272595  1
  S  S69  1  0.97906207  0.32848847  0.58433269  1
  S  S70  1  0.69143767  0.03697922  0.57699542  1
  S  S71  1  0.32957669  0.62427745  0.57954245  1
  S  S72  1  0.47714789  0.62715885  0.08265891  1
  S  S73  1  0.83057610  0.03682368  0.07929812  1
  S  S74  1  0.19065822  0.34277962  0.07696472  1
  S  S75  1  0.16895706  0.96587204  0.91999248  1
  S  S76  1  0.66608317  0.97801206  0.91713961  1
  S  S77  1  0.16626354  0.35352975  0.41730803  1
  O  O78  1  0.09236761  0.00721008  0.30382973  1
  O  O79  1  0.58872851  0.00150717  0.30696779  1
  O  O80  1  0.41693003  0.81974209  0.30657109  1
  O  O81  1  0.90911497  0.82147307  0.30230028  1
  O  O82  1  0.49482953  0.18258080  0.29932431  1
  O  O83  1  0.00051140  0.17975016  0.30790493  1
  O  O84  1  0.08880796  0.16831939  0.80735056  1
  O  O85  1  0.59206531  0.17539197  0.80486773  1
  O  O86  1  0.50007748  0.82009639  0.80856133  1
  O  O87  1  0.99503442  0.81161480  0.80097887  1
  O  O88  1  0.40971986  0.99797193  0.80334129  1
  O  O89  1  0.91321785  0.01484100  0.80716917  1
  O  O90  1  0.39611257  0.98370927  0.69890696  1
  O  O91  1  0.91147425  0.99319769  0.69222120  1
  O  O92  1  0.08291721  0.17074674  0.69326028  1
  O  O93  1  0.59663450  0.20330161  0.70090987  1
  O  O94  1  0.00485097  0.81683169  0.69549806  1
  O  O95  1  0.50405596  0.81091694  0.69485886  1
  O  O96  1  0.41086845  0.83184671  0.19131894  1
  O  O97  1  0.89770405  0.80714689  0.19774416  1
  O  O98  1  0.00503868  0.20038702  0.19408527  1
  O  O99  1  0.50392629  0.19345295  0.19356055  1
  O  O100  1  0.09785737  0.99047296  0.19981970  1
  O  O101  1  0.58306751  0.99573617  0.19254415  1
  O  O102  1  0.45113979  0.36572144  0.64667076  1
  O  O103  1  0.94150870  0.34724504  0.63849682  1
  O  O104  1  0.24799710  0.12762840  0.63955261  1
  O  O105  1  0.73393356  0.10438202  0.63286473  1
  O  O106  1  0.32504227  0.53707746  0.63328667  1
  O  O107  1  0.81356970  0.51809937  0.64108482  1
  O  O108  1  0.43810004  0.52892823  0.13489837  1
  O  O109  1  0.95357139  0.53730916  0.14498055  1
  O  O110  1  0.31194919  0.11097488  0.13954745  1
  O  O111  1  0.82654582  0.11614908  0.13274036  1
  O  O112  1  0.23428052  0.36618713  0.13182278  1
  O  O113  1  0.74984030  0.37051685  0.13794643  1
  O  O114  1  0.23964943  0.32903077  0.02931517  1
  O  O115  1  0.73570588  0.30882650  0.02736643  1
  O  O116  1  0.42328097  0.53275345  0.03148581  1
  O  O117  1  0.91415774  0.50774702  0.03316074  1
  O  O118  1  0.34383561  0.16630003  0.02928168  1
  O  O119  1  0.83562887  0.13977688  0.02872387  1
  O  O120  1  0.23532713  0.16142945  0.52838524  1
  O  O121  1  0.74190357  0.15289256  0.53069103  1
  O  O122  1  0.33471203  0.53064007  0.52933427  1
  O  O123  1  0.84542601  0.52399333  0.53013347  1
  O  O124  1  0.41404408  0.32081576  0.53454368  1
  O  O125  1  0.92660477  0.31092666  0.53460546  1
  O  O126  1  0.26355807  0.69274553  0.97125085  1
  O  O127  1  0.79126970  0.71512404  0.97663890  1
  O  O128  1  0.08601325  0.48467615  0.96764910  1
  O  O129  1  0.57039992  0.43313983  0.96792373  1
  O  O130  1  0.15755506  0.85370651  0.96974937  1
  O  O131  1  0.64725740  0.87072892  0.96794207  1
  O  O132  1  0.28771759  0.86497553  0.47689026  1
  O  O133  1  0.76315792  0.83163150  0.47153284  1
  O  O134  1  0.14772650  0.42415896  0.46814750  1
  O  O135  1  0.65267479  0.46558713  0.47005602  1
  O  O136  1  0.07133255  0.71276621  0.46727290  1
  O  O137  1  0.58421413  0.68451340  0.46860340  1
  O  O138  1  0.05133454  0.62825138  0.35359916  1
  O  O139  1  0.54149612  0.61168431  0.35734731  1
  O  O140  1  0.25758750  0.89149274  0.36429693  1
  O  O141  1  0.76139275  0.91067843  0.36123380  1
  O  O142  1  0.18082963  0.45685143  0.36601047  1
  O  O143  1  0.68904773  0.48687469  0.35840920  1
  O  O144  1  0.04368688  0.47282345  0.85745633  1
  O  O145  1  0.55033188  0.47383327  0.85398648  1
  O  O146  1  0.18752399  0.90130059  0.86787469  1
  O  O147  1  0.68041503  0.90343775  0.86582482  1
  O  O148  1  0.26009421  0.61701291  0.86098798  1
  O  O149  1  0.76128710  0.63211000  0.86405147  1
  O  O150  1  0.00007801  0.83396560  0.39950544  1
  O  O151  1  0.50847408  0.83202890  0.41329666  1
  O  O152  1  0.41499855  -0.00009290  0.40335410  1
  O  O153  1  0.90925509  0.99227616  0.41004987  1
  O  O154  1  0.09014102  0.17715005  0.40844681  1
  O  O155  1  0.58254140  0.18077671  0.40696970  1
  O  O156  1  0.01017002  0.18216183  0.91112449  1
  O  O157  1  0.49946233  0.16577057  0.90087290  1
  O  O158  1  0.09293883  0.98326416  0.91534847  1
  O  O159  1  0.59039561  0.00370132  0.90850460  1
  O  O160  1  0.40941143  0.82392804  0.90990019  1
  O  O161  1  0.92055023  0.82774402  0.90379655  1
  O  O162  1  0.48346076  0.16008695  0.57989362  1
  O  O163  1  0.98385669  0.16532324  0.58789249  1
  O  O164  1  0.09133010  0.02525442  0.59207282  1
  O  O165  1  0.60702615  0.02505900  0.57686288  1
  O  O166  1  0.40617544  0.79758042  0.57909847  1
  O  O167  1  0.91881128  0.81665885  0.59131324  1
  O  O168  1  0.47938870  0.79476093  0.08470152  1
  O  O169  1  0.98371412  0.80870683  0.07825509  1
  O  O170  1  0.41845763  0.02047717  0.08962621  1
  O  O171  1  0.90720088  0.01643931  0.07839380  1
  O  O172  1  0.10593976  0.18980303  0.07677453  1
  O  O173  1  0.59125816  0.15543972  0.09088428  1
  O  O174  1  0.35853197  0.16037974  0.75594835  1
  O  O175  1  0.85823538  0.18317614  0.74864191  1
  O  O176  1  0.23374811  0.29789957  0.75110504  1
  O  O177  1  0.72531844  0.29108685  0.75583405  1
  O  O178  1  0.41786009  0.52116392  0.75734421  1
  O  O179  1  0.92619077  0.55061185  0.74723282  1
  O  O180  1  0.35952690  0.53800109  0.24759657  1
  O  O181  1  0.85728380  0.55630191  0.25491237  1
  O  O182  1  0.42534262  0.30268240  0.24513579  1
  O  O183  1  0.91782180  0.31488618  0.25757397  1
  O  O184  1  0.22579295  0.15830440  0.25531548  1
  O  O185  1  0.73328020  0.16647589  0.24949364  1
  O  O186  1  0.32788908  0.49765126  0.93594358  1
  O  O187  1  0.83278397  0.49815903  0.92815501  1
  O  O188  1  0.41912966  0.33342438  0.92701090  1
  O  O189  1  0.91940537  0.32712677  0.93559871  1
  O  O190  1  0.24312691  0.14072111  0.93234649  1
  O  O191  1  0.74086414  0.14952568  0.92471244  1
  O  O192  1  0.33251122  0.16498087  0.42900715  1
  O  O193  1  0.83227708  0.15960378  0.43844707  1
  O  O194  1  0.24070795  0.33086855  0.42492053  1
  O  O195  1  0.74492561  0.33785160  0.43249617  1
  O  O196  1  0.41858173  0.50646815  0.43627036  1
  O  O197  1  0.91954678  0.50696978  0.42579927  1
  O  O198  1  0.18019584  0.49648075  0.07006087  1
  O  O199  1  0.67681083  0.49886395  0.07821496  1
  O  O200  1  0.07719730  0.65251190  0.06505624  1
  O  O201  1  0.56269854  0.65469906  0.07510162  1
  O  O202  1  0.25069777  0.84877058  0.06603477  1
  O  O203  1  0.75472784  0.86564748  0.07622376  1
  O  O204  1  0.17657900  0.85324661  0.57924379  1
  O  O205  1  0.68079034  0.86565402  0.57056213  1
  O  O206  1  0.25386414  0.64417305  0.57669428  1
  O  O207  1  0.75050994  0.65524391  0.56893667  1
  O  O208  1  0.06619810  0.47130683  0.57887407  1
  O  O209  1  0.57720618  0.50750899  0.56991541  1
  O  O210  1  0.14966963  0.84794146  0.25612335  1
  O  O211  1  0.63953661  0.81671252  0.24661690  1
  O  O212  1  0.26704969  0.69981246  0.24911160  1
  O  O213  1  0.77232597  0.69754984  0.25479154  1
  O  O214  1  0.08530238  0.48733580  0.25130201  1
  O  O215  1  0.57774827  0.45101020  0.24768962  1
  O  O216  1  0.13954899  0.45810015  0.74887784  1
  O  O217  1  0.64933762  0.44896423  0.75769761  1
  O  O218  1  0.07875465  0.70956942  0.75098227  1
  O  O219  1  0.58525382  0.68352615  0.75133635  1
  O  O220  1  0.27169832  0.85144610  0.75806487  1
  O  O221  1  0.76559753  0.83397545  0.74844810  1
