# generated using pymatgen
data_Na9Ca4Nb8Si3(P5O24)3
_symmetry_space_group_name_H-M   'P 1'
_cell_length_a   9.01027968
_cell_length_b   8.99277613
_cell_length_c   22.94273542
_cell_angle_alpha   89.98865731
_cell_angle_beta   89.99592323
_cell_angle_gamma   119.88738580
_symmetry_Int_Tables_number   1
_chemical_formula_structural   Na9Ca4Nb8Si3(P5O24)3
_chemical_formula_sum   'Na9 Ca4 Nb8 Si3 P15 O72'
_cell_volume   1611.75703667
_cell_formula_units_Z   1
loop_
 _symmetry_equiv_pos_site_id
 _symmetry_equiv_pos_as_xyz
  1  'x, y, z'
loop_
 _atom_site_type_symbol
 _atom_site_label
 _atom_site_symmetry_multiplicity
 _atom_site_fract_x
 _atom_site_fract_y
 _atom_site_fract_z
 _atom_site_occupancy
  Na  Na0  1  0.98463224  0.63181311  0.24310860  1
  Na  Na1  1  0.36885098  0.01725678  0.74348324  1
  Na  Na2  1  0.31986766  0.03018728  0.41095633  1
  Na  Na3  1  0.99104540  0.00464780  0.49626790  1
  Na  Na4  1  0.00101409  0.00156158  0.99520736  1
  Na  Na5  1  0.68138368  0.34652994  0.82534722  1
  Na  Na6  1  0.66639467  0.32938408  0.32408252  1
  Na  Na7  1  0.34060949  0.66803254  0.16595643  1
  Na  Na8  1  0.33336027  0.66088641  0.66534170  1
  Ca  Ca9  1  0.99161526  0.00301201  0.35797420  1
  Ca  Ca10  1  0.99767935  0.00024164  0.85965699  1
  Ca  Ca11  1  0.67222476  0.33575345  0.68000185  1
  Ca  Ca12  1  0.66276148  0.32669955  0.17901332  1
  Nb  Nb13  1  0.00248889  0.00112984  0.64751066  1
  Nb  Nb14  1  0.00078134  -0.00014549  0.14724329  1
  Nb  Nb15  1  0.66895897  0.33740019  0.98131444  1
  Nb  Nb16  1  0.66452282  0.33629108  0.48239727  1
  Nb  Nb17  1  0.33140719  0.66820275  0.02030247  1
  Nb  Nb18  1  0.33152775  0.66326144  0.52057207  1
  Nb  Nb19  1  0.33762351  0.65974329  0.31182806  1
  Nb  Nb20  1  0.33464316  0.66409367  0.81197621  1
  Si  Si21  1  0.36661625  0.03538037  0.58557608  1
  Si  Si22  1  0.96315676  0.63294644  0.08572486  1
  Si  Si23  1  0.34282088  0.37950958  0.41884801  1
  P  P24  1  0.29187541  0.99532009  0.25381375  1
  P  P25  1  0.70586083  0.71164562  0.25043327  1
  P  P26  1  0.00522002  0.29627467  0.25099969  1
  P  P27  1  0.28772901  0.29384068  0.75158410  1
  P  P28  1  0.00444982  0.70956318  0.75273854  1
  P  P29  1  0.70619853  0.99448035  0.75208939  1
  P  P30  1  0.96273852  0.32972661  0.58200394  1
  P  P31  1  0.66964885  0.63439437  0.58272073  1
  P  P32  1  0.67013708  0.03684200  0.08118018  1
  P  P33  1  0.36791892  0.33139934  0.08142842  1
  P  P34  1  0.61189823  0.65377485  0.91891349  1
  P  P35  1  0.04242090  0.38770462  0.91864542  1
  P  P36  1  0.34662369  0.95953405  0.91769265  1
  P  P37  1  0.61235720  0.95547710  0.41900827  1
  P  P38  1  0.04220711  0.65182970  0.41717857  1
  O  O39  1  0.21183614  0.00660542  0.31041623  1
  O  O40  1  0.81175935  0.78950816  0.30405317  1
  O  O41  1  0.98868667  0.19944764  0.30581699  1
  O  O42  1  0.20767213  0.18638231  0.80463798  1
  O  O43  1  0.99314961  0.79624307  0.80656674  1
  O  O44  1  0.80505078  0.01316920  0.80636354  1
  O  O45  1  0.79854107  0.97337277  0.69590058  1
  O  O46  1  0.16871528  0.19887105  0.69553324  1
  O  O47  1  0.02920798  0.83123360  0.69673957  1
  O  O48  1  0.80266827  0.83140397  0.19492406  1
  O  O49  1  0.02458317  0.20232658  0.19517031  1
  O  O50  1  0.16671274  0.97620822  0.19930778  1
  O  O51  1  0.90860045  0.37808268  0.63718126  1
  O  O52  1  0.46301696  0.08724653  0.64564060  1
  O  O53  1  0.62390537  0.52917104  0.63716173  1
  O  O54  1  0.91474668  0.53716180  0.14597375  1
  O  O55  1  0.61821268  0.08821189  0.13628923  1
  O  O56  1  0.47147458  0.37840029  0.13632366  1
  O  O57  1  0.46453462  0.30265263  0.02863460  1
  O  O58  1  0.82734110  0.52186575  0.03054435  1
  O  O59  1  0.69299300  0.16100340  0.02879037  1
  O  O60  1  0.47512867  0.16977737  0.52918703  1
  O  O61  1  0.69666062  0.53593480  0.52953101  1
  O  O62  1  0.84108811  0.30779331  0.52925359  1
  O  O63  1  0.50820058  0.65876154  0.97104974  1
  O  O64  1  0.15223247  0.49222941  0.97107024  1
  O  O65  1  0.34154389  0.84626521  0.96944499  1
  O  O66  1  0.50879742  0.84854358  0.47167327  1
  O  O67  1  0.33547846  0.49269103  0.47214267  1
  O  O68  1  0.15680020  0.66613180  0.46943245  1
  O  O69  1  0.13182015  0.63545386  0.36005762  1
  O  O70  1  0.50047420  0.86746422  0.36278398  1
  O  O71  1  0.36091285  0.49957615  0.35950053  1
  O  O72  1  0.13432252  0.49712123  0.86246914  1
  O  O73  1  0.36292247  0.86882929  0.86067031  1
  O  O74  1  0.50226703  0.63686414  0.86250621  1
  O  O75  1  0.03163029  0.81443234  0.41751601  1
  O  O76  1  0.78603180  0.97115651  0.42060335  1
  O  O77  1  0.18865920  0.18843511  0.42234434  1
  O  O78  1  0.02593836  0.21323408  0.92073674  1
  O  O79  1  0.18774687  0.97418563  0.92033106  1
  O  O80  1  0.78749069  0.80929418  0.92016221  1
  O  O81  1  0.97350816  0.16250768  0.58745435  1
  O  O82  1  0.17558967  0.02247502  0.59132610  1
  O  O83  1  0.83417073  0.81292914  0.58772221  1
  O  O84  1  0.97923108  0.82538368  0.09110245  1
  O  O85  1  0.83809438  0.02813299  0.08712502  1
  O  O86  1  0.18810532  0.16726337  0.08777167  1
  O  O87  1  0.66095084  0.13537609  0.74582645  1
  O  O88  1  0.46625876  0.32195849  0.74248106  1
  O  O89  1  0.86132630  0.52842520  0.74492741  1
  O  O90  1  0.67688927  0.53263910  0.24145612  1
  O  O91  1  0.86270821  0.33897527  0.24539692  1
  O  O92  1  0.47083275  0.14200561  0.24546871  1
  O  O93  1  0.61932675  0.48281415  0.92406552  1
  O  O94  1  0.86436424  0.37904009  0.92445197  1
  O  O95  1  0.51488496  0.13577640  0.92431664  1
  O  O96  1  0.61868646  0.13300584  0.42376668  1
  O  O97  1  0.52532491  0.37467516  0.42465983  1
  O  O98  1  0.86676443  0.48609913  0.42443417  1
  O  O99  1  0.33580944  0.48277095  0.06681256  1
  O  O100  1  0.15615392  0.66945746  0.06752455  1
  O  O101  1  0.52274234  0.85163293  0.06633465  1
  O  O102  1  0.33017147  0.84289679  0.56785587  1
  O  O103  1  0.51855929  0.66621246  0.56846829  1
  O  O104  1  0.14752763  0.47935261  0.56821756  1
  O  O105  1  0.28752427  0.81554959  0.25381467  1
  O  O106  1  0.52778066  0.70822717  0.25509432  1
  O  O107  1  0.18095624  0.47965060  0.25490600  1
  O  O108  1  0.29404314  0.47355185  0.75657481  1
  O  O109  1  0.18522427  0.71160773  0.75553385  1
  O  O110  1  0.52229665  0.81790513  0.75721891  1
