# generated using pymatgen
data_Na6Sc4Nb4Si7S5O48
_symmetry_space_group_name_H-M   'P 1'
_cell_length_a   17.95189844
_cell_length_b   8.94880493
_cell_length_c   22.96567958
_cell_angle_alpha   90.08308859
_cell_angle_beta   89.93333431
_cell_angle_gamma   119.94605267
_symmetry_Int_Tables_number   1
_chemical_formula_structural   Na6Sc4Nb4Si7S5O48
_chemical_formula_sum   'Na18 Sc12 Nb12 Si21 S15 O144'
_cell_volume   3196.83833322
_cell_formula_units_Z   3
loop_
 _symmetry_equiv_pos_site_id
 _symmetry_equiv_pos_as_xyz
  1  'x, y, z'
loop_
 _atom_site_type_symbol
 _atom_site_label
 _atom_site_symmetry_multiplicity
 _atom_site_fract_x
 _atom_site_fract_y
 _atom_site_fract_z
 _atom_site_occupancy
  Na  Na0  1  0.00022975  0.61923207  0.25138164  1
  Na  Na1  1  0.50066543  0.63976037  0.25605420  1
  Na  Na2  1  0.99983937  0.36285575  0.75145698  1
  Na  Na3  1  0.50041725  0.38129195  0.74934972  1
  Na  Na4  1  0.33247224  0.97329156  0.58092508  1
  Na  Na5  1  0.83167930  0.69067923  0.08263317  1
  Na  Na6  1  0.00060374  0.98876334  0.50116920  1
  Na  Na7  1  0.50205244  0.00720898  0.49834860  1
  Na  Na8  1  0.99825557  0.99514921  0.00046473  1
  Na  Na9  1  0.50173361  0.01435542  0.00275462  1
  Na  Na10  1  0.33060800  0.34753683  0.82597739  1
  Na  Na11  1  0.83083831  0.33155074  0.83360666  1
  Na  Na12  1  0.33194168  0.33197784  0.33517224  1
  Na  Na13  1  0.82821626  0.31358228  0.32841038  1
  Na  Na14  1  0.16979548  0.66086019  0.17343384  1
  Na  Na15  1  0.66821270  0.66836660  0.16838081  1
  Na  Na16  1  0.16775001  0.66917216  0.66458038  1
  Na  Na17  1  0.66964317  0.67853517  0.66792729  1
  Sc  Sc18  1  0.50457953  0.99529524  0.64554408  1
  Sc  Sc19  1  0.00265044  0.01042062  0.14799836  1
  Sc  Sc20  1  0.33233694  0.33804609  0.68616510  1
  Sc  Sc21  1  0.82757288  0.33126402  0.68465993  1
  Sc  Sc22  1  0.32883674  0.32484262  0.18751972  1
  Sc  Sc23  1  0.83179111  0.32631688  0.18766268  1
  Sc  Sc24  1  0.66764236  0.64887792  0.01541686  1
  Sc  Sc25  1  0.16643405  0.68499159  0.51498054  1
  Sc  Sc26  1  0.16971361  0.66753185  0.31394146  1
  Sc  Sc27  1  0.66818532  0.67795383  0.31898986  1
  Sc  Sc28  1  0.16661087  0.64764440  0.81538815  1
  Sc  Sc29  1  0.66910870  0.67069775  0.81323313  1
  Nb  Nb30  1  0.99374385  0.00589155  0.35731657  1
  Nb  Nb31  1  0.50130365  0.98465667  0.35859611  1
  Nb  Nb32  1  0.99596275  0.01521945  0.85419352  1
  Nb  Nb33  1  0.49479667  0.98276288  0.85646969  1
  Nb  Nb34  1  0.99888573  0.00274069  0.64419893  1
  Nb  Nb35  1  0.49958381  0.99867005  0.14701372  1
  Nb  Nb36  1  0.34067035  0.33015016  0.97667249  1
  Nb  Nb37  1  0.83451738  0.35213380  0.98075259  1
  Nb  Nb38  1  0.33550829  0.31646196  0.48062605  1
  Nb  Nb39  1  0.83528992  0.35205237  0.47329026  1
  Nb  Nb40  1  0.16724725  0.66308589  0.02204888  1
  Nb  Nb41  1  0.66558228  0.65329371  0.51801232  1
  Si  Si42  1  0.64748951  0.00155034  0.25042750  1
  Si  Si43  1  0.35284091  0.70805944  0.24990682  1
  Si  Si44  1  0.00113708  0.29692567  0.24840739  1
  Si  Si45  1  0.14714302  0.28835995  0.74971612  1
  Si  Si46  1  0.50113070  0.70510457  0.74789463  1
  Si  Si47  1  0.85062284  0.99845386  0.74753541  1
  Si  Si48  1  0.48173787  0.33514875  0.58749721  1
  Si  Si49  1  0.18822504  0.04313809  0.58554606  1
  Si  Si50  1  0.83179411  0.62273585  0.58501073  1
  Si  Si51  1  0.98076817  0.62931681  0.08673322  1
  Si  Si52  1  0.33328758  0.04227981  0.08527849  1
  Si  Si53  1  0.68740500  0.33194453  0.08572957  1
  Si  Si54  1  0.30874570  0.66017154  0.91773445  1
  Si  Si55  1  0.81225097  0.67056282  0.91570077  1
  Si  Si56  1  0.02003744  0.37978315  0.91662504  1
  Si  Si57  1  0.52642738  0.37705524  0.91310750  1
  Si  Si58  1  0.31109501  0.95116148  0.41550403  1
  Si  Si59  1  0.80784080  0.95681769  0.41855015  1
  Si  Si60  1  0.66438333  0.37679941  0.41285234  1
  Si  Si61  1  0.02565115  0.67342556  0.41298980  1
  Si  Si62  1  0.52041332  0.65829748  0.41724841  1
  S  S63  1  0.14389437  0.00201862  0.25066796  1
  S  S64  1  0.85467882  0.71360744  0.24982496  1
  S  S65  1  0.50007831  0.28675664  0.24987156  1
  S  S66  1  0.64371220  0.28508678  0.75081547  1
  S  S67  1  0.00057798  0.71516949  0.74987804  1
  S  S68  1  0.35482928  0.99611342  0.75020176  1
  S  S69  1  0.97878961  0.33553225  0.58360502  1
  S  S70  1  0.68977740  0.04382740  0.58186492  1
  S  S71  1  0.33190864  0.62197508  0.58264899  1
  S  S72  1  0.47864702  0.62233092  0.08351913  1
  S  S73  1  0.83206520  0.04253495  0.08262319  1
  S  S74  1  0.18953798  0.33260071  0.08210790  1
  S  S75  1  0.16660866  0.95546105  0.91726278  1
  S  S76  1  0.66723027  0.95920889  0.91708065  1
  S  S77  1  0.16746679  0.37516140  0.41696520  1
  O  O78  1  0.10146810  0.02337308  0.30267487  1
  O  O79  1  0.59446284  0.02050760  0.30654935  1
  O  O80  1  0.41854336  0.80700417  0.30530363  1
  O  O81  1  0.91132396  0.80186428  0.30222332  1
  O  O82  1  0.48665201  0.18225795  0.30147606  1
  O  O83  1  0.99158498  0.16740036  0.30609061  1
  O  O84  1  0.09410885  0.16485218  0.80708373  1
  O  O85  1  0.60069512  0.17833214  0.80311629  1
  O  O86  1  0.49139374  0.81514520  0.80638016  1
  O  O87  1  0.98780764  0.79491108  0.80251255  1
  O  O88  1  0.41126956  0.02028077  0.80292779  1
  O  O89  1  0.91647099  0.02977871  0.80573257  1
  O  O90  1  0.39426163  0.97363853  0.69743172  1
  O  O91  1  0.90520219  0.97874928  0.69265805  1
  O  O92  1  0.08039103  0.18535235  0.69454864  1
  O  O93  1  0.59126180  0.20740191  0.69811861  1
  O  O94  1  0.01140523  0.81894322  0.69676914  1
  O  O95  1  0.51191537  0.83006555  0.69389095  1
  O  O96  1  0.40488011  0.83258883  0.19199933  1
  O  O97  1  0.89624686  0.81482657  0.19659253  1
  O  O98  1  0.01243886  0.19570071  0.19331187  1
  O  O99  1  0.51031136  0.20267630  0.19576756  1
  O  O100  1  0.09162262  0.97570101  0.19755275  1
  O  O101  1  0.58092805  0.97756320  0.19390556  1
  O  O102  1  0.44014901  0.36482773  0.64512514  1
  O  O103  1  0.93936259  0.35584322  0.63757967  1
  O  O104  1  0.25121211  0.13233301  0.63977877  1
  O  O105  1  0.74062986  0.12089130  0.63565072  1
  O  O106  1  0.32097717  0.52192074  0.63527030  1
  O  O107  1  0.81856316  0.50476167  0.64121391  1
  O  O108  1  0.43796309  0.51971903  0.13602027  1
  O  O109  1  0.94260026  0.51628735  0.14415762  1
  O  O110  1  0.31723938  0.13271559  0.14016104  1
  O  O111  1  0.82140236  0.12088492  0.13492542  1
  O  O112  1  0.24053839  0.36231626  0.13496702  1
  O  O113  1  0.75230355  0.37167317  0.13884464  1
  O  O114  1  0.23220599  0.31320527  0.03004253  1
  O  O115  1  0.73503194  0.30395547  0.02651062  1
  O  O116  1  0.42293872  0.53657135  0.03078555  1
  O  O117  1  0.91600121  0.52598703  0.02905088  1
  O  O118  1  0.34424035  0.16646920  0.02746429  1
  O  O119  1  0.84542717  0.14908244  0.02970227  1
  O  O120  1  0.23435040  0.16575827  0.52682886  1
  O  O121  1  0.73276714  0.15248045  0.53079785  1
  O  O122  1  0.34517895  0.54179940  0.53000698  1
  O  O123  1  0.84601741  0.52576294  0.52805524  1
  O  O124  1  0.41606797  0.30556416  0.52977371  1
  O  O125  1  0.92427363  0.30750562  0.53209304  1
  O  O126  1  0.26523905  0.69686294  0.97436279  1
  O  O127  1  0.77820761  0.70680011  0.97643495  1
  O  O128  1  0.08495868  0.47928850  0.97182226  1
  O  O129  1  0.57731452  0.45606759  0.97252609  1
  O  O130  1  0.15485244  0.85033410  0.96995827  1
  O  O131  1  0.65040593  0.85499463  0.96940064  1
  O  O132  1  0.27653009  0.84876383  0.47657384  1
  O  O133  1  0.76581442  0.83300749  0.47491418  1
  O  O134  1  0.15057320  0.44617583  0.46948625  1
  O  O135  1  0.65184327  0.46595273  0.47262140  1
  O  O136  1  0.07850597  0.70243026  0.47214512  1
  O  O137  1  0.58392005  0.69190305  0.47289738  1
  O  O138  1  0.05917877  0.63200516  0.35424912  1
  O  O139  1  0.55549228  0.62474026  0.35710724  1
  O  O140  1  0.25104247  0.87093028  0.36004361  1
  O  O141  1  0.75569067  0.88485714  0.35949913  1
  O  O142  1  0.17991811  0.47566782  0.36459155  1
  O  O143  1  0.68584212  0.49692106  0.35761008  1
  O  O144  1  0.05756042  0.48809894  0.85745302  1
  O  O145  1  0.55792381  0.48583035  0.85459127  1
  O  O146  1  0.18312431  0.88396679  0.86494940  1
  O  O147  1  0.67988664  0.88344674  0.86455788  1
  O  O148  1  0.25449378  0.63136085  0.85982755  1
  O  O149  1  0.75283799  0.63487828  0.86021379  1
  O  O150  1  0.01006352  0.84025929  0.40352544  1
  O  O151  1  0.51145743  0.83359503  0.41266811  1
  O  O152  1  0.40900754  0.98520779  0.40514007  1
  O  O153  1  0.90667193  0.97992470  0.40956754  1
  O  O154  1  0.08944993  0.19465448  0.40947819  1
  O  O155  1  0.58033478  0.18578784  0.40844191  1
  O  O156  1  0.01374883  0.18750947  0.91166815  1
  O  O157  1  0.50912243  0.17887463  0.90443401  1
  O  O158  1  0.09006829  0.97547375  0.91234535  1
  O  O159  1  0.58959375  0.98454999  0.90939004  1
  O  O160  1  0.40701966  0.83161387  0.90952704  1
  O  O161  1  0.91258722  0.83207256  0.90541649  1
  O  O162  1  0.48426566  0.15529248  0.58803005  1
  O  O163  1  0.98519787  0.17270342  0.58830128  1
  O  O164  1  0.09203126  0.02522149  0.59249736  1
  O  O165  1  0.60377249  0.02857866  0.58666279  1
  O  O166  1  0.40877672  0.79993733  0.58739295  1
  O  O167  1  0.91919878  0.81427885  0.59175346  1
  O  O168  1  0.48339461  0.79417195  0.08684343  1
  O  O169  1  0.98478151  0.81506081  0.08653353  1
  O  O170  1  0.41873188  0.02273629  0.08985078  1
  O  O171  1  0.90902362  0.01815153  0.08685833  1
  O  O172  1  0.10301044  0.17996574  0.08610287  1
  O  O173  1  0.59154442  0.15789996  0.09127458  1
  O  O174  1  0.35150343  0.15765181  0.74860397  1
  O  O175  1  0.85359801  0.18316807  0.74404198  1
  O  O176  1  0.23912682  0.30418539  0.74644482  1
  O  O177  1  0.72977499  0.30056302  0.74660700  1
  O  O178  1  0.41542258  0.51670993  0.74902884  1
  O  O179  1  0.92448054  0.53874610  0.74413969  1
  O  O180  1  0.35338159  0.52565977  0.24251308  1
  O  O181  1  0.85159907  0.54544033  0.24758507  1
  O  O182  1  0.42349299  0.30980359  0.24268271  1
  O  O183  1  0.91547343  0.31401623  0.24842466  1
  O  O184  1  0.23001699  0.15875307  0.24594344  1
  O  O185  1  0.73887297  0.17252197  0.24496336  1
  O  O186  1  0.32246829  0.49503121  0.93119292  1
  O  O187  1  0.82340278  0.49547786  0.92462963  1
  O  O188  1  0.42537358  0.34864533  0.92634685  1
  O  O189  1  0.92242125  0.34211213  0.92881008  1
  O  O190  1  0.24392070  0.13389100  0.92623567  1
  O  O191  1  0.74380448  0.13452467  0.92348713  1
  O  O192  1  0.32270303  0.14961189  0.42474555  1
  O  O193  1  0.82585648  0.15147439  0.43206726  1
  O  O194  1  0.24375187  0.35279268  0.42350935  1
  O  O195  1  0.74804102  0.35027722  0.42728568  1
  O  O196  1  0.42201251  0.49932356  0.42960755  1
  O  O197  1  0.92659296  0.50360680  0.42524965  1
  O  O198  1  0.18003619  0.49062981  0.07616902  1
  O  O199  1  0.67997779  0.50590100  0.07780059  1
  O  O200  1  0.07538176  0.64847845  0.07067625  1
  O  O201  1  0.56445130  0.64621990  0.07625017  1
  O  O202  1  0.24852124  0.85246827  0.07196417  1
  O  O203  1  0.75513099  0.86780981  0.07668476  1
  O  O204  1  0.18003925  0.85368119  0.57863294  1
  O  O205  1  0.68005077  0.87012738  0.57665877  1
  O  O206  1  0.25506762  0.64271905  0.57720186  1
  O  O207  1  0.74905344  0.64870563  0.57521262  1
  O  O208  1  0.06565191  0.48250619  0.57784969  1
  O  O209  1  0.57525897  0.50699043  0.57496251  1
  O  O210  1  0.15151158  0.84565148  0.25472765  1
  O  O211  1  0.64582281  0.81786487  0.25119283  1
  O  O212  1  0.26071765  0.69254922  0.25319816  1
  O  O213  1  0.76983932  0.69582405  0.25524219  1
  O  O214  1  0.08493128  0.48604353  0.25392508  1
  O  O215  1  0.57705213  0.46007328  0.25203167  1
  O  O216  1  0.14593677  0.47087030  0.75303210  1
  O  O217  1  0.65136464  0.45661069  0.75580621  1
  O  O218  1  0.07821362  0.69725603  0.75437380  1
  O  O219  1  0.58497355  0.68414891  0.75464405  1
  O  O220  1  0.26851758  0.84544960  0.75789779  1
  O  O221  1  0.76023390  0.82841297  0.75376954  1
