# generated using pymatgen
data_MgFe8(OF)8
_symmetry_space_group_name_H-M   'P 1'
_cell_length_a   9.71500511
_cell_length_b   9.78456100
_cell_length_c   3.11220000
_cell_angle_alpha   90.00000000
_cell_angle_beta   90.00000000
_cell_angle_gamma   86.43125430
_symmetry_Int_Tables_number   1
_chemical_formula_structural   MgFe8(OF)8
_chemical_formula_sum   'Mg1 Fe8 O8 F8'
_cell_volume   295.26290537
_cell_formula_units_Z   1
loop_
 _symmetry_equiv_pos_site_id
 _symmetry_equiv_pos_as_xyz
  1  'x, y, z'
loop_
 _atom_site_type_symbol
 _atom_site_label
 _atom_site_symmetry_multiplicity
 _atom_site_fract_x
 _atom_site_fract_y
 _atom_site_fract_z
 _atom_site_occupancy
  Mg  Mg0  1  0.98963700  0.76643200  0.50000000  1
  Fe  Fe1  1  0.04065700  0.02447900  0.00000000  1
  Fe  Fe2  1  0.99279100  0.49984500  0.00000000  1
  Fe  Fe3  1  0.22238200  0.26366100  0.50000000  1
  Fe  Fe4  1  0.25398800  0.74742900  0.50000000  1
  Fe  Fe5  1  0.50039300  0.46896500  0.00000000  1
  Fe  Fe6  1  0.51159000  0.00388300  0.00000000  1
  Fe  Fe7  1  0.76473200  0.27551100  0.50000000  1
  Fe  Fe8  1  0.69206500  0.68786800  0.50000000  1
  O  O9  1  0.09231000  0.41587400  0.50000000  1
  O  O10  1  0.11342700  0.92384900  0.50000000  1
  O  O11  1  0.15846300  0.16880100  0.00000000  1
  O  O12  1  0.10783000  0.67346600  0.00000000  1
  O  O13  1  0.58797000  0.38610700  0.50000000  1
  O  O14  1  0.60328800  0.63334000  0.00000000  1
  O  O15  1  0.84651700  0.35793000  0.00000000  1
  O  O16  1  0.87105800  0.61078200  0.50000000  1
  F  F17  1  0.34322300  0.34250600  0.00000000  1
  F  F18  1  0.37078600  0.84166300  0.00000000  1
  F  F19  1  0.41051700  0.10781100  0.50000000  1
  F  F20  1  0.37959900  0.56651100  0.50000000  1
  F  F21  1  0.62276400  0.88587400  0.50000000  1
  F  F22  1  0.67410800  0.15049700  0.00000000  1
  F  F23  1  0.88689400  0.86831900  0.00000000  1
  F  F24  1  0.91440200  0.11331800  0.50000000  1
