# generated using pymatgen
data_TlBO2
_symmetry_space_group_name_H-M   'P 1'
_cell_length_a   7.38892239
_cell_length_b   7.38892239
_cell_length_c   9.39313667
_cell_angle_alpha   90.00000000
_cell_angle_beta   90.00000000
_cell_angle_gamma   90.00000000
_symmetry_Int_Tables_number   1
_chemical_formula_structural   TlBO2
_chemical_formula_sum   'Tl8 B8 O16'
_cell_volume   512.82932484
_cell_formula_units_Z   8
loop_
 _symmetry_equiv_pos_site_id
 _symmetry_equiv_pos_as_xyz
  1  'x, y, z'
loop_
 _atom_site_type_symbol
 _atom_site_label
 _atom_site_symmetry_multiplicity
 _atom_site_fract_x
 _atom_site_fract_y
 _atom_site_fract_z
 _atom_site_occupancy
  Tl  Tl0  1  0.74094666  0.97584658  0.90651872  1
  Tl  Tl1  1  0.02415342  0.74094666  0.15651872  1
  Tl  Tl2  1  0.97584658  0.25905334  0.65651872  1
  Tl  Tl3  1  0.25905334  0.02415342  0.40651872  1
  Tl  Tl4  1  0.73410708  0.73434651  0.49624366  1
  Tl  Tl5  1  0.26565349  0.73410708  0.74624366  1
  Tl  Tl6  1  0.73434651  0.26589292  0.24624366  1
  Tl  Tl7  1  0.26589292  0.26565349  0.99624366  1
  B  B8  1  0.54656491  0.59481288  0.02019121  1
  B  B9  1  0.40518712  0.54656491  0.27019121  1
  B  B10  1  0.59481288  0.45343509  0.77019121  1
  B  B11  1  0.45343509  0.40518712  0.52019121  1
  B  B12  1  0.86468832  0.54076453  0.91993747  1
  B  B13  1  0.45923547  0.86468832  0.16993747  1
  B  B14  1  0.54076453  0.13531168  0.66993747  1
  B  B15  1  0.13531168  0.45923547  0.41993747  1
  O  O16  1  0.20996983  0.50035356  0.28844640  1
  O  O17  1  0.49964644  0.20996983  0.53844640  1
  O  O18  1  0.50035356  0.79003017  0.03844640  1
  O  O19  1  0.79003017  0.49964644  0.78844640  1
  O  O20  1  0.51479116  0.46072755  0.37976446  1
  O  O21  1  0.53927245  0.51479116  0.62976446  1
  O  O22  1  0.46072755  0.48520884  0.12976446  1
  O  O23  1  0.48520884  0.53927245  0.87976446  1
  O  O24  1  0.25347481  0.42532412  0.53283815  1
  O  O25  1  0.57467588  0.25347481  0.78283815  1
  O  O26  1  0.42532412  0.74652519  0.28283815  1
  O  O27  1  0.74652519  0.57467588  0.03283815  1
  O  O28  1  0.95582955  0.44571797  0.44155993  1
  O  O29  1  0.55428203  0.95582955  0.69155993  1
  O  O30  1  0.44571797  0.04417045  0.19155993  1
  O  O31  1  0.04417045  0.55428203  0.94155993  1
