# generated using pymatgen
data_Sb4Cl2O5
_symmetry_space_group_name_H-M   'P 1'
_cell_length_a   5.15880882
_cell_length_b   6.35097226
_cell_length_c   13.44133557
_cell_angle_alpha   81.39762087
_cell_angle_beta   90.00000000
_cell_angle_gamma   90.00000000
_symmetry_Int_Tables_number   1
_chemical_formula_structural   Sb4Cl2O5
_chemical_formula_sum   'Sb8 Cl4 O10'
_cell_volume   435.43029780
_cell_formula_units_Z   2
loop_
 _symmetry_equiv_pos_site_id
 _symmetry_equiv_pos_as_xyz
  1  'x, y, z'
loop_
 _atom_site_type_symbol
 _atom_site_label
 _atom_site_symmetry_multiplicity
 _atom_site_fract_x
 _atom_site_fract_y
 _atom_site_fract_z
 _atom_site_occupancy
  Sb  Sb0  1  0.60632938  0.79360206  0.30024879  1
  Sb  Sb1  1  0.10632938  0.20639794  0.19975121  1
  Sb  Sb2  1  0.39367062  0.20639794  0.69975121  1
  Sb  Sb3  1  0.89367062  0.79360206  0.80024879  1
  Sb  Sb4  1  0.72263567  0.18251278  0.44473990  1
  Sb  Sb5  1  0.22263567  0.81748722  0.05526010  1
  Sb  Sb6  1  0.27736433  0.81748722  0.55526010  1
  Sb  Sb7  1  0.77736433  0.18251278  0.94473990  1
  Cl  Cl8  1  0.71006555  0.48118238  0.11599612  1
  Cl  Cl9  1  0.21006555  0.51881762  0.38400388  1
  Cl  Cl10  1  0.28993445  0.51881762  0.88400388  1
  Cl  Cl11  1  0.78993445  0.48118238  0.61599612  1
  O  O12  1  0.50832538  0.07082878  0.58078799  1
  O  O13  1  0.00832538  0.92917122  0.91921201  1
  O  O14  1  0.49167462  0.92917122  0.41921201  1
  O  O15  1  0.99167462  0.07082878  0.08078799  1
  O  O16  1  0.83185522  0.07048741  0.29074400  1
  O  O17  1  0.33185522  0.92951259  0.20925600  1
  O  O18  1  0.16814478  0.92951259  0.70925600  1
  O  O19  1  0.66814478  0.07048741  0.79074400  1
  O  O20  1  0.50000000  -0.00000000  0.00000000  1
  O  O21  1  0.00000000  -0.00000000  0.50000000  1
