# generated using pymatgen
data_Na5Hf2Ti2Si3(PO8)3
_symmetry_space_group_name_H-M   'P 1'
_cell_length_a   8.93652268
_cell_length_b   8.92033235
_cell_length_c   22.45986138
_cell_angle_alpha   90.10448028
_cell_angle_beta   89.85767035
_cell_angle_gamma   119.89026691
_symmetry_Int_Tables_number   1
_chemical_formula_structural   Na5Hf2Ti2Si3(PO8)3
_chemical_formula_sum   'Na15 Hf6 Ti6 Si9 P9 O72'
_cell_volume   1552.26197277
_cell_formula_units_Z   3
loop_
 _symmetry_equiv_pos_site_id
 _symmetry_equiv_pos_as_xyz
  1  'x, y, z'
loop_
 _atom_site_type_symbol
 _atom_site_label
 _atom_site_symmetry_multiplicity
 _atom_site_fract_x
 _atom_site_fract_y
 _atom_site_fract_z
 _atom_site_occupancy
  Na  Na0  1  0.00159059  0.62912248  0.24990213  1
  Na  Na1  1  0.36829715  0.00237200  0.74848507  1
  Na  Na2  1  0.03402480  0.70186651  0.58256979  1
  Na  Na3  1  0.66343906  0.96534445  0.58464802  1
  Na  Na4  1  0.29796689  0.97112621  0.08214599  1
  Na  Na5  1  0.03055325  0.33663868  0.08723461  1
  Na  Na6  1  0.97451210  0.66977082  0.91922416  1
  Na  Na7  1  0.96609823  0.30277452  0.41663348  1
  Na  Na8  1  0.33660256  0.03386875  0.41681835  1
  Na  Na9  1  0.00199762  0.99830207  0.50017356  1
  Na  Na10  1  0.99531743  0.99773918  0.00074811  1
  Na  Na11  1  0.66658331  0.32725567  0.83020257  1
  Na  Na12  1  0.66224630  0.33287487  0.33609716  1
  Na  Na13  1  0.34973451  0.65975484  0.16754643  1
  Na  Na14  1  0.33320263  0.64391380  0.66400662  1
  Hf  Hf15  1  0.99888601  0.00668101  0.85159100  1
  Hf  Hf16  1  0.66493382  0.33176375  0.18926914  1
  Hf  Hf17  1  0.65640756  0.32868479  0.98032385  1
  Hf  Hf18  1  0.33551895  0.66766292  0.01978532  1
  Hf  Hf19  1  0.33576376  0.66482815  0.31357419  1
  Hf  Hf20  1  0.33908812  0.66909713  0.81022371  1
  Ti  Ti21  1  0.98718019  0.99415790  0.35490489  1
  Ti  Ti22  1  0.99711679  0.99951887  0.64588028  1
  Ti  Ti23  1  0.00195257  0.00278976  0.14742421  1
  Ti  Ti24  1  0.66441978  0.33278505  0.68395460  1
  Ti  Ti25  1  0.66676762  0.34138872  0.48166821  1
  Ti  Ti26  1  0.34302965  0.67657618  0.51904709  1
  Si  Si27  1  0.00017589  0.28417472  0.25098095  1
  Si  Si28  1  0.71078260  0.00702508  0.74620623  1
  Si  Si29  1  0.37477445  0.04830451  0.58257987  1
  Si  Si30  1  0.66047809  0.61898565  0.58437375  1
  Si  Si31  1  0.95574876  0.63106913  0.08406954  1
  Si  Si32  1  0.37109264  0.33263543  0.08616726  1
  Si  Si33  1  0.33569412  0.96344562  0.91495801  1
  Si  Si34  1  0.62716755  0.95975628  0.41799049  1
  Si  Si35  1  0.03902833  0.66730599  0.41806307  1
  P  P36  1  0.28397611  0.00177623  0.25200282  1
  P  P37  1  0.71697493  0.71963001  0.25005375  1
  P  P38  1  0.28952323  0.28670963  0.74611231  1
  P  P39  1  0.99175356  0.70443873  0.74791407  1
  P  P40  1  0.95607266  0.33376338  0.58265164  1
  P  P41  1  0.67083313  0.04181089  0.08456996  1
  P  P42  1  0.62656412  0.66699640  0.91535149  1
  P  P43  1  0.04260154  0.37563434  0.91671947  1
  P  P44  1  0.33671776  0.37921483  0.41904793  1
  O  O45  1  0.19566794  0.01783474  0.30867090  1
  O  O46  1  0.82877086  0.80515514  0.30652969  1
  O  O47  1  0.98408704  0.16922562  0.31058066  1
  O  O48  1  0.20971900  0.17513406  0.80241048  1
  O  O49  1  0.97399366  0.79078605  0.80504749  1
  O  O50  1  0.82535252  0.02920994  0.80468803  1
  O  O51  1  0.80868614  0.98145281  0.68784955  1
  O  O52  1  0.17309051  0.19100151  0.69221642  1
  O  O53  1  0.02523172  0.82510797  0.69321903  1
  O  O54  1  0.80796243  0.82631246  0.19402087  1
  O  O55  1  0.01648685  0.18761452  0.19084081  1
  O  O56  1  0.17485752  0.97617896  0.19464928  1
  O  O57  1  0.86505300  0.36231624  0.63686126  1
  O  O58  1  0.50130004  0.13352311  0.64076098  1
  O  O59  1  0.63996454  0.49750189  0.64155895  1
  O  O60  1  0.87257018  0.50261243  0.14147819  1
  O  O61  1  0.63564741  0.12404228  0.13884814  1
  O  O62  1  0.48929900  0.35823711  0.14343202  1
  O  O63  1  0.45605809  0.28944606  0.02877869  1
  O  O64  1  0.84558069  0.54086405  0.02396870  1
  O  O65  1  0.70332247  0.15894333  0.02945746  1
  O  O66  1  0.47146150  0.16433088  0.52367869  1
  O  O67  1  0.70090532  0.52841475  0.52728985  1
  O  O68  1  0.84216380  0.29876709  0.52637807  1
  O  O69  1  0.53907812  0.68721756  0.97144636  1
  O  O70  1  0.14740279  0.45695711  0.97428050  1
  O  O71  1  0.30685946  0.84536735  0.97447016  1
  O  O72  1  0.53498243  0.83956212  0.47733158  1
  O  O73  1  0.30490509  0.46996539  0.47228725  1
  O  O74  1  0.16890881  0.69841031  0.47510712  1
  O  O75  1  0.12105810  0.62593780  0.35894674  1
  O  O76  1  0.49887645  0.87064507  0.36217522  1
  O  O77  1  0.36318237  0.48541821  0.36212663  1
  O  O78  1  0.13555340  0.49072240  0.86290765  1
  O  O79  1  0.35275547  0.86493818  0.85587222  1
  O  O80  1  0.51493496  0.64245151  0.86000734  1
  O  O81  1  0.03331042  0.84726676  0.41008688  1
  O  O82  1  0.82147795  0.98381457  0.41061082  1
  O  O83  1  0.17234580  0.19753894  0.41284899  1
  O  O84  1  0.02211806  0.19351772  0.91172898  1
  O  O85  1  0.15725189  0.97196801  0.91112372  1
  O  O86  1  0.80790041  0.82758528  0.91068082  1
  O  O87  1  0.97079394  0.16784913  0.58923829  1
  O  O88  1  0.17804051  0.01592312  0.59003098  1
  O  O89  1  0.83547471  0.81154873  0.59027379  1
  O  O90  1  0.98431327  0.82574677  0.09273654  1
  O  O91  1  0.83476348  0.02661475  0.09087831  1
  O  O92  1  0.17738956  0.15841942  0.09256177  1
  O  O93  1  0.68358280  0.17519806  0.74058171  1
  O  O94  1  0.46931857  0.30210768  0.74080276  1
  O  O95  1  0.83173948  0.52379933  0.74159509  1
  O  O96  1  0.70330417  0.53963606  0.24699491  1
  O  O97  1  0.83188188  0.31171557  0.24970466  1
  O  O98  1  0.46600524  0.16087570  0.24787580  1
  O  O99  1  0.65108443  0.50769228  0.92014774  1
  O  O100  1  0.86595721  0.36564645  0.92104721  1
  O  O101  1  0.50777520  0.15195054  0.91861651  1
  O  O102  1  0.64639045  0.15113616  0.42472541  1
  O  O103  1  0.49547588  0.35356233  0.42446847  1
  O  O104  1  0.85134500  0.49141942  0.42671258  1
  O  O105  1  0.34243034  0.49739640  0.07945678  1
  O  O106  1  0.15009389  0.65228306  0.07919558  1
  O  O107  1  0.50717322  0.86474978  0.07743298  1
  O  O108  1  0.35600087  0.85351181  0.57676134  1
  O  O109  1  0.49396792  0.64581534  0.57676992  1
  O  O110  1  0.13377300  0.49898697  0.57692488  1
  O  O111  1  0.29821238  0.83465197  0.25472150  1
  O  O112  1  0.53731680  0.69941937  0.25450266  1
  O  O113  1  0.16940969  0.47879197  0.25264682  1
  O  O114  1  0.30438153  0.46541957  0.75224494  1
  O  O115  1  0.15926399  0.69198358  0.75261343  1
  O  O116  1  0.51668265  0.83424847  0.74992129  1
