# generated using pymatgen
data_Nb2Te6I
_symmetry_space_group_name_H-M   'P 1'
_cell_length_a   14.07927573
_cell_length_b   9.38392063
_cell_length_c   9.77097983
_cell_angle_alpha   67.38867178
_cell_angle_beta   90.00000000
_cell_angle_gamma   90.00000000
_symmetry_Int_Tables_number   1
_chemical_formula_structural   Nb2Te6I
_chemical_formula_sum   'Nb8 Te24 I4'
_cell_volume   1191.70183038
_cell_formula_units_Z   4
loop_
 _symmetry_equiv_pos_site_id
 _symmetry_equiv_pos_as_xyz
  1  'x, y, z'
loop_
 _atom_site_type_symbol
 _atom_site_label
 _atom_site_symmetry_multiplicity
 _atom_site_fract_x
 _atom_site_fract_y
 _atom_site_fract_z
 _atom_site_occupancy
  Nb  Nb0  1  0.99225728  0.82508005  0.62905389  1
  Nb  Nb1  1  0.49225728  0.17491995  0.87094611  1
  Nb  Nb2  1  0.00774272  0.17491995  0.37094611  1
  Nb  Nb3  1  0.50774272  0.82508005  0.12905389  1
  Nb  Nb4  1  0.97563513  0.47529672  0.86932627  1
  Nb  Nb5  1  0.47563513  0.52470328  0.63067373  1
  Nb  Nb6  1  0.02436487  0.52470328  0.13067373  1
  Nb  Nb7  1  0.52436487  0.47529672  0.36932627  1
  Te  Te8  1  0.90101313  0.75752680  0.91054036  1
  Te  Te9  1  0.40101313  0.24247320  0.58945964  1
  Te  Te10  1  0.09898687  0.24247320  0.08945964  1
  Te  Te11  1  0.59898687  0.75752680  0.41054036  1
  Te  Te12  1  0.81483198  0.62573114  0.72984037  1
  Te  Te13  1  0.31483198  0.37426886  0.77015963  1
  Te  Te14  1  0.18516802  0.37426886  0.27015963  1
  Te  Te15  1  0.68516802  0.62573114  0.22984037  1
  Te  Te16  1  0.83933615  0.04349265  0.52808850  1
  Te  Te17  1  0.33933615  0.95650735  0.97191150  1
  Te  Te18  1  0.16066385  0.95650735  0.47191150  1
  Te  Te19  1  0.66066385  0.04349265  0.02808850  1
  Te  Te20  1  0.91434378  0.91799337  0.33818625  1
  Te  Te21  1  0.41434378  0.08200663  0.16181375  1
  Te  Te22  1  0.08565622  0.08200663  0.66181375  1
  Te  Te23  1  0.58565622  0.91799337  0.83818625  1
  Te  Te24  1  0.06412145  0.54563515  0.58939306  1
  Te  Te25  1  0.56412145  0.45436485  0.91060694  1
  Te  Te26  1  0.93587855  0.45436485  0.41060694  1
  Te  Te27  1  0.43587855  0.54563515  0.08939306  1
  Te  Te28  1  0.13678435  0.64923017  0.85677420  1
  Te  Te29  1  0.63678435  0.35076983  0.64322580  1
  Te  Te30  1  0.86321565  0.35076983  0.14322580  1
  Te  Te31  1  0.36321565  0.64923017  0.35677420  1
  I  I32  1  0.91877429  0.18811278  0.84866956  1
  I  I33  1  0.41877429  0.81188722  0.65133044  1
  I  I34  1  0.08122571  0.81188722  0.15133044  1
  I  I35  1  0.58122571  0.18811278  0.34866956  1
