# generated using pymatgen
data_Na4La3TaSi3(SO8)3
_symmetry_space_group_name_H-M   'P 1'
_cell_length_a   9.46276800
_cell_length_b   9.46320073
_cell_length_c   24.32542399
_cell_angle_alpha   90.01096160
_cell_angle_beta   89.99297658
_cell_angle_gamma   119.92681374
_symmetry_Int_Tables_number   1
_chemical_formula_structural   Na4La3TaSi3(SO8)3
_chemical_formula_sum   'Na12 La9 Ta3 Si9 S9 O72'
_cell_volume   1887.84830949
_cell_formula_units_Z   3
loop_
 _symmetry_equiv_pos_site_id
 _symmetry_equiv_pos_as_xyz
  1  'x, y, z'
loop_
 _atom_site_type_symbol
 _atom_site_label
 _atom_site_symmetry_multiplicity
 _atom_site_fract_x
 _atom_site_fract_y
 _atom_site_fract_z
 _atom_site_occupancy
  Na  Na0  1  0.64599107  0.00353206  0.25360990  1
  Na  Na1  1  0.35564660  0.35105761  0.25322059  1
  Na  Na2  1  0.99841171  0.64381841  0.25471901  1
  Na  Na3  1  0.31284928  0.34881651  0.58462930  1
  Na  Na4  1  0.65716044  0.96127583  0.58381899  1
  Na  Na5  1  0.29193767  0.95516543  0.08237227  1
  Na  Na6  1  0.99946705  0.98978560  0.50500902  1
  Na  Na7  1  0.98321144  0.99880563  0.98967678  1
  Na  Na8  1  0.66541551  0.33209406  0.82850860  1
  Na  Na9  1  0.66720410  0.33359461  0.32755420  1
  Na  Na10  1  0.33263443  0.65404117  0.18432571  1
  Na  Na11  1  0.31538606  0.66485352  0.66333439  1
  La  La12  1  0.00235933  0.00181339  0.34838362  1
  La  La13  1  0.00294937  0.00164002  0.85429988  1
  La  La14  1  0.00161094  0.98632070  0.64400528  1
  La  La15  1  0.99069925  0.00095519  0.15102159  1
  La  La16  1  0.67279239  0.34010565  0.68414057  1
  La  La17  1  0.67381489  0.34025228  0.18351796  1
  La  La18  1  0.33468149  0.65865195  0.01149946  1
  La  La19  1  0.31993387  0.66542546  0.51681188  1
  La  La20  1  0.33347701  0.66886474  0.32300966  1
  Ta  Ta21  1  0.66850720  0.33476260  0.96914529  1
  Ta  Ta22  1  0.67295901  0.33756677  0.49043644  1
  Ta  Ta23  1  0.33470105  0.66741577  0.82885028  1
  Si  Si24  1  0.30207559  0.99578606  0.24490878  1
  Si  Si25  1  0.69333056  0.69817618  0.25126210  1
  Si  Si26  1  0.00462205  0.30660033  0.25096971  1
  Si  Si27  1  0.95711121  0.32347274  0.58238172  1
  Si  Si28  1  0.38050547  0.05088448  0.58152730  1
  Si  Si29  1  0.66719649  0.62673289  0.57997865  1
  Si  Si30  1  0.62464920  0.65397803  0.91732812  1
  Si  Si31  1  0.03018947  0.37689389  0.91722304  1
  Si  Si32  1  0.34580496  0.96769875  0.92154965  1
  S  S33  1  0.30524798  0.33050768  0.75394505  1
  S  S34  1  0.02610583  0.69516726  0.75652467  1
  S  S35  1  0.67015613  0.97492323  0.75427082  1
  S  S36  1  0.95271056  0.62721421  0.07441176  1
  S  S37  1  0.66903042  0.05461287  0.07442155  1
  S  S38  1  0.38123945  0.32241303  0.07516289  1
  S  S39  1  0.64615362  -0.00003157  0.42222768  1
  S  S40  1  0.35562796  0.35498028  0.42205024  1
  S  S41  1  0.99613477  0.64557572  0.41892650  1
  O  O42  1  0.20753795  0.02715017  0.29532288  1
  O  O43  1  0.81162848  0.78327502  0.30371787  1
  O  O44  1  0.96943100  0.18786333  0.30349050  1
  O  O45  1  0.21075177  0.21813432  0.79838028  1
  O  O46  1  0.00754364  0.78505424  0.80204605  1
  O  O47  1  0.78254757  0.99203032  0.79854040  1
  O  O48  1  0.73199864  0.95333837  0.70016712  1
  O  O49  1  0.22256717  0.26637392  0.69987851  1
  O  O50  1  0.04527326  0.78177718  0.70331087  1
  O  O51  1  0.77399492  0.81193969  0.19638533  1
  O  O52  1  0.03627029  0.22548778  0.19594557  1
  O  O53  1  0.20134145  0.96899740  0.18649433  1
  O  O54  1  0.87787278  0.34732914  0.63712602  1
  O  O55  1  0.48167708  0.12832017  0.63685395  1
  O  O56  1  0.63717780  0.52047092  0.63458647  1
  O  O57  1  0.87949108  0.55317204  0.12844537  1
  O  O58  1  0.66948419  0.12881034  0.12842975  1
  O  O59  1  0.45598656  0.32470551  0.12921723  1
  O  O60  1  0.49418477  0.33120788  0.02987344  1
  O  O61  1  0.84925356  0.51687695  0.02902045  1
  O  O62  1  0.66972438  0.16330117  0.02905750  1
  O  O63  1  0.49501232  0.17093212  0.52818024  1
  O  O64  1  0.67895426  0.51504965  0.52692031  1
  O  O65  1  0.84110206  0.32799318  0.52841107  1
  O  O66  1  0.55414621  0.68055854  0.97302373  1
  O  O67  1  0.12634062  0.44941016  0.97283898  1
  O  O68  1  0.32301954  0.87981566  0.97946546  1
  O  O69  1  0.55395072  0.89416477  0.46912735  1
  O  O70  1  0.34135924  0.44647489  0.46905368  1
  O  O71  1  0.10640963  0.65960888  0.46427220  1
  O  O72  1  0.06305322  0.62699988  0.36574790  1
  O  O73  1  0.55598584  0.92934633  0.36984302  1
  O  O74  1  0.37217019  0.44408437  0.36970031  1
  O  O75  1  0.14303688  0.50892627  0.86551202  1
  O  O76  1  0.36647792  0.85167404  0.87048966  1
  O  O77  1  0.49040755  0.63110905  0.86578266  1
  O  O78  1  0.97428174  0.78862234  0.42013880  1
  O  O79  1  0.81101008  0.02100617  0.42133377  1
  O  O80  1  0.21241134  0.18922064  0.42128470  1
  O  O81  1  0.98539091  0.19383978  0.90478951  1
  O  O82  1  0.20778212  0.01052966  0.90610295  1
  O  O83  1  0.80645802  0.79265394  0.90402400  1
  O  O84  1  0.94488708  0.14382487  0.58074546  1
  O  O85  1  0.21022583  0.05755134  0.57991121  1
  O  O86  1  0.83140577  0.80663515  0.57995940  1
  O  O87  1  0.96533922  0.78987819  0.06926862  1
  O  O88  1  0.81384062  0.03573397  0.06921889  1
  O  O89  1  0.22564352  0.16406334  0.06979016  1
  O  O90  1  0.64622731  0.11868965  0.75398708  1
  O  O91  1  0.47312362  0.35481652  0.75416655  1
  O  O92  1  0.88357543  0.52731139  0.75516425  1
  O  O93  1  0.66597993  0.51321288  0.24692017  1
  O  O94  1  0.84782402  0.33537896  0.24689284  1
  O  O95  1  0.48843219  0.15278136  0.24433359  1
  O  O96  1  0.62604345  0.47567661  0.92616408  1
  O  O97  1  0.84983432  0.37472253  0.92559051  1
  O  O98  1  0.52469854  0.14997908  0.92746223  1
  O  O99  1  0.65792591  0.16432264  0.42863362  1
  O  O100  1  0.50839611  0.34387831  0.42818168  1
  O  O101  1  0.83441039  0.49225015  0.42684906  1
  O  O102  1  0.35393357  0.46157973  0.07448492  1
  O  O103  1  0.11990597  0.65032213  0.07477953  1
  O  O104  1  0.51452223  0.89615567  0.07387735  1
  O  O105  1  0.36561519  0.87345426  0.57350336  1
  O  O106  1  0.50778190  0.64792000  0.57112999  1
  O  O107  1  0.14675658  0.46609149  0.57554727  1
  O  O108  1  0.31785276  0.83172217  0.25564303  1
  O  O109  1  0.51079147  0.67779535  0.25841919  1
  O  O110  1  0.16748956  0.48781096  0.25847634  1
  O  O111  1  0.31480205  0.49362048  0.76384932  1
  O  O112  1  0.18023002  0.68563652  0.76489653  1
  O  O113  1  0.50571481  0.82274608  0.76484964  1
