# generated using pymatgen
data_Cd2P6O17
_symmetry_space_group_name_H-M   'P 1'
_cell_length_a   18.14337869
_cell_length_b   5.50104233
_cell_length_c   7.61768762
_cell_angle_alpha   68.48695643
_cell_angle_beta   90.00000000
_cell_angle_gamma   90.00000000
_symmetry_Int_Tables_number   1
_chemical_formula_structural   Cd2P6O17
_chemical_formula_sum   'Cd4 P12 O34'
_cell_volume   707.33517441
_cell_formula_units_Z   2
loop_
 _symmetry_equiv_pos_site_id
 _symmetry_equiv_pos_as_xyz
  1  'x, y, z'
loop_
 _atom_site_type_symbol
 _atom_site_label
 _atom_site_symmetry_multiplicity
 _atom_site_fract_x
 _atom_site_fract_y
 _atom_site_fract_z
 _atom_site_occupancy
  Cd  Cd0  1  0.07224801  0.09542310  0.14241022  1
  Cd  Cd1  1  0.57224801  0.90457690  0.35758978  1
  Cd  Cd2  1  0.92775199  0.90457690  0.85758978  1
  Cd  Cd3  1  0.42775199  0.09542310  0.64241022  1
  P  P4  1  0.03011556  0.49335046  0.69442287  1
  P  P5  1  0.53011556  0.50664954  0.80557713  1
  P  P6  1  0.96988444  0.50664954  0.30557713  1
  P  P7  1  0.46988444  0.49335046  0.19442287  1
  P  P8  1  0.16891091  0.73368259  0.57836631  1
  P  P9  1  0.66891091  0.26631741  0.92163369  1
  P  P10  1  0.83108909  0.26631741  0.42163369  1
  P  P11  1  0.33108909  0.73368259  0.07836631  1
  P  P12  1  0.17774531  0.71165034  0.97325783  1
  P  P13  1  0.67774531  0.28834966  0.52674217  1
  P  P14  1  0.82225469  0.28834966  0.02674217  1
  P  P15  1  0.32225469  0.71165034  0.47325783  1
  O  O16  1  0.01140483  0.23487568  0.84175548  1
  O  O17  1  0.51140483  0.76512432  0.65824452  1
  O  O18  1  0.98859517  0.76512432  0.15824452  1
  O  O19  1  0.48859517  0.23487568  0.34175548  1
  O  O20  1  0.01241996  0.73927096  0.72090153  1
  O  O21  1  0.51241996  0.26072904  0.77909847  1
  O  O22  1  0.98758004  0.26072904  0.27909847  1
  O  O23  1  0.48758004  0.73927096  0.22090153  1
  O  O24  1  -0.00000000  0.50000000  0.50000000  1
  O  O25  1  0.50000000  0.50000000  -0.00000000  1
  O  O26  1  0.11771764  0.48731305  0.65708819  1
  O  O27  1  0.61771764  0.51268695  0.84291181  1
  O  O28  1  0.88228236  0.51268695  0.34291181  1
  O  O29  1  0.38228236  0.48731305  0.15708819  1
  O  O30  1  0.13951597  0.94876166  0.41671343  1
  O  O31  1  0.63951597  0.05123834  0.08328657  1
  O  O32  1  0.23991588  0.60124810  0.53839500  1
  O  O33  1  0.73991588  0.39875190  0.96160500  1
  O  O34  1  0.76008412  0.39875190  0.46160500  1
  O  O35  1  0.26008412  0.60124810  0.03839500  1
  O  O36  1  0.33386859  0.94194830  0.52513334  1
  O  O37  1  0.83386859  0.05805170  0.97486666  1
  O  O38  1  0.66613141  0.05805170  0.47486666  1
  O  O39  1  0.16613141  0.94194830  0.02513334  1
  O  O40  1  0.37229505  0.48686031  0.53515140  1
  O  O41  1  0.87229505  0.51313969  0.96484860  1
  O  O42  1  0.62770495  0.51313969  0.46484860  1
  O  O43  1  0.12770495  0.48686031  0.03515140  1
  O  O44  1  0.31246629  0.81983738  0.24673394  1
  O  O45  1  0.81246629  0.18016262  0.25326606  1
  O  O46  1  0.68753371  0.18016262  0.75326606  1
  O  O47  1  0.18753371  0.81983738  0.74673394  1
  O  O48  1  0.36048403  0.94876166  0.91671343  1
  O  O49  1  0.86048403  0.05123834  0.58328657  1
