# generated using pymatgen
data_P2Pb2O7
_symmetry_space_group_name_H-M   'P 1'
_cell_length_a   6.96330201
_cell_length_b   6.98639212
_cell_length_c   12.80163377
_cell_angle_alpha   96.86661207
_cell_angle_beta   89.31678242
_cell_angle_gamma   90.29580708
_symmetry_Int_Tables_number   1
_chemical_formula_structural   P2Pb2O7
_chemical_formula_sum   'P8 Pb8 O28'
_cell_volume   618.26304923
_cell_formula_units_Z   4
loop_
 _symmetry_equiv_pos_site_id
 _symmetry_equiv_pos_as_xyz
  1  'x, y, z'
loop_
 _atom_site_type_symbol
 _atom_site_label
 _atom_site_symmetry_multiplicity
 _atom_site_fract_x
 _atom_site_fract_y
 _atom_site_fract_z
 _atom_site_occupancy
  P  P0  1  0.42128742  0.70825005  0.89942845  1
  P  P1  1  0.57871258  0.29174995  0.10057155  1
  P  P2  1  0.16781501  0.69893564  0.08535171  1
  P  P3  1  0.83218499  0.30106436  0.91464829  1
  P  P4  1  0.81664856  0.69775377  0.59018879  1
  P  P5  1  0.18335144  0.30224623  0.40981121  1
  P  P6  1  0.76847432  0.89495184  0.40211406  1
  P  P7  1  0.23152568  0.10504816  0.59788594  1
  Pb  Pb8  1  0.35039356  0.62548745  0.63337249  1
  Pb  Pb9  1  0.64960644  0.37451255  0.36662751  1
  Pb  Pb10  1  0.90890123  0.81098233  0.85375136  1
  Pb  Pb11  1  0.09109877  0.18901767  0.14624864  1
  Pb  Pb12  1  0.32378249  0.21136707  0.85872205  1
  Pb  Pb13  1  0.67621751  0.78863293  0.14127795  1
  Pb  Pb14  1  0.75208374  0.20364544  0.65013791  1
  Pb  Pb15  1  0.24791626  0.79635456  0.34986209  1
  O  O16  1  0.47112810  0.54190974  0.81743502  1
  O  O17  1  0.52887190  0.45809026  0.18256498  1
  O  O18  1  0.59595955  0.79863896  0.95645408  1
  O  O19  1  0.40404045  0.20136104  0.04354592  1
  O  O20  1  0.29220594  0.85467629  0.85565337  1
  O  O21  1  0.70779406  0.14532371  0.14434663  1
  O  O22  1  0.29352392  0.60703283  0.98489957  1
  O  O23  1  0.70647608  0.39296717  0.01510043  1
  O  O24  1  0.30401894  0.83205255  0.15347502  1
  O  O25  1  0.69598106  0.16794745  0.84652498  1
  O  O26  1  0.08860580  0.53400857  0.13798255  1
  O  O27  1  0.91139420  0.46599143  0.86201745  1
  O  O28  1  0.00788892  0.81823623  0.04349454  1
  O  O29  1  0.99211108  0.18176377  0.95650546  1
  O  O30  1  0.68431718  0.52865331  0.55126234  1
  O  O31  1  0.31568282  0.47134669  0.44873766  1
  O  O32  1  0.08873337  0.07999664  0.68535611  1
  O  O33  1  0.91126663  0.92000336  0.31464389  1
  O  O34  1  0.39361098  0.24121729  0.63776467  1
  O  O35  1  0.60638902  0.75878271  0.36223533  1
  O  O36  1  0.30148206  0.91756085  0.53805834  1
  O  O37  1  0.69851794  0.08243915  0.46194166  1
  O  O38  1  0.10953482  0.21317179  0.51438571  1
  O  O39  1  0.89046518  0.78682821  0.48561429  1
  O  O40  1  0.00891478  0.36730046  0.35576964  1
  O  O41  1  0.99108522  0.63269954  0.64423036  1
  O  O42  1  0.29877696  0.14698543  0.34280938  1
  O  O43  1  0.70122304  0.85301457  0.65719062  1
