# generated using pymatgen
data_Na2InGaP2SO12
_symmetry_space_group_name_H-M   'P 1'
_cell_length_a   8.82287753
_cell_length_b   8.82860359
_cell_length_c   22.47351775
_cell_angle_alpha   90.53174852
_cell_angle_beta   89.48332967
_cell_angle_gamma   120.07853537
_symmetry_Int_Tables_number   1
_chemical_formula_structural   Na2InGaP2SO12
_chemical_formula_sum   'Na12 In6 Ga6 P12 S6 O72'
_cell_volume   1514.73091981
_cell_formula_units_Z   6
loop_
 _symmetry_equiv_pos_site_id
 _symmetry_equiv_pos_as_xyz
  1  'x, y, z'
loop_
 _atom_site_type_symbol
 _atom_site_label
 _atom_site_symmetry_multiplicity
 _atom_site_fract_x
 _atom_site_fract_y
 _atom_site_fract_z
 _atom_site_occupancy
  Na  Na0  1  0.99686906  0.63456462  0.25416752  1
  Na  Na1  1  0.36937159  0.00692936  0.75063375  1
  Na  Na2  1  0.66299163  0.95985177  0.58660112  1
  Na  Na3  1  0.03745530  0.33646889  0.08736723  1
  Na  Na4  1  0.32722219  0.29919630  0.91959264  1
  Na  Na5  1  0.69894323  0.67107904  0.41927250  1
  Na  Na6  1  0.02554515  0.99955336  0.49942669  1
  Na  Na7  1  0.00419335  0.97763076  0.00110378  1
  Na  Na8  1  0.69081162  0.33025927  0.83159051  1
  Na  Na9  1  0.66586986  0.31029450  0.33461976  1
  Na  Na10  1  0.35577504  0.66469894  0.17101509  1
  Na  Na11  1  0.33471954  0.64517827  0.66510449  1
  In  In12  1  0.99739858  0.00643087  0.84664798  1
  In  In13  1  0.00096534  0.99901880  0.15442380  1
  In  In14  1  0.66754843  0.33050362  0.98329867  1
  In  In15  1  0.32832190  0.67132324  0.02003478  1
  In  In16  1  0.33037122  0.67180905  0.51630954  1
  In  In17  1  0.33564686  0.66497915  0.81182565  1
  Ga  Ga18  1  0.98448905  0.99750219  0.34862347  1
  Ga  Ga19  1  0.00332203  0.99826732  0.64665391  1
  Ga  Ga20  1  0.65547236  0.33229079  0.68156050  1
  Ga  Ga21  1  0.66696354  0.34786623  0.18667579  1
  Ga  Ga22  1  0.66710810  0.33145426  0.48250207  1
  Ga  Ga23  1  0.33319391  0.66660734  0.31932092  1
  P  P24  1  0.69332851  0.70013804  0.25337147  1
  P  P25  1  0.00046606  0.30032484  0.25143544  1
  P  P26  1  0.29737542  0.29404612  0.74549658  1
  P  P27  1  0.70863588  0.00878168  0.74257140  1
  P  P28  1  0.37306994  0.04958878  0.58378694  1
  P  P29  1  0.67368782  0.62408200  0.58223811  1
  P  P30  1  0.95797126  0.62860518  0.08776900  1
  P  P31  1  0.37493328  0.33409368  0.08521494  1
  P  P32  1  0.03429097  0.36868475  0.91731084  1
  P  P33  1  0.33211914  0.96493835  0.91336351  1
  P  P34  1  0.63056793  0.96799804  0.41660186  1
  P  P35  1  0.03418272  0.66878326  0.41387366  1
  S  S36  1  0.30188605  0.00205072  0.25356406  1
  S  S37  1  0.98957331  0.69862244  0.74544106  1
  S  S38  1  0.95428828  0.33148307  0.58394290  1
  S  S39  1  0.66446227  0.04033708  0.08818091  1
  S  S40  1  0.63463715  0.67047138  0.91690204  1
  S  S41  1  0.32765922  0.36429501  0.41535883  1
  O  O42  1  0.21280888  0.02866686  0.30514174  1
  O  O43  1  0.81966482  0.78347684  0.30737030  1
  O  O44  1  0.97577721  0.17610168  0.30291942  1
  O  O45  1  0.23271062  0.19196730  0.80507677  1
  O  O46  1  0.96419494  0.77020251  0.80201994  1
  O  O47  1  0.80698967  0.02889615  0.80055374  1
  O  O48  1  0.79666026  0.98156449  0.68668540  1
  O  O49  1  0.17505863  0.19011839  0.69401030  1
  O  O50  1  0.01728895  0.81490237  0.69454390  1
  O  O51  1  0.77087431  0.81010901  0.19723669  1
  O  O52  1  0.03438528  0.23454305  0.19150550  1
  O  O53  1  0.19458672  0.96179337  0.19875520  1
  O  O54  1  0.87109408  0.35315432  0.63787059  1
  O  O55  1  0.48571713  0.12622218  0.64063497  1
  O  O56  1  0.65377890  0.51294386  0.63672708  1
  O  O57  1  0.87152115  0.51574666  0.14433684  1
  O  O58  1  0.64950430  0.13303176  0.14072296  1
  O  O59  1  0.48757380  0.34428461  0.13858629  1
  O  O60  1  0.44463933  0.31234074  0.02426481  1
  O  O61  1  0.85800161  0.54321963  0.03060531  1
  O  O62  1  0.68771096  0.13512515  0.03189272  1
  O  O63  1  0.46500361  0.16168662  0.52851322  1
  O  O64  1  0.69551161  0.54334620  0.52299406  1
  O  O65  1  0.84836952  0.30550126  0.52968075  1
  O  O66  1  0.55338339  0.69015136  0.97181184  1
  O  O67  1  0.13997019  0.44413188  0.97573570  1
  O  O68  1  0.31952865  0.86143164  0.96919701  1
  O  O69  1  0.56763853  0.85591280  0.47437224  1
  O  O70  1  0.29514156  0.43496445  0.47103052  1
  O  O71  1  0.14268064  0.69976522  0.47014272  1
  O  O72  1  0.12025009  0.63964748  0.35770874  1
  O  O73  1  0.50630260  0.87036993  0.36454705  1
  O  O74  1  0.36194133  0.48427188  0.36459229  1
  O  O75  1  0.12907941  0.47714248  0.86232511  1
  O  O76  1  0.35451581  0.88729736  0.85416293  1
  O  O77  1  0.52964800  0.64752810  0.86324045  1
  O  O78  1  0.01020758  0.83204849  0.40666691  1
  O  O79  1  0.81469385  0.98618903  0.40693356  1
  O  O80  1  0.17527165  0.18796325  0.40629330  1
  O  O81  1  0.01981604  0.18624829  0.91416311  1
  O  O82  1  0.16508030  0.98126153  0.91197102  1
  O  O83  1  0.81070909  0.82501398  0.91305851  1
  O  O84  1  0.96829235  0.16967487  0.58702505  1
  O  O85  1  0.18892201  0.03006190  0.58915428  1
  O  O86  1  0.83679851  0.81383608  0.58734349  1
  O  O87  1  0.97810780  0.81116894  0.09081476  1
  O  O88  1  0.82523608  0.02606529  0.09072752  1
  O  O89  1  0.18567748  0.17493972  0.08917318  1
  O  O90  1  0.68783685  0.17373491  0.73830866  1
  O  O91  1  0.48222185  0.31315952  0.73950999  1
  O  O92  1  0.83695635  0.52168679  0.73902858  1
  O  O93  1  0.68156609  0.51744272  0.24715891  1
  O  O94  1  0.83374072  0.31989367  0.24701235  1
  O  O95  1  0.47678551  0.15946972  0.24690058  1
  O  O96  1  0.64494655  0.50779305  0.91868020  1
  O  O97  1  0.85269385  0.35149636  0.91895026  1
  O  O98  1  0.49164166  0.15426761  0.91633268  1
  O  O99  1  0.64648760  0.14980494  0.42428784  1
  O  O100  1  0.49216382  0.35550409  0.42034181  1
  O  O101  1  0.84597575  0.50420418  0.42034584  1
  O  O102  1  0.35909727  0.50222426  0.08515138  1
  O  O103  1  0.14009881  0.63994640  0.08684703  1
  O  O104  1  0.50688610  0.86452644  0.08651899  1
  O  O105  1  0.35821523  0.86592937  0.58004356  1
  O  O106  1  0.50904235  0.64694019  0.57972992  1
  O  O107  1  0.13165176  0.48729323  0.58015429  1
  O  O108  1  0.31855607  0.84293486  0.26049481  1
  O  O109  1  0.51056467  0.67814208  0.26325691  1
  O  O110  1  0.16087571  0.48863289  0.26037925  1
  O  O111  1  0.31275597  0.47532042  0.74792203  1
  O  O112  1  0.15419658  0.68980698  0.74760618  1
  O  O113  1  0.51891952  0.84683197  0.74540246  1
