# generated using pymatgen
data_Na3ZrTa(SiO4)3
_symmetry_space_group_name_H-M   'P 1'
_cell_length_a   9.16789718
_cell_length_b   9.17984366
_cell_length_c   22.50882162
_cell_angle_alpha   90.00000000
_cell_angle_beta   90.13465304
_cell_angle_gamma   120.04311716
_symmetry_Int_Tables_number   1
_chemical_formula_structural   Na3ZrTa(SiO4)3
_chemical_formula_sum   'Na18 Zr6 Ta6 Si18 O72'
_cell_volume   1639.82670310
_cell_formula_units_Z   6
loop_
 _symmetry_equiv_pos_site_id
 _symmetry_equiv_pos_as_xyz
  1  'x, y, z'
loop_
 _atom_site_type_symbol
 _atom_site_label
 _atom_site_symmetry_multiplicity
 _atom_site_fract_x
 _atom_site_fract_y
 _atom_site_fract_z
 _atom_site_occupancy
  Na  Na0  1  0.98530217  0.96858578  0.49742621  1
  Na  Na1  1  0.98530217  0.01671639  0.99742621  1
  Na  Na2  1  0.66605019  0.33596421  0.83078165  1
  Na  Na3  1  0.66605019  0.33008498  0.33078165  1
  Na  Na4  1  0.32923059  0.66351002  0.16421379  1
  Na  Na5  1  0.32923059  0.66572157  0.66421379  1
  Na  Na6  1  0.37062793  0.36351211  0.24874588  1
  Na  Na7  1  0.99035645  0.63406355  0.24810755  1
  Na  Na8  1  0.99035645  0.35629290  0.74810755  1
  Na  Na9  1  0.37062793  0.00711581  0.74874588  1
  Na  Na10  1  0.30798968  0.34233622  0.58157386  1
  Na  Na11  1  0.66110829  0.96514322  0.58133508  1
  Na  Na12  1  0.30798968  0.96565246  0.08157386  1
  Na  Na13  1  0.66110829  0.69596407  0.08133508  1
  Na  Na14  1  0.97632318  0.67790470  0.91484382  1
  Na  Na15  1  0.32629932  0.29502480  0.91506770  1
  Na  Na16  1  0.97632318  0.29841948  0.41484382  1
  Na  Na17  1  0.32629932  0.03127553  0.41506770  1
  Zr  Zr18  1  0.99294632  0.99572750  0.35393261  1
  Zr  Zr19  1  0.99294632  0.99721882  0.85393261  1
  Zr  Zr20  1  0.66807863  0.34094193  0.68748532  1
  Zr  Zr21  1  0.66807863  0.32713571  0.18748532  1
  Zr  Zr22  1  0.32930079  0.66111965  0.02093029  1
  Zr  Zr23  1  0.32930079  0.66818214  0.52093029  1
  Ta  Ta24  1  0.99822352  0.99553569  0.64558696  1
  Ta  Ta25  1  0.99822352  0.00268783  0.14558696  1
  Ta  Ta26  1  0.66850405  0.32958808  0.97873251  1
  Ta  Ta27  1  0.66850405  0.33891497  0.47873251  1
  Ta  Ta28  1  0.33845407  0.67012985  0.31217411  1
  Ta  Ta29  1  0.33845407  0.66832522  0.81217411  1
  Si  Si30  1  0.28875864  0.99457164  0.25094581  1
  Si  Si31  1  0.70344829  0.71148306  0.24752046  1
  Si  Si32  1  0.00570953  0.29616278  0.25246436  1
  Si  Si33  1  0.28875864  0.29418700  0.75094581  1
  Si  Si34  1  0.00570953  0.70954675  0.75246436  1
  Si  Si35  1  0.70344829  0.99196523  0.74752046  1
  Si  Si36  1  0.95749797  0.32826186  0.58450106  1
  Si  Si37  1  0.37237636  0.04449754  0.58443980  1
  Si  Si38  1  0.67479486  0.62957404  0.58221428  1
  Si  Si39  1  0.95749797  0.62923511  0.08450106  1
  Si  Si40  1  0.67479486  0.04521982  0.08221428  1
  Si  Si41  1  0.37237636  0.32787782  0.08443980  1
  Si  Si42  1  0.62337530  0.66235483  0.91979930  1
  Si  Si43  1  0.03754641  0.37748714  0.91412062  1
  Si  Si44  1  0.34200519  0.96266774  0.91699050  1
  Si  Si45  1  0.62337530  0.96102147  0.41979930  1
  Si  Si46  1  0.34200519  0.37933845  0.41699050  1
  Si  Si47  1  0.03754641  0.66006027  0.41412062  1
  O  O48  1  0.20276563  0.02098289  0.31001701  1
  O  O49  1  0.82839624  0.80442651  0.30306056  1
  O  O50  1  0.98757355  0.19558476  0.31364719  1
  O  O51  1  0.20276563  0.18178275  0.81001701  1
  O  O52  1  0.98757355  0.79198879  0.81364719  1
  O  O53  1  0.82839624  0.02396973  0.80306056  1
  O  O54  1  0.79762922  0.97428991  0.68708998  1
  O  O55  1  0.16370415  0.19588511  0.69248744  1
  O  O56  1  0.02220536  0.83710135  0.69627247  1
  O  O57  1  0.79762922  0.82333931  0.18708998  1
  O  O58  1  0.02220536  0.18510401  0.19627247  1
  O  O59  1  0.16370415  0.96781904  0.19248744  1
  O  O60  1  0.86958805  0.34555189  0.64442475  1
  O  O61  1  0.48390579  0.13115994  0.64359652  1
  O  O62  1  0.64093210  0.50873161  0.63886622  1
  O  O63  1  0.86958805  0.52403516  0.14442475  1
  O  O64  1  0.64093210  0.13219949  0.13886622  1
  O  O65  1  0.48390579  0.35274484  0.14359652  1
  O  O66  1  0.47289944  0.30474873  0.02616473  1
  O  O67  1  0.83533955  0.52774070  0.02586117  1
  O  O68  1  0.69264856  0.16402325  0.02362496  1
  O  O69  1  0.47289944  0.16814971  0.52616473  1
  O  O70  1  0.69264856  0.52862431  0.52362496  1
  O  O71  1  0.83533955  0.30759784  0.52586117  1
  O  O72  1  0.54264410  0.68270488  0.98072397  1
  O  O73  1  0.15927016  0.47206353  0.97026548  1
  O  O74  1  0.31504787  0.85007150  0.97574586  1
  O  O75  1  0.54264410  0.85994021  0.48072397  1
  O  O76  1  0.31504787  0.46497736  0.47574586  1
  O  O77  1  0.15927016  0.68720764  0.47026548  1
  O  O78  1  0.13034497  0.63382872  0.35454171  1
  O  O79  1  0.49476336  0.85297609  0.36316996  1
  O  O80  1  0.35550876  0.49493638  0.35776829  1
  O  O81  1  0.13034497  0.49651725  0.85454171  1
  O  O82  1  0.35550876  0.86057338  0.85776829  1
  O  O83  1  0.49476336  0.64178827  0.86316996  1
  O  O84  1  0.01949192  0.82708382  0.41183632  1
  O  O85  1  0.81586271  0.99820151  0.41423895  1
  O  O86  1  0.17844408  0.18872871  0.41359752  1
  O  O87  1  0.01949192  0.19240810  0.91183632  1
  O  O88  1  0.17844408  0.98971537  0.91359752  1
  O  O89  1  0.81586271  0.81766120  0.91423895  1
  O  O90  1  0.96441026  0.15024357  0.58663765  1
  O  O91  1  0.18962581  0.03939708  0.58895133  1
  O  O92  1  0.84673722  0.81491872  0.58769537  1
  O  O93  1  0.96441026  0.81416669  0.08663765  1
  O  O94  1  0.84673722  0.03181850  0.08769537  1
  O  O95  1  0.18962581  0.15022874  0.08895133  1
  O  O96  1  0.67557391  0.15442921  0.74613457  1
  O  O97  1  0.47307891  0.31062154  0.74636138  1
  O  O98  1  0.85089062  0.51686961  0.74753130  1
  O  O99  1  0.67557391  0.52114370  0.24613457  1
  O  O100  1  0.85089062  0.33402001  0.24753130  1
  O  O101  1  0.47307891  0.16245638  0.24636138  1
  O  O102  1  0.62805750  0.48350961  0.92106479  1
  O  O103  1  0.85681195  0.37492391  0.92101765  1
  O  O104  1  0.51171781  0.15169460  0.92060275  1
  O  O105  1  0.62805750  0.14454689  0.42106479  1
  O  O106  1  0.51171781  0.36002221  0.42060275  1
  O  O107  1  0.85681195  0.48188705  0.42101765  1
  O  O108  1  0.35342117  0.49397662  0.08024691  1
  O  O109  1  0.15096073  0.66731901  0.08084498  1
  O  O110  1  0.51151873  0.85619017  0.07899811  1
  O  O111  1  0.35342117  0.85944555  0.58024691  1
  O  O112  1  0.51151873  0.65532956  0.57899811  1
  O  O113  1  0.15096073  0.48364272  0.58084498  1
  O  O114  1  0.29557062  0.81837909  0.25542761  1
  O  O115  1  0.51754967  0.69681633  0.25502270  1
  O  O116  1  0.18550179  0.47916957  0.25252827  1
  O  O117  1  0.29557062  0.47719254  0.75542761  1
  O  O118  1  0.18550179  0.70633322  0.75252827  1
  O  O119  1  0.51754967  0.82073434  0.75502270  1
