# generated using pymatgen
data_NaNbIn(PO4)3
_symmetry_space_group_name_H-M   'P 1'
_cell_length_a   8.83615032
_cell_length_b   8.83615004
_cell_length_c   23.16448968
_cell_angle_alpha   90.00000000
_cell_angle_beta   90.00000000
_cell_angle_gamma   120.00000107
_symmetry_Int_Tables_number   1
_chemical_formula_structural   NaNbIn(PO4)3
_chemical_formula_sum   'Na6 Nb6 In6 P18 O72'
_cell_volume   1566.31656502
_cell_formula_units_Z   6
loop_
 _symmetry_equiv_pos_site_id
 _symmetry_equiv_pos_as_xyz
  1  'x, y, z'
loop_
 _atom_site_type_symbol
 _atom_site_label
 _atom_site_symmetry_multiplicity
 _atom_site_fract_x
 _atom_site_fract_y
 _atom_site_fract_z
 _atom_site_occupancy
  Na  Na0  1  -0.00000000  -0.00000000  0.49696202  1
  Na  Na1  1  -0.00000000  -0.00000000  0.99696202  1
  Na  Na2  1  0.66666700  0.33333300  0.83029502  1
  Na  Na3  1  0.66666700  0.33333300  0.33029502  1
  Na  Na4  1  0.33333300  0.66666700  0.16362902  1
  Na  Na5  1  0.33333300  0.66666700  0.66362902  1
  Nb  Nb6  1  -0.00000000  -0.00000000  0.64547791  1
  Nb  Nb7  1  -0.00000000  -0.00000000  0.14547791  1
  Nb  Nb8  1  0.66666700  0.33333300  0.97881091  1
  Nb  Nb9  1  0.66666700  0.33333300  0.47881091  1
  Nb  Nb10  1  0.33333300  0.66666700  0.31214491  1
  Nb  Nb11  1  0.33333300  0.66666700  0.81214491  1
  In  In12  1  -0.00000000  -0.00000000  0.35182306  1
  In  In13  1  -0.00000000  -0.00000000  0.85182306  1
  In  In14  1  0.66666700  0.33333300  0.68515606  1
  In  In15  1  0.66666700  0.33333300  0.18515606  1
  In  In16  1  0.33333300  0.66666700  0.01849006  1
  In  In17  1  0.33333300  0.66666700  0.51849006  1
  P  P18  1  0.29026959  0.00116552  0.25057486  1
  P  P19  1  0.71089593  0.70973041  0.25057486  1
  P  P20  1  0.99883448  0.28910407  0.25057486  1
  P  P21  1  0.29026959  0.28910407  0.75057486  1
  P  P22  1  0.99883448  0.70973041  0.75057486  1
  P  P23  1  0.71089593  0.00116552  0.75057486  1
  P  P24  1  0.95693659  0.33449852  0.58390786  1
  P  P25  1  0.37756293  0.04306341  0.58390786  1
  P  P26  1  0.66550148  0.62243707  0.58390786  1
  P  P27  1  0.95693659  0.62243707  0.08390786  1
  P  P28  1  0.66550148  0.04306341  0.08390786  1
  P  P29  1  0.37756293  0.33449852  0.08390786  1
  P  P30  1  0.62360259  0.66783252  0.91724186  1
  P  P31  1  0.04422893  0.37639741  0.91724186  1
  P  P32  1  0.33216748  0.95577107  0.91724186  1
  P  P33  1  0.62360259  0.95577107  0.41724186  1
  P  P34  1  0.33216748  0.37639741  0.41724186  1
  P  P35  1  0.04422893  0.66783252  0.41724186  1
  O  O36  1  0.21282685  0.02839871  0.30463372  1
  O  O37  1  0.81557186  0.78717315  0.30463372  1
  O  O38  1  0.97160129  0.18442814  0.30463372  1
  O  O39  1  0.21282685  0.18442814  0.80463372  1
  O  O40  1  0.97160129  0.78717315  0.80463372  1
  O  O41  1  0.81557186  0.02839871  0.80463372  1
  O  O42  1  0.79973394  0.97014169  0.69578771  1
  O  O43  1  0.17040775  0.20026606  0.69578771  1
  O  O44  1  0.02985831  0.82959225  0.69578771  1
  O  O45  1  0.79973394  0.82959225  0.19578771  1
  O  O46  1  0.02985831  0.20026606  0.19578771  1
  O  O47  1  0.17040775  0.97014169  0.19578771  1
  O  O48  1  0.87949385  0.36173171  0.63796672  1
  O  O49  1  0.48223886  0.12050615  0.63796672  1
  O  O50  1  0.63826829  0.51776114  0.63796672  1
  O  O51  1  0.87949385  0.51776114  0.13796672  1
  O  O52  1  0.63826829  0.12050615  0.13796672  1
  O  O53  1  0.48223886  0.36173171  0.13796672  1
  O  O54  1  0.46640094  0.30347469  0.02912071  1
  O  O55  1  0.83707475  0.53359906  0.02912071  1
  O  O56  1  0.69652531  0.16292525  0.02912071  1
  O  O57  1  0.46640094  0.16292525  0.52912071  1
  O  O58  1  0.69652531  0.53359906  0.52912071  1
  O  O59  1  0.83707475  0.30347469  0.52912071  1
  O  O60  1  0.54615985  0.69506571  0.97130072  1
  O  O61  1  0.14890486  0.45384015  0.97130072  1
  O  O62  1  0.30493429  0.85109514  0.97130072  1
  O  O63  1  0.54615985  0.85109514  0.47130072  1
  O  O64  1  0.30493429  0.45384015  0.47130072  1
  O  O65  1  0.14890486  0.69506571  0.47130072  1
  O  O66  1  0.13306694  0.63680869  0.36245471  1
  O  O67  1  0.50374075  0.86693306  0.36245471  1
  O  O68  1  0.36319131  0.49625925  0.36245471  1
  O  O69  1  0.13306694  0.49625925  0.86245471  1
  O  O70  1  0.36319131  0.86693306  0.86245471  1
  O  O71  1  0.50374075  0.63680869  0.86245471  1
  O  O72  1  0.01591188  0.82270409  0.41016571  1
  O  O73  1  0.80679221  0.98408812  0.41016571  1
  O  O74  1  0.17729591  0.19320779  0.41016571  1
  O  O75  1  0.01591188  0.19320779  0.91016571  1
  O  O76  1  0.17729591  0.98408812  0.91016571  1
  O  O77  1  0.80679221  0.82270409  0.91016571  1
  O  O78  1  0.96956660  0.16216934  0.59075033  1
  O  O79  1  0.19260274  0.03043340  0.59075033  1
  O  O80  1  0.83783066  0.80739726  0.59075033  1
  O  O81  1  0.96956660  0.80739726  0.09075033  1
  O  O82  1  0.83783066  0.03043340  0.09075033  1
  O  O83  1  0.19260274  0.16216934  0.09075033  1
  O  O84  1  0.68257888  0.15603709  0.74349871  1
  O  O85  1  0.47345921  0.31742112  0.74349871  1
  O  O86  1  0.84396291  0.52654079  0.74349871  1
  O  O87  1  0.68257888  0.52654079  0.24349871  1
  O  O88  1  0.84396291  0.31742112  0.24349871  1
  O  O89  1  0.47345921  0.15603709  0.24349871  1
  O  O90  1  0.63623360  0.49550234  0.92408333  1
  O  O91  1  0.85926974  0.36376640  0.92408333  1
  O  O92  1  0.50449766  0.14073026  0.92408333  1
  O  O93  1  0.63623360  0.14073026  0.42408333  1
  O  O94  1  0.50449766  0.36376640  0.42408333  1
  O  O95  1  0.85926974  0.49550234  0.42408333  1
  O  O96  1  0.34924488  0.48937109  0.07683271  1
  O  O97  1  0.14012521  0.65075512  0.07683271  1
  O  O98  1  0.51062891  0.85987479  0.07683271  1
  O  O99  1  0.34924488  0.85987479  0.57683271  1
  O  O100  1  0.51062891  0.65075512  0.57683271  1
  O  O101  1  0.14012521  0.48937109  0.57683271  1
  O  O102  1  0.30289960  0.82883634  0.25741733  1
  O  O103  1  0.52593574  0.69710040  0.25741733  1
  O  O104  1  0.17116366  0.47406426  0.25741733  1
  O  O105  1  0.30289960  0.47406426  0.75741733  1
  O  O106  1  0.17116366  0.69710040  0.75741733  1
  O  O107  1  0.52593574  0.82883634  0.75741733  1
