# generated using pymatgen
data_Tl6Si2O7
_symmetry_space_group_name_H-M   'P 1'
_cell_length_a   9.70743981
_cell_length_b   9.70732423
_cell_length_c   7.93140043
_cell_angle_alpha   89.99982047
_cell_angle_beta   90.00015924
_cell_angle_gamma   120.00162704
_symmetry_Int_Tables_number   1
_chemical_formula_structural   Tl6Si2O7
_chemical_formula_sum   'Tl12 Si4 O14'
_cell_volume   647.25830230
_cell_formula_units_Z   2
loop_
 _symmetry_equiv_pos_site_id
 _symmetry_equiv_pos_as_xyz
  1  'x, y, z'
loop_
 _atom_site_type_symbol
 _atom_site_label
 _atom_site_symmetry_multiplicity
 _atom_site_fract_x
 _atom_site_fract_y
 _atom_site_fract_z
 _atom_site_occupancy
  Tl  Tl0  1  0.03571394  0.35055591  0.36870714  1
  Tl  Tl1  1  0.31483960  0.96428701  0.36870787  1
  Tl  Tl2  1  0.64944936  0.68516138  0.36870418  1
  Tl  Tl3  1  0.96428780  0.64944366  0.63129252  1
  Tl  Tl4  1  0.68515944  0.03571144  0.63129275  1
  Tl  Tl5  1  0.35055194  0.31483970  0.63129345  1
  Tl  Tl6  1  0.05039401  0.35763655  0.87952061  1
  Tl  Tl7  1  0.30724214  0.94960482  0.87952303  1
  Tl  Tl8  1  0.64236167  0.69276015  0.87952743  1
  Tl  Tl9  1  0.94960709  0.64236304  0.12047843  1
  Tl  Tl10  1  0.69275779  0.05040218  0.12048685  1
  Tl  Tl11  1  0.35763843  0.30724006  0.12047228  1
  Si  Si12  1  0.33332150  0.66667376  0.16723727  1
  Si  Si13  1  0.66667791  0.33332298  0.41541068  1
  Si  Si14  1  0.33332168  0.66667723  0.58458882  1
  Si  Si15  1  0.66667893  0.33332512  0.83276100  1
  O  O16  1  0.85149229  0.44716834  0.88807401  1
  O  O17  1  0.55281975  0.40433427  0.88807757  1
  O  O18  1  0.59567922  0.14851289  0.88806860  1
  O  O19  1  0.40432135  0.85148706  0.11193016  1
  O  O20  1  0.66666858  0.33333367  0.62391601  1
  O  O21  1  0.33333160  0.66666520  0.37608321  1
  O  O22  1  0.59785965  0.14900586  0.35925662  1
  O  O23  1  0.55113279  0.40215059  0.35924897  1
  O  O24  1  0.85099497  0.44885493  0.35925349  1
  O  O25  1  0.40213620  0.85099274  0.64074442  1
  O  O26  1  0.44886749  0.59784989  0.64075049  1
  O  O27  1  0.14900535  0.55114149  0.64074570  1
  O  O28  1  0.14850870  0.55283100  0.11192495  1
  O  O29  1  0.44717983  0.59566509  0.11192149  1
