# generated using pymatgen
data_Sn2OF2
_symmetry_space_group_name_H-M   'P 1'
_cell_length_a   5.06856188
_cell_length_b   6.10893040
_cell_length_c   6.10893055
_cell_angle_alpha   81.28489915
_cell_angle_beta   84.49422228
_cell_angle_gamma   84.49422965
_symmetry_Int_Tables_number   1
_chemical_formula_structural   Sn2OF2
_chemical_formula_sum   'Sn4 O2 F4'
_cell_volume   185.46912566
_cell_formula_units_Z   2
loop_
 _symmetry_equiv_pos_site_id
 _symmetry_equiv_pos_as_xyz
  1  'x, y, z'
loop_
 _atom_site_type_symbol
 _atom_site_label
 _atom_site_symmetry_multiplicity
 _atom_site_fract_x
 _atom_site_fract_y
 _atom_site_fract_z
 _atom_site_occupancy
  Sn  Sn0  1  0.50000000  0.70643723  0.29356277  1
  Sn  Sn1  1  0.50000000  0.29356277  0.70643723  1
  Sn  Sn2  1  0.01382732  0.78584819  0.78584819  1
  Sn  Sn3  1  0.98617268  0.21415181  0.21415181  1
  O  O4  1  0.30382150  0.60792512  0.60792512  1
  O  O5  1  0.69617850  0.39207488  0.39207488  1
  F  F6  1  0.20176814  0.14428357  0.50678152  1
  F  F7  1  0.79823186  0.85571643  0.49321848  1
  F  F8  1  0.20176814  0.50678152  0.14428357  1
  F  F9  1  0.79823186  0.49321848  0.85571643  1
