# generated using pymatgen
data_Na7Y3NbSi3(PO8)3
_symmetry_space_group_name_H-M   'P 1'
_cell_length_a   9.35536775
_cell_length_b   9.35698961
_cell_length_c   23.27634985
_cell_angle_alpha   90.00155867
_cell_angle_beta   89.95820889
_cell_angle_gamma   119.99814525
_symmetry_Int_Tables_number   1
_chemical_formula_structural   Na7Y3NbSi3(PO8)3
_chemical_formula_sum   'Na21 Y9 Nb3 Si9 P9 O72'
_cell_volume   1764.61711467
_cell_formula_units_Z   3
loop_
 _symmetry_equiv_pos_site_id
 _symmetry_equiv_pos_as_xyz
  1  'x, y, z'
loop_
 _atom_site_type_symbol
 _atom_site_label
 _atom_site_symmetry_multiplicity
 _atom_site_fract_x
 _atom_site_fract_y
 _atom_site_fract_z
 _atom_site_occupancy
  Na  Na0  1  0.63240116  0.99852301  0.25265284  1
  Na  Na1  1  0.36624357  0.36816987  0.25255596  1
  Na  Na2  1  0.00235536  0.63520450  0.25476683  1
  Na  Na3  1  0.63979227  0.63430528  0.74669911  1
  Na  Na4  1  0.99389914  0.35239023  0.74381193  1
  Na  Na5  1  0.29994798  0.34327737  0.58293074  1
  Na  Na6  1  0.03380409  0.69511002  0.58149572  1
  Na  Na7  1  0.66561496  0.95977079  0.57920828  1
  Na  Na8  1  0.30541555  0.96809913  0.08237158  1
  Na  Na9  1  0.65752875  0.69727496  0.08261832  1
  Na  Na10  1  0.04232907  0.33473448  0.07920934  1
  Na  Na11  1  0.32285917  0.29785877  0.91271329  1
  Na  Na12  1  0.97753185  0.30239791  0.41885381  1
  Na  Na13  1  0.33042304  0.02680777  0.41942348  1
  Na  Na14  1  0.69498131  0.67365034  0.41881698  1
  Na  Na15  1  0.99565509  0.99936955  0.49934684  1
  Na  Na16  1  0.99110055  0.00013744  0.99669339  1
  Na  Na17  1  0.65889236  0.32420580  0.83020004  1
  Na  Na18  1  0.66454328  0.33161878  0.33755278  1
  Na  Na19  1  0.33953494  0.66679141  0.16532067  1
  Na  Na20  1  0.33396923  0.66902076  0.66016308  1
  Y  Y21  1  0.99977985  0.00038094  0.35120494  1
  Y  Y22  1  0.99836754  0.99783958  0.85153339  1
  Y  Y23  1  0.00190805  0.00482739  0.65000430  1
  Y  Y24  1  0.00181343  0.00374208  0.14567191  1
  Y  Y25  1  0.65846209  0.32837751  0.68506739  1
  Y  Y26  1  0.66383485  0.33213306  0.18144158  1
  Y  Y27  1  0.33449928  0.66728893  0.01388394  1
  Y  Y28  1  0.33304450  0.66370119  0.51455924  1
  Y  Y29  1  0.33445198  0.66652778  0.32392313  1
  Nb  Nb30  1  0.66846669  0.32569819  0.97953777  1
  Nb  Nb31  1  0.67296264  0.33882128  0.48288726  1
  Nb  Nb32  1  0.32563878  0.66302211  0.81771203  1
  Si  Si33  1  0.30196201  0.30576164  0.75423090  1
  Si  Si34  1  0.96023582  0.33310307  0.58466143  1
  Si  Si35  1  0.66828048  0.62918377  0.58414516  1
  Si  Si36  1  0.66587914  0.03870797  0.08244948  1
  Si  Si37  1  0.37572521  0.33440236  0.08059919  1
  Si  Si38  1  0.03215793  0.37211380  0.91871062  1
  Si  Si39  1  0.63501283  0.97566574  0.41818026  1
  Si  Si40  1  0.34015157  0.36352233  0.41787530  1
  Si  Si41  1  0.02675937  0.66199689  0.41802017  1
  P  P42  1  0.29981673  0.99733710  0.24895640  1
  P  P43  1  0.69893577  0.70044915  0.24886042  1
  P  P44  1  0.00254253  0.30353119  0.24905583  1
  P  P45  1  0.00801677  0.70180492  0.75139496  1
  P  P46  1  0.69377549  0.99056510  0.75242289  1
  P  P47  1  0.37603718  0.04319579  0.58064231  1
  P  P48  1  0.95394312  0.62071665  0.08065709  1
  P  P49  1  0.62362408  0.65741700  0.91673279  1
  P  P50  1  0.34127838  0.96630379  0.91773958  1
  O  O51  1  0.21558929  0.01899133  0.30246384  1
  O  O52  1  0.80374724  0.78479525  0.30251187  1
  O  O53  1  0.97926096  0.19735085  0.30263701  1
  O  O54  1  0.21192935  0.19869485  0.81030521  1
  O  O55  1  0.97620635  0.78670710  0.80140530  1
  O  O56  1  0.81074601  0.01686733  0.80211402  1
  O  O57  1  0.75961590  0.95076659  0.69630149  1
  O  O58  1  0.18680224  0.23756516  0.69610033  1
  O  O59  1  0.03710323  0.79962514  0.69488082  1
  O  O60  1  0.78467058  0.80474641  0.19427414  1
  O  O61  1  0.02169147  0.21701660  0.19472311  1
  O  O62  1  0.19524192  0.97795002  0.19442872  1
  O  O63  1  0.87707757  0.35495339  0.64229924  1
  O  O64  1  0.48115511  0.12220526  0.63392566  1
  O  O65  1  0.64020252  0.52043779  0.64136244  1
  O  O66  1  0.88549828  0.52466090  0.13708406  1
  O  O67  1  0.64088580  0.11821218  0.14041324  1
  O  O68  1  0.48115549  0.36521720  0.13909472  1
  O  O69  1  0.48744938  0.32004121  0.02559204  1
  O  O70  1  0.83579630  0.51898468  0.02959057  1
  O  O71  1  0.68300377  0.16907621  0.02751501  1
  O  O72  1  0.46766981  0.15209939  0.52657560  1
  O  O73  1  0.67821568  0.51638109  0.52844087  1
  O  O74  1  0.83634066  0.31811119  0.52866085  1
  O  O75  1  0.55039008  0.68190836  0.97235802  1
  O  O76  1  0.13911342  0.45046475  0.97579250  1
  O  O77  1  0.31984874  0.87377502  0.97405827  1
  O  O78  1  0.55458060  0.85784570  0.47354847  1
  O  O79  1  0.30162711  0.44442738  0.47288072  1
  O  O80  1  0.14274995  0.69807502  0.47354839  1
  O  O81  1  0.09702406  0.61738731  0.36002830  1
  O  O82  1  0.52063317  0.90308256  0.36005105  1
  O  O83  1  0.38407177  0.47896021  0.35988827  1
  O  O84  1  0.14263688  0.50321110  0.86354782  1
  O  O85  1  0.35920476  0.86713602  0.86657597  1
  O  O86  1  0.50342925  0.63813761  0.86494831  1
  O  O87  1  0.99447262  0.81658303  0.41174725  1
  O  O88  1  0.82119101  0.00463384  0.41181763  1
  O  O89  1  0.18228564  0.17801243  0.41167833  1
  O  O90  1  0.01908531  0.19509297  0.90985062  1
  O  O91  1  0.19747324  0.99887645  0.91000945  1
  O  O92  1  0.79657484  0.80310757  0.90853736  1
  O  O93  1  0.96730926  0.16074934  0.58234108  1
  O  O94  1  0.20572412  0.03467091  0.58395739  1
  O  O95  1  0.84350528  0.80505808  0.58246133  1
  O  O96  1  0.96124880  0.79015134  0.08211303  1
  O  O97  1  0.83684097  0.03115455  0.08033471  1
  O  O98  1  0.19875971  0.15960956  0.08014029  1
  O  O99  1  0.68079782  0.14771371  0.74746403  1
  O  O100  1  0.49387520  0.35122610  0.75169305  1
  O  O101  1  0.86136527  0.52207970  0.74794824  1
  O  O102  1  0.68275657  0.52649722  0.24667527  1
  O  O103  1  0.84718129  0.32339002  0.24595421  1
  O  O104  1  0.47423311  0.15490269  0.24650490  1
  O  O105  1  0.62236008  0.48807114  0.92058325  1
  O  O106  1  0.84878510  0.36225539  0.92505475  1
  O  O107  1  0.50403112  0.14391841  0.92269667  1
  O  O108  1  0.64914532  0.15889067  0.42790174  1
  O  O109  1  0.50798276  0.34777456  0.42803693  1
  O  O110  1  0.84217245  0.49150514  0.42767898  1
  O  O111  1  0.35141900  0.49505649  0.07651967  1
  O  O112  1  0.12862091  0.64469781  0.07415159  1
  O  O113  1  0.50111620  0.85862527  0.07714854  1
  O  O114  1  0.35431834  0.86893373  0.57601380  1
  O  O115  1  0.50690138  0.65224127  0.57949034  1
  O  O116  1  0.14143732  0.49856029  0.57952220  1
  O  O117  1  0.31599999  0.83976068  0.25236133  1
  O  O118  1  0.52493751  0.68410755  0.25208241  1
  O  O119  1  0.16118972  0.47649732  0.25229465  1
  O  O120  1  0.31630996  0.49719281  0.76567327  1
  O  O121  1  0.16780036  0.68502467  0.76341757  1
  O  O122  1  0.52027488  0.83201867  0.76471724  1
