# generated using pymatgen
data_Pt(PbO2)2
_symmetry_space_group_name_H-M   'P 1'
_cell_length_a   6.33741981
_cell_length_b   7.97211251
_cell_length_c   9.14450499
_cell_angle_alpha   90.00000000
_cell_angle_beta   90.00000000
_cell_angle_gamma   90.00000000
_symmetry_Int_Tables_number   1
_chemical_formula_structural   Pt(PbO2)2
_chemical_formula_sum   'Pt4 Pb8 O16'
_cell_volume   462.00438498
_cell_formula_units_Z   4
loop_
 _symmetry_equiv_pos_site_id
 _symmetry_equiv_pos_as_xyz
  1  'x, y, z'
loop_
 _atom_site_type_symbol
 _atom_site_label
 _atom_site_symmetry_multiplicity
 _atom_site_fract_x
 _atom_site_fract_y
 _atom_site_fract_z
 _atom_site_occupancy
  Pt  Pt0  1  0.74895760  0.50000000  0.50000000  1
  Pt  Pt1  1  0.25104240  0.00000000  0.00000000  1
  Pt  Pt2  1  0.25104240  0.50000000  0.50000000  1
  Pt  Pt3  1  0.74895760  0.00000000  0.00000000  1
  Pb  Pb4  1  0.50000000  0.13907176  0.65614683  1
  Pb  Pb5  1  0.50000000  0.86092824  0.34385317  1
  Pb  Pb6  1  0.50000000  0.63907176  0.84385317  1
  Pb  Pb7  1  0.50000000  0.36092824  0.15614683  1
  Pb  Pb8  1  0.00000000  0.60893376  0.17323362  1
  Pb  Pb9  1  0.00000000  0.39106624  0.82676638  1
  Pb  Pb10  1  0.00000000  0.10893376  0.32676638  1
  Pb  Pb11  1  0.00000000  0.89106624  0.67323362  1
  O  O12  1  0.00000000  0.60797161  0.60382433  1
  O  O13  1  0.00000000  0.39202839  0.39617567  1
  O  O14  1  0.00000000  0.10797161  0.89617567  1
  O  O15  1  0.00000000  0.89202839  0.10382433  1
  O  O16  1  0.50000000  0.62646467  0.58891512  1
  O  O17  1  0.50000000  0.37353533  0.41108488  1
  O  O18  1  0.50000000  0.12646467  0.91108488  1
  O  O19  1  0.50000000  0.87353533  0.08891512  1
  O  O20  1  0.74980188  0.33274011  0.66633119  1
  O  O21  1  0.74980188  0.66725989  0.33366881  1
  O  O22  1  0.25019812  0.83274011  0.83366881  1
  O  O23  1  0.25019812  0.16725989  0.16633119  1
  O  O24  1  0.74980188  0.83274011  0.83366881  1
  O  O25  1  0.74980188  0.16725989  0.16633119  1
  O  O26  1  0.25019812  0.33274011  0.66633119  1
  O  O27  1  0.25019812  0.66725989  0.33366881  1
