# generated using pymatgen
data_MgCr2Ag6(ClO4)2
_symmetry_space_group_name_H-M   'P 1'
_cell_length_a   5.60388821
_cell_length_b   7.51727055
_cell_length_c   7.51655883
_cell_angle_alpha   89.96633049
_cell_angle_beta   85.74755247
_cell_angle_gamma   94.24986834
_symmetry_Int_Tables_number   1
_chemical_formula_structural   MgCr2Ag6(ClO4)2
_chemical_formula_sum   'Mg1 Cr2 Ag6 Cl2 O8'
_cell_volume   314.89627857
_cell_formula_units_Z   1
loop_
 _symmetry_equiv_pos_site_id
 _symmetry_equiv_pos_as_xyz
  1  'x, y, z'
loop_
 _atom_site_type_symbol
 _atom_site_label
 _atom_site_symmetry_multiplicity
 _atom_site_fract_x
 _atom_site_fract_y
 _atom_site_fract_z
 _atom_site_occupancy
  Mg  Mg0  1  0.00005100  0.50003600  0.99993600  1
  Cr  Cr1  1  0.00016600  0.75786100  0.25768300  1
  Cr  Cr2  1  0.99985700  0.24225500  0.74240400  1
  Ag  Ag3  1  0.11831100  0.22565300  0.27435400  1
  Ag  Ag4  1  0.49999000  0.49985400  0.50004500  1
  Ag  Ag5  1  0.50002700  0.00005600  0.49994200  1
  Ag  Ag6  1  0.88202700  0.77445800  0.72548400  1
  Ag  Ag7  1  0.49992700  0.00004200  0.00002500  1
  Ag  Ag8  1  0.50006200  0.50005200  0.00008100  1
  Cl  Cl9  1  0.34419700  0.73103600  0.76875300  1
  Cl  Cl10  1  0.65587100  0.26887500  0.23127300  1
  O  O11  1  0.15351800  0.55926000  0.23152300  1
  O  O12  1  0.15332900  0.26829400  0.94086500  1
  O  O13  1  0.22101500  0.93002700  0.24984900  1
  O  O14  1  0.22062200  0.24995600  0.57014500  1
  O  O15  1  0.77917600  0.74989800  0.42991100  1
  O  O16  1  0.84637100  0.44072500  0.76840900  1
  O  O17  1  0.77890400  0.07007100  0.75013400  1
  O  O18  1  0.84657800  0.73159100  0.05918300  1
