# generated using pymatgen
data_SiI3
_symmetry_space_group_name_H-M   'P 1'
_cell_length_a   8.08998423
_cell_length_b   12.80607431
_cell_length_c   14.08421721
_cell_angle_alpha   90.00000000
_cell_angle_beta   90.00000000
_cell_angle_gamma   90.00000000
_symmetry_Int_Tables_number   1
_chemical_formula_structural   SiI3
_chemical_formula_sum   'Si8 I24'
_cell_volume   1459.13813108
_cell_formula_units_Z   8
loop_
 _symmetry_equiv_pos_site_id
 _symmetry_equiv_pos_as_xyz
  1  'x, y, z'
loop_
 _atom_site_type_symbol
 _atom_site_label
 _atom_site_symmetry_multiplicity
 _atom_site_fract_x
 _atom_site_fract_y
 _atom_site_fract_z
 _atom_site_occupancy
  Si  Si0  1  0.27542325  0.75000000  0.39523292  1
  Si  Si1  1  0.77542325  0.25000000  0.10476708  1
  Si  Si2  1  0.72457675  0.25000000  0.60476708  1
  Si  Si3  1  0.22457675  0.75000000  0.89523292  1
  Si  Si4  1  0.55572619  0.75000000  0.35185638  1
  Si  Si5  1  0.05572619  0.25000000  0.14814362  1
  Si  Si6  1  0.44427381  0.25000000  0.64814362  1
  Si  Si7  1  0.94427381  0.75000000  0.85185638  1
  I  I8  1  0.27603026  0.59221929  0.98822673  1
  I  I9  1  0.77603026  0.40778071  0.51177327  1
  I  I10  1  0.72396974  0.09221929  0.01177327  1
  I  I11  1  0.22396974  0.90778071  0.48822673  1
  I  I12  1  0.72396974  0.40778071  0.01177327  1
  I  I13  1  0.22396974  0.59221929  0.48822673  1
  I  I14  1  0.27603026  0.90778071  0.98822673  1
  I  I15  1  0.77603026  0.09221929  0.51177327  1
  I  I16  1  0.78165521  0.75000000  -0.00158608  1
  I  I17  1  0.28165521  0.25000000  0.50158608  1
  I  I18  1  0.21834479  0.25000000  0.00158608  1
  I  I19  1  0.71834479  0.75000000  0.49841392  1
  I  I20  1  0.39233937  0.75000000  0.75130392  1
  I  I21  1  0.89233837  0.25000000  0.74869608  1
  I  I22  1  0.60766163  0.25000000  0.24869608  1
  I  I23  1  0.10766063  0.75000000  0.25130392  1
  I  I24  1  0.38688649  0.09327557  0.74161100  1
  I  I25  1  0.88688649  0.90672443  0.75838900  1
  I  I26  1  0.61311351  0.59327557  0.25838900  1
  I  I27  1  0.11311351  0.40672443  0.24161100  1
  I  I28  1  0.61311351  0.90672443  0.25838900  1
  I  I29  1  0.11311351  0.09327557  0.24161100  1
  I  I30  1  0.38688649  0.40672443  0.74161100  1
  I  I31  1  0.88688649  0.59327557  0.75838900  1
