# generated using pymatgen
data_Na4In2Si(PO6)2
_symmetry_space_group_name_H-M   'P 1'
_cell_length_a   9.25665087
_cell_length_b   9.25665053
_cell_length_c   22.58414214
_cell_angle_alpha   90.00754534
_cell_angle_beta   89.99245467
_cell_angle_gamma   120.00532851
_symmetry_Int_Tables_number   1
_chemical_formula_structural   Na4In2Si(PO6)2
_chemical_formula_sum   'Na24 In12 Si6 P12 O72'
_cell_volume   1675.78637730
_cell_formula_units_Z   6
loop_
 _symmetry_equiv_pos_site_id
 _symmetry_equiv_pos_as_xyz
  1  'x, y, z'
loop_
 _atom_site_type_symbol
 _atom_site_label
 _atom_site_symmetry_multiplicity
 _atom_site_fract_x
 _atom_site_fract_y
 _atom_site_fract_z
 _atom_site_occupancy
  Na  Na0  1  0.63942016  0.00425335  0.25180497  1
  Na  Na1  1  0.36048738  0.36546434  0.24824569  1
  Na  Na2  1  0.99926686  0.62483767  0.24985230  1
  Na  Na3  1  0.63453566  0.63951262  0.74824569  1
  Na  Na4  1  0.99574665  0.36057984  0.75180497  1
  Na  Na5  1  0.37516233  0.00073314  0.74985230  1
  Na  Na6  1  0.30114747  0.32815115  0.58170045  1
  Na  Na7  1  0.03952118  0.70565173  0.58049727  1
  Na  Na8  1  0.66236541  0.96621160  0.58811064  1
  Na  Na9  1  0.29434827  0.96047882  0.08049727  1
  Na  Na10  1  0.67184885  0.69885253  0.08170045  1
  Na  Na11  1  0.03378840  0.33763459  0.08811064  1
  Na  Na12  1  0.97127836  0.67203542  0.92120588  1
  Na  Na13  1  0.69574151  0.03421836  0.91200625  1
  Na  Na14  1  0.33357229  0.29591209  0.91672392  1
  Na  Na15  1  0.96578164  0.30425849  0.41200625  1
  Na  Na16  1  0.32796458  0.02872164  0.42120588  1
  Na  Na17  1  0.70408791  0.66642771  0.41672392  1
  Na  Na18  1  0.00504445  0.99612737  0.49996755  1
  Na  Na19  1  0.00387263  0.99495555  0.99996755  1
  Na  Na20  1  0.66260430  0.32337113  0.83343361  1
  Na  Na21  1  0.67662887  0.33739570  0.33343361  1
  Na  Na22  1  0.32277265  0.66032060  0.16658209  1
  Na  Na23  1  0.33967940  0.67722735  0.66658209  1
  In  In24  1  0.00058363  0.99954772  0.34842780  1
  In  In25  1  0.00045228  0.99941637  0.84842780  1
  In  In26  1  0.00137240  0.99966997  0.65148768  1
  In  In27  1  0.00033003  0.99862760  0.15148768  1
  In  In28  1  0.66549864  0.32768181  0.68200516  1
  In  In29  1  0.67231819  0.33450136  0.18200516  1
  In  In30  1  0.66860467  0.33496136  0.98475402  1
  In  In31  1  0.66503864  0.33139533  0.48475402  1
  In  In32  1  0.32897855  0.66967312  0.01516700  1
  In  In33  1  0.33032688  0.67102145  0.51516700  1
  In  In34  1  0.32472604  0.66194751  0.31802113  1
  In  In35  1  0.33805249  0.67527396  0.81802113  1
  Si  Si36  1  0.99981110  0.29759706  0.24996819  1
  Si  Si37  1  0.70240294  0.00018890  0.74996819  1
  Si  Si38  1  0.36562937  0.03281765  0.58343408  1
  Si  Si39  1  0.96718235  0.63437063  0.08343408  1
  Si  Si40  1  0.33372031  0.97083770  0.91664835  1
  Si  Si41  1  0.02916230  0.66627969  0.41664835  1
  P  P42  1  0.30137169  0.00176871  0.24974943  1
  P  P43  1  0.69816425  0.69998751  0.25034857  1
  P  P44  1  0.30001249  0.30183575  0.75034857  1
  P  P45  1  0.99823129  0.69862831  0.74974943  1
  P  P46  1  0.96687724  0.33353396  0.58309440  1
  P  P47  1  0.66610103  0.63089805  0.58324907  1
  P  P48  1  0.66646604  0.03312276  0.08309440  1
  P  P49  1  0.36910195  0.33389897  0.08324907  1
  P  P50  1  0.63001488  0.66533037  0.91705999  1
  P  P51  1  0.03718234  0.36872812  0.91634494  1
  P  P52  1  0.63127188  0.96281766  0.41634494  1
  P  P53  1  0.33466963  0.36998512  0.41705999  1
  O  O54  1  0.22273713  0.02939153  0.30588701  1
  O  O55  1  0.80895548  0.77712230  0.30564637  1
  O  O56  1  0.96795021  0.18352072  0.30930617  1
  O  O57  1  0.22287770  0.19104452  0.80564637  1
  O  O58  1  0.97060847  0.77726287  0.80588701  1
  O  O59  1  0.81647928  0.03204979  0.80930617  1
  O  O60  1  0.78492435  0.96775887  0.69080414  1
  O  O61  1  0.19374868  0.22254960  0.69405382  1
  O  O62  1  0.03232797  0.80912006  0.69425226  1
  O  O63  1  0.77745040  0.80625132  0.19405382  1
  O  O64  1  0.03224113  0.21507565  0.19080414  1
  O  O65  1  0.19087994  0.96767203  0.19425226  1
  O  O66  1  0.89065156  0.36782347  0.63886257  1
  O  O67  1  0.47967672  0.11432755  0.64260115  1
  O  O68  1  0.64084416  0.52476520  0.63963950  1
  O  O69  1  0.88567245  0.52032328  0.14260115  1
  O  O70  1  0.63217653  0.10934844  0.13886257  1
  O  O71  1  0.47523480  0.35915584  0.13963950  1
  O  O72  1  0.44772931  0.30427975  0.02754186  1
  O  O73  1  0.85154093  0.55423801  0.02417806  1
  O  O74  1  0.69360114  0.14045026  0.02728910  1
  O  O75  1  0.44576199  0.14845907  0.52417806  1
  O  O76  1  0.69572025  0.55227069  0.52754186  1
  O  O77  1  0.85954974  0.30639886  0.52728910  1
  O  O78  1  0.54812058  0.69018426  0.97313335  1
  O  O79  1  0.14561064  0.44660615  0.97227968  1
  O  O80  1  0.29707127  0.85481026  0.97563188  1
  O  O81  1  0.55339385  0.85438936  0.47227968  1
  O  O82  1  0.30981574  0.45187942  0.47313335  1
  O  O83  1  0.14518974  0.70292873  0.47563188  1
  O  O84  1  0.10850725  0.63021731  0.35749260  1
  O  O85  1  0.52415840  0.88131641  0.36025027  1
  O  O86  1  0.36501135  0.47853883  0.36107738  1
  O  O87  1  0.11868359  0.47584160  0.86025027  1
  O  O88  1  0.36978269  0.89149275  0.85749260  1
  O  O89  1  0.52146117  0.63498865  0.86107738  1
  O  O90  1  0.01238830  0.83594791  0.41247400  1
  O  O91  1  0.80816531  0.98332204  0.41295154  1
  O  O92  1  0.17445112  0.19522956  0.41343107  1
  O  O93  1  0.01667796  0.19183469  0.91295154  1
  O  O94  1  0.16405209  0.98761170  0.91247400  1
  O  O95  1  0.80477044  0.82554888  0.91343107  1
  O  O96  1  0.98041787  0.17297610  0.58749085  1
  O  O97  1  0.17813881  0.01412862  0.58704470  1
  O  O98  1  0.82291405  0.80799837  0.58670621  1
  O  O99  1  0.98587138  0.82186119  0.08704470  1
  O  O100  1  0.82702390  0.01958213  0.08749085  1
  O  O101  1  0.19200163  0.17708595  0.08670621  1
  O  O102  1  0.68667082  0.17062901  0.74792783  1
  O  O103  1  0.47911420  0.32685857  0.74612755  1
  O  O104  1  0.83626183  0.52520890  0.74453311  1
  O  O105  1  0.67314143  0.52088580  0.24612755  1
  O  O106  1  0.82937099  0.31332918  0.24792783  1
  O  O107  1  0.47479110  0.16373817  0.24453311  1
  O  O108  1  0.64999865  0.50841704  0.92021195  1
  O  O109  1  0.86238947  0.35463893  0.92013463  1
  O  O110  1  0.50300280  0.15737389  0.92085076  1
  O  O111  1  0.64536107  0.13761053  0.42013463  1
  O  O112  1  0.49158296  0.35000135  0.42021195  1
  O  O113  1  0.84262611  0.49699720  0.42085076  1
  O  O114  1  0.35595896  0.49525320  0.07892574  1
  O  O115  1  0.15258205  0.64888538  0.08105056  1
  O  O116  1  0.51172974  0.85437185  0.07893746  1
  O  O117  1  0.35111462  0.84741795  0.58105056  1
  O  O118  1  0.50474680  0.64404104  0.57892574  1
  O  O119  1  0.14562815  0.48827026  0.57893746  1
  O  O120  1  0.32627629  0.84755704  0.25408985  1
  O  O121  1  0.52476851  0.68882190  0.25542808  1
  O  O122  1  0.17001070  0.48409052  0.25186653  1
  O  O123  1  0.31117810  0.47523149  0.75542808  1
  O  O124  1  0.15244296  0.67372371  0.75408985  1
  O  O125  1  0.51590948  0.82998930  0.75186653  1
