# generated using pymatgen
data_Na5Si3Sn2Ge2(PO8)3
_symmetry_space_group_name_H-M   'P 1'
_cell_length_a   8.79706282
_cell_length_b   8.79796746
_cell_length_c   22.15790504
_cell_angle_alpha   89.86182098
_cell_angle_beta   90.33078328
_cell_angle_gamma   120.00936926
_symmetry_Int_Tables_number   1
_chemical_formula_structural   Na5Si3Sn2Ge2(PO8)3
_chemical_formula_sum   'Na15 Si9 Sn6 Ge6 P9 O72'
_cell_volume   1485.01575222
_cell_formula_units_Z   3
loop_
 _symmetry_equiv_pos_site_id
 _symmetry_equiv_pos_as_xyz
  1  'x, y, z'
loop_
 _atom_site_type_symbol
 _atom_site_label
 _atom_site_symmetry_multiplicity
 _atom_site_fract_x
 _atom_site_fract_y
 _atom_site_fract_z
 _atom_site_occupancy
  Na  Na0  1  0.99987971  0.63612138  0.24989680  1
  Na  Na1  1  0.36776361  0.99734214  0.75177139  1
  Na  Na2  1  0.02941074  0.70067942  0.58071934  1
  Na  Na3  1  0.66092801  0.96314750  0.58508672  1
  Na  Na4  1  0.29626959  0.96696287  0.08004280  1
  Na  Na5  1  0.03904314  0.33770142  0.08359082  1
  Na  Na6  1  0.96617405  0.66663624  0.91803889  1
  Na  Na7  1  0.96432723  0.29761194  0.41338820  1
  Na  Na8  1  0.33493033  0.02999353  0.41793291  1
  Na  Na9  1  0.99454005  0.99109279  0.49988891  1
  Na  Na10  1  0.99517190  0.00199530  0.99738193  1
  Na  Na11  1  0.66618616  0.32843478  0.83651251  1
  Na  Na12  1  0.66203639  0.33173777  0.32991180  1
  Na  Na13  1  0.34943153  0.66407498  0.16737204  1
  Na  Na14  1  0.34007489  0.65254433  0.66969165  1
  Si  Si15  1  0.99961896  0.30011177  0.24840888  1
  Si  Si16  1  0.70908043  0.99390785  0.75503830  1
  Si  Si17  1  0.37251916  0.04469405  0.58401318  1
  Si  Si18  1  0.66362383  0.62057347  0.58514680  1
  Si  Si19  1  0.94870323  0.61558111  0.08001548  1
  Si  Si20  1  0.38940235  0.34407669  0.08213472  1
  Si  Si21  1  0.33835673  0.96008149  0.91683495  1
  Si  Si22  1  0.62180403  0.95106000  0.41445200  1
  Si  Si23  1  0.04316091  0.66672001  0.41390523  1
  Sn  Sn24  1  0.99247738  0.99579266  0.34913095  1
  Sn  Sn25  1  -0.00016088  0.00191602  0.65102089  1
  Sn  Sn26  1  0.99657560  -0.00120857  0.14677708  1
  Sn  Sn27  1  0.66836365  0.33378018  0.69028522  1
  Sn  Sn28  1  0.66559962  0.33839965  0.47843772  1
  Sn  Sn29  1  0.33854702  0.66839538  0.51924943  1
  Ge  Ge30  1  0.00423041  0.00808725  0.85474179  1
  Ge  Ge31  1  0.66859642  0.33515068  0.18353189  1
  Ge  Ge32  1  0.65375278  0.32778968  0.98034922  1
  Ge  Ge33  1  0.33132910  0.66369006  0.01832843  1
  Ge  Ge34  1  0.33079135  0.66478406  0.31357740  1
  Ge  Ge35  1  0.34268639  0.67250120  0.81702084  1
  P  P36  1  0.30461111  0.00433536  0.24932932  1
  P  P37  1  0.69593690  0.69899074  0.24852709  1
  P  P38  1  0.28609191  0.29661131  0.75555862  1
  P  P39  1  0.00363056  0.70805877  0.75575639  1
  P  P40  1  0.95951025  0.33334300  0.58321156  1
  P  P41  1  0.66143280  0.04726625  0.08104922  1
  P  P42  1  0.61816465  0.66698772  0.91755940  1
  P  P43  1  0.04828078  0.37783900  0.91622647  1
  P  P44  1  0.33521651  0.38318577  0.41279047  1
  O  O45  1  0.22222575  0.03625625  0.30617564  1
  O  O46  1  0.82254659  0.77447105  0.30367118  1
  O  O47  1  0.96232145  0.18235407  0.30906573  1
  O  O48  1  0.20077761  0.16614240  0.80888105  1
  O  O49  1  0.97659788  0.79980725  0.81071945  1
  O  O50  1  0.84277479  0.02807554  0.81103885  1
  O  O51  1  0.78030250  0.96326536  0.69086653  1
  O  O52  1  0.18040555  0.22282382  0.69643166  1
  O  O53  1  0.04504276  0.82069573  0.69705850  1
  O  O54  1  0.77867053  0.81767474  0.19276832  1
  O  O55  1  0.03640662  0.21727480  0.18836165  1
  O  O56  1  0.17877007  0.95802222  0.19364222  1
  O  O57  1  0.87961120  0.37192719  0.63846850  1
  O  O58  1  0.49657399  0.12015968  0.64393149  1
  O  O59  1  0.63549931  0.50735952  0.64536348  1
  O  O60  1  0.87019033  0.49392806  0.14086358  1
  O  O61  1  0.62389104  0.12471751  0.13835863  1
  O  O62  1  0.50684524  0.36967601  0.14252274  1
  O  O63  1  0.46623243  0.28962637  0.02430536  1
  O  O64  1  0.83127225  0.52511483  0.01922294  1
  O  O65  1  0.70381696  0.16901850  0.02554419  1
  O  O66  1  0.45247325  0.15283925  0.52147565  1
  O  O67  1  0.71719292  0.54837551  0.52598442  1
  O  O68  1  0.84792427  0.29546296  0.52481252  1
  O  O69  1  0.53377510  0.70006212  0.97358598  1
  O  O70  1  0.15916933  0.45586144  0.97536654  1
  O  O71  1  0.29173765  0.82773233  0.97612064  1
  O  O72  1  0.55346170  0.84928432  0.47830710  1
  O  O73  1  0.29330922  0.45205604  0.47047238  1
  O  O74  1  0.15609732  0.70307479  0.47619659  1
  O  O75  1  0.13303701  0.62981703  0.35514509  1
  O  O76  1  0.48840652  0.85498857  0.35782130  1
  O  O77  1  0.36178681  0.49698325  0.35713764  1
  O  O78  1  0.13669860  0.50428683  0.86214929  1
  O  O79  1  0.36650571  0.86876025  0.85677045  1
  O  O80  1  0.50252846  0.63123349  0.86066262  1
  O  O81  1  0.03694747  0.84808133  0.40864538  1
  O  O82  1  0.82130566  0.98540769  0.41132417  1
  O  O83  1  0.17232055  0.19608942  0.40810048  1
  O  O84  1  0.03083230  0.19334499  0.91026199  1
  O  O85  1  0.15329066  0.97192678  0.90950785  1
  O  O86  1  0.80766422  0.83071482  0.91181000  1
  O  O87  1  0.97278446  0.16676477  0.58915591  1
  O  O88  1  0.17774789  0.02074501  0.58967644  1
  O  O89  1  0.83723759  0.81866132  0.58894016  1
  O  O90  1  0.97877354  0.81481625  0.08617552  1
  O  O91  1  0.82871878  0.03117657  0.08666850  1
  O  O92  1  0.18963335  0.16818560  0.08716551  1
  O  O93  1  0.68174173  0.16686052  0.75206687  1
  O  O94  1  0.46817374  0.30828085  0.75129325  1
  O  O95  1  0.83774027  0.52641283  0.75098143  1
  O  O96  1  0.68443875  0.51785651  0.24155330  1
  O  O97  1  0.82392238  0.32302740  0.24104883  1
  O  O98  1  0.48490323  0.16940872  0.24091485  1
  O  O99  1  0.64382781  0.50293442  0.92271459  1
  O  O100  1  0.86498209  0.36433503  0.92116322  1
  O  O101  1  0.51573309  0.15482429  0.92385645  1
  O  O102  1  0.63523163  0.14543967  0.41678693  1
  O  O103  1  0.49752821  0.36071553  0.41639462  1
  O  O104  1  0.85347800  0.48740129  0.41645759  1
  O  O105  1  0.36270972  0.51638442  0.07405269  1
  O  O106  1  0.14911789  0.63827022  0.07430108  1
  O  O107  1  0.49415253  0.86372826  0.07419455  1
  O  O108  1  0.34808997  0.84685287  0.58146546  1
  O  O109  1  0.49138780  0.64214313  0.58120179  1
  O  O110  1  0.14015455  0.49898724  0.57797615  1
  O  O111  1  0.31590994  0.83414980  0.25569898  1
  O  O112  1  0.51638455  0.68464700  0.25773059  1
  O  O113  1  0.17487167  0.49879974  0.25557085  1
  O  O114  1  0.30180687  0.47802453  0.76358806  1
  O  O115  1  0.17080857  0.69030462  0.76145261  1
  O  O116  1  0.50933558  0.81924153  0.76053081  1
