# generated using pymatgen
data_Ti2Al2SiS5O24
_symmetry_space_group_name_H-M   'P 1'
_cell_length_a   8.46721202
_cell_length_b   8.47159883
_cell_length_c   21.94710151
_cell_angle_alpha   90.01330151
_cell_angle_beta   89.98633397
_cell_angle_gamma   120.01061428
_symmetry_Int_Tables_number   1
_chemical_formula_structural   Ti2Al2SiS5O24
_chemical_formula_sum   'Ti6 Al6 Si3 S15 O72'
_cell_volume   1363.22374937
_cell_formula_units_Z   3
loop_
 _symmetry_equiv_pos_site_id
 _symmetry_equiv_pos_as_xyz
  1  'x, y, z'
loop_
 _atom_site_type_symbol
 _atom_site_label
 _atom_site_symmetry_multiplicity
 _atom_site_fract_x
 _atom_site_fract_y
 _atom_site_fract_z
 _atom_site_occupancy
  Ti  Ti0  1  0.99835176  0.00625186  0.64334693  1
  Ti  Ti1  1  0.00788069  0.00931300  0.14137405  1
  Ti  Ti2  1  0.67615053  0.32216008  0.47615017  1
  Ti  Ti3  1  0.33372233  0.65843454  0.02367397  1
  Ti  Ti4  1  0.33867394  0.66710084  0.52306770  1
  Ti  Ti5  1  0.34339354  0.67816645  0.31240999  1
  Al  Al6  1  0.99734470  0.00034914  0.35497444  1
  Al  Al7  1  0.00129166  0.99874833  0.85344672  1
  Al  Al8  1  0.67414490  0.33783991  0.68882055  1
  Al  Al9  1  0.66261237  0.33744145  0.18766583  1
  Al  Al10  1  0.65725662  0.32893670  0.97802440  1
  Al  Al11  1  0.33224078  0.66808894  0.81284844  1
  Si  Si12  1  0.95335350  0.33991701  0.58689621  1
  Si  Si13  1  0.39476269  0.33405011  0.08315578  1
  Si  Si14  1  0.63408913  0.95562768  0.41686447  1
  S  S15  1  0.28954562  0.00512298  0.25072646  1
  S  S16  1  0.71663010  0.70891509  0.25015873  1
  S  S17  1  0.99402348  0.28739290  0.24999411  1
  S  S18  1  0.29275312  0.29201275  0.75159657  1
  S  S19  1  0.00007694  0.70927582  0.75187052  1
  S  S20  1  0.70757449  0.99934366  0.75227773  1
  S  S21  1  0.38241547  0.04909789  0.58537981  1
  S  S22  1  0.66676731  0.61600507  0.58514789  1
  S  S23  1  0.94757637  0.61421327  0.08312580  1
  S  S24  1  0.66598699  0.05232364  0.08311726  1
  S  S25  1  0.62568750  0.66757203  0.91449981  1
  S  S26  1  0.04026075  0.37459147  0.91507850  1
  S  S27  1  0.33316009  0.95708172  0.91491437  1
  S  S28  1  0.33004674  0.37360196  0.41559435  1
  S  S29  1  0.04636219  0.67341784  0.41541246  1
  O  O30  1  0.20405015  0.03374211  0.30498699  1
  O  O31  1  0.83030572  0.79457814  0.30435767  1
  O  O32  1  0.96479873  0.17174060  0.30370092  1
  O  O33  1  0.20667171  0.17262409  0.80514300  1
  O  O34  1  0.96845498  0.79661194  0.80579369  1
  O  O35  1  0.82849939  0.03313645  0.80550366  1
  O  O36  1  0.78951299  0.96388318  0.69731351  1
  O  O37  1  0.17555157  0.20989741  0.69667862  1
  O  O38  1  0.03547890  0.82434203  0.69713157  1
  O  O39  1  0.79282054  0.82389426  0.19555692  1
  O  O40  1  0.02853641  0.20427543  0.19505020  1
  O  O41  1  0.17288668  0.96933662  0.19605066  1
  O  O42  1  0.85890323  0.36721065  0.64454512  1
  O  O43  1  0.49364688  0.13142325  0.63990390  1
  O  O44  1  0.63176900  0.50342411  0.63995144  1
  O  O45  1  0.87297555  0.50268386  0.13842802  1
  O  O46  1  0.63647948  0.13129623  0.13857111  1
  O  O47  1  0.50685729  0.36895398  0.14430334  1
  O  O48  1  0.47193923  0.29790560  0.02228101  1
  O  O49  1  0.83832171  0.53478634  0.02794365  1
  O  O50  1  0.70371857  0.16437290  0.02805665  1
  O  O51  1  0.45559293  0.16112685  0.52990715  1
  O  O52  1  0.69842632  0.54080217  0.52955765  1
  O  O53  1  0.83017621  0.29760762  0.52496573  1
  O  O54  1  0.54340700  0.70270967  0.96964501  1
  O  O55  1  0.15768304  0.45706691  0.97016084  1
  O  O56  1  0.29811464  0.84218951  0.96977703  1
  O  O57  1  0.52766338  0.82795977  0.47481706  1
  O  O58  1  0.29262153  0.45202695  0.47047379  1
  O  O59  1  0.15727643  0.70257699  0.47035392  1
  O  O60  1  0.12414112  0.63119760  0.36102465  1
  O  O61  1  0.49385444  0.86026852  0.35808953  1
  O  O62  1  0.36161356  0.49125524  0.36121028  1
  O  O63  1  0.12662903  0.49405975  0.86163950  1
  O  O64  1  0.36475007  0.86985958  0.86099826  1
  O  O65  1  0.50473852  0.63347812  0.86133581  1
  O  O66  1  0.03286528  0.83644440  0.40517085  1
  O  O67  1  0.82540498  0.97636738  0.40423486  1
  O  O68  1  0.17071954  0.19364377  0.40524515  1
  O  O69  1  0.02375958  0.19434366  0.90553958  1
  O  O70  1  0.17044075  0.97650745  0.90519455  1
  O  O71  1  0.80580931  0.83245342  0.90545353  1
  O  O72  1  0.97613837  0.15832561  0.59497511  1
  O  O73  1  0.19746102  0.02470629  0.59321282  1
  O  O74  1  0.82965897  0.79934048  0.59346075  1
  O  O75  1  0.96735895  0.79679717  0.09167945  1
  O  O76  1  0.82490069  0.02529351  0.09138161  1
  O  O77  1  0.18429274  0.16135771  0.09409111  1
  O  O78  1  0.68699040  0.15971132  0.74290220  1
  O  O79  1  0.47225285  0.30877202  0.74069822  1
  O  O80  1  0.83456127  0.53024996  0.74384195  1
  O  O81  1  0.69881748  0.52830137  0.24283153  1
  O  O82  1  0.83153544  0.30469952  0.23945078  1
  O  O83  1  0.47254184  0.16235115  0.24253276  1
  O  O84  1  0.64643475  0.50713892  0.92397429  1
  O  O85  1  0.86085344  0.35792198  0.92630095  1
  O  O86  1  0.49913145  0.13619666  0.92298015  1
  O  O87  1  0.63373453  0.14693800  0.42368646  1
  O  O88  1  0.49511922  0.36306954  0.42447435  1
  O  O89  1  0.86302957  0.51298544  0.42302020  1
  O  O90  1  0.35618689  0.50649314  0.07186441  1
  O  O91  1  0.13346174  0.64103296  0.07481166  1
  O  O92  1  0.50324229  0.86948184  0.07486659  1
  O  O93  1  0.36146791  0.86702110  0.57758841  1
  O  O94  1  0.50555294  0.63874261  0.57833797  1
  O  O95  1  0.15311938  0.50871773  0.57212913  1
  O  O96  1  0.30179933  0.83676798  0.25718113  1
  O  O97  1  0.53113385  0.68663678  0.25808759  1
  O  O98  1  0.15722884  0.46765435  0.25774088  1
  O  O99  1  0.30953655  0.47242728  0.76126901  1
  O  O100  1  0.16301788  0.69015833  0.76158435  1
  O  O101  1  0.52743678  0.83425062  0.76138380  1
