# generated using pymatgen
data_Sb2WO6
_symmetry_space_group_name_H-M   'P 1'
_cell_length_a   4.97452257
_cell_length_b   5.55751792
_cell_length_c   9.25434909
_cell_angle_alpha   83.52945128
_cell_angle_beta   90.00000000
_cell_angle_gamma   90.00000000
_symmetry_Int_Tables_number   1
_chemical_formula_structural   Sb2WO6
_chemical_formula_sum   'Sb4 W2 O12'
_cell_volume   254.21595972
_cell_formula_units_Z   2
loop_
 _symmetry_equiv_pos_site_id
 _symmetry_equiv_pos_as_xyz
  1  'x, y, z'
loop_
 _atom_site_type_symbol
 _atom_site_label
 _atom_site_symmetry_multiplicity
 _atom_site_fract_x
 _atom_site_fract_y
 _atom_site_fract_z
 _atom_site_occupancy
  Sb  Sb0  1  0.44927320  0.38866033  0.16812494  1
  Sb  Sb1  1  0.04965522  0.88677808  0.16648034  1
  Sb  Sb2  1  0.94927320  0.61133967  0.83187506  1
  Sb  Sb3  1  0.54965522  0.11322192  0.83351966  1
  W  W4  1  0.03740281  0.24401928  0.50864705  1
  W  W5  1  0.53740281  0.75598072  0.49135295  1
  O  O6  1  0.77952180  0.53470618  0.44201347  1
  O  O7  1  0.72535535  0.03497081  0.44056689  1
  O  O8  1  0.22535535  0.96502919  0.55943311  1
  O  O9  1  0.27952180  0.46529382  0.55798653  1
  O  O10  1  0.84957778  0.23617072  0.68715870  1
  O  O11  1  0.14248836  0.26735019  0.31118039  1
  O  O12  1  0.64248836  0.73264981  0.68881961  1
  O  O13  1  0.34957778  0.76382928  0.31284130  1
  O  O14  1  0.18624167  0.61241876  0.06049465  1
  O  O15  1  0.31939681  0.11002430  0.06444027  1
  O  O16  1  0.68624167  0.38758124  0.93950535  1
  O  O17  1  0.81939681  0.88997570  0.93555973  1
