# generated using pymatgen
data_Na6Ta2Ga6Si5S7O48
_symmetry_space_group_name_H-M   'P 1'
_cell_length_a   17.43939278
_cell_length_b   8.79780371
_cell_length_c   22.41832257
_cell_angle_alpha   89.94939665
_cell_angle_beta   90.63701388
_cell_angle_gamma   120.38072641
_symmetry_Int_Tables_number   1
_chemical_formula_structural   Na6Ta2Ga6Si5S7O48
_chemical_formula_sum   'Na18 Ta6 Ga18 Si15 S21 O144'
_cell_volume   2967.06464400
_cell_formula_units_Z   3
loop_
 _symmetry_equiv_pos_site_id
 _symmetry_equiv_pos_as_xyz
  1  'x, y, z'
loop_
 _atom_site_type_symbol
 _atom_site_label
 _atom_site_symmetry_multiplicity
 _atom_site_fract_x
 _atom_site_fract_y
 _atom_site_fract_z
 _atom_site_occupancy
  Na  Na0  1  0.98740738  0.67289729  0.91102836  1
  Na  Na1  1  0.34861252  0.03516021  0.91465818  1
  Na  Na2  1  0.16757420  0.30339612  0.91195906  1
  Na  Na3  1  0.48707711  0.30316563  0.41951531  1
  Na  Na4  1  0.66691135  0.02945867  0.41595375  1
  Na  Na5  1  0.84662477  0.66003552  0.41825879  1
  Na  Na6  1  0.00068911  0.00573765  0.49459274  1
  Na  Na7  1  0.49493804  0.99057115  0.49735435  1
  Na  Na8  1  0.99548023  0.00502820  0.99507733  1
  Na  Na9  1  0.50017771  0.99499552  0.99260935  1
  Na  Na10  1  0.33787051  0.34446860  0.83358615  1
  Na  Na11  1  0.82933965  0.32338283  0.82413093  1
  Na  Na12  1  0.33049731  0.33735751  0.32780721  1
  Na  Na13  1  0.83617757  0.32825903  0.33871713  1
  Na  Na14  1  0.17281924  0.67483907  0.16425313  1
  Na  Na15  1  0.66496465  0.66829839  0.16842482  1
  Na  Na16  1  0.16738371  0.66316565  0.66722350  1
  Na  Na17  1  0.66436691  0.66120458  0.65938024  1
  Ta  Ta18  1  0.99793479  0.98822858  0.65042658  1
  Ta  Ta19  1  0.49921374  0.01380926  0.64003874  1
  Ta  Ta20  1  0.99883235  0.99485873  0.14393560  1
  Ta  Ta21  1  0.49708944  0.00700108  0.15034464  1
  Ta  Ta22  1  0.16493911  0.67178989  0.31128860  1
  Ta  Ta23  1  0.66288887  0.65503030  0.80886960  1
  Ga  Ga24  1  0.00490508  0.99025518  0.36023909  1
  Ga  Ga25  1  0.49831530  0.01272874  0.34695589  1
  Ga  Ga26  1  0.00111328  0.98521282  0.84382962  1
  Ga  Ga27  1  0.50354103  0.01845061  0.85690935  1
  Ga  Ga28  1  0.33986143  0.35352615  0.67448787  1
  Ga  Ga29  1  0.83335708  0.33140706  0.69543486  1
  Ga  Ga30  1  0.33425748  0.33575230  0.19710095  1
  Ga  Ga31  1  0.82788384  0.31355462  0.18092609  1
  Ga  Ga32  1  0.34089484  0.35279198  0.97104191  1
  Ga  Ga33  1  0.82933447  0.31077528  0.98360648  1
  Ga  Ga34  1  0.33797569  0.35137770  0.49038074  1
  Ga  Ga35  1  0.83865269  0.32469751  0.47266273  1
  Ga  Ga36  1  0.17457382  0.68923925  0.00627441  1
  Ga  Ga37  1  0.66662050  0.67298151  0.01954289  1
  Ga  Ga38  1  0.16633932  0.66115947  0.52040595  1
  Ga  Ga39  1  0.66516388  0.64415470  0.51314003  1
  Ga  Ga40  1  0.66749279  0.64865592  0.31958084  1
  Ga  Ga41  1  0.17306400  0.69315998  0.81544056  1
  Si  Si42  1  0.14247011  0.00749456  0.25319292  1
  Si  Si43  1  0.35750440  0.70930719  0.25435838  1
  Si  Si44  1  0.50595315  0.31037492  0.25409139  1
  Si  Si45  1  0.64292106  0.27430515  0.75289361  1
  Si  Si46  1  0.00538730  0.69958142  0.75338995  1
  Si  Si47  1  0.85881625  0.00698491  0.75446802  1
  Si  Si48  1  0.48274223  0.35398725  0.57959175  1
  Si  Si49  1  0.32441837  0.61709279  0.58286350  1
  Si  Si50  1  0.82584895  0.03504262  0.08189720  1
  Si  Si51  1  0.31252208  0.67293114  0.91229183  1
  Si  Si52  1  0.52685074  0.38224415  0.92216119  1
  Si  Si53  1  0.16318635  0.96112811  0.91798916  1
  Si  Si54  1  0.80891071  0.94404226  0.41450849  1
  Si  Si55  1  0.66360024  0.36376387  0.41644970  1
  Si  Si56  1  0.02560161  0.66754457  0.42235664  1
  S  S57  1  0.64996609  0.00641777  0.24960936  1
  S  S58  1  0.85428592  0.69863804  0.24787934  1
  S  S59  1  0.99538098  0.28415313  0.25050802  1
  S  S60  1  0.15093375  0.29419152  0.75008340  1
  S  S61  1  0.49511402  0.70920237  0.75118259  1
  S  S62  1  0.35471639  0.00708021  0.74868343  1
  S  S63  1  0.97600411  0.33165293  0.58430711  1
  S  S64  1  0.18879987  0.04487845  0.58348758  1
  S  S65  1  0.69278635  0.04729678  0.58372553  1
  S  S66  1  0.83321788  0.61740645  0.58339961  1
  S  S67  1  0.47590840  0.61997709  0.08418403  1
  S  S68  1  0.97841788  0.61698480  0.08301234  1
  S  S69  1  0.33061013  0.04371156  0.08298778  1
  S  S70  1  0.19036503  0.34182104  0.08321097  1
  S  S71  1  0.68961934  0.33436228  0.08313171  1
  S  S72  1  0.81072468  0.66057910  0.91986203  1
  S  S73  1  0.01776471  0.37610864  0.91880902  1
  S  S74  1  0.66879802  0.96015107  0.91718616  1
  S  S75  1  0.31062942  0.95921863  0.41882356  1
  S  S76  1  0.16979145  0.37749084  0.41756153  1
  S  S77  1  0.51712574  0.66299203  0.41618042  1
  O  O78  1  0.09430859  0.03560065  0.30851630  1
  O  O79  1  0.61100879  0.02999509  0.30417579  1
  O  O80  1  0.41998113  0.80549723  0.31090457  1
  O  O81  1  0.90671122  0.77384401  0.30224961  1
  O  O82  1  0.48804311  0.19087174  0.31260161  1
  O  O83  1  0.98179593  0.18248665  0.30361097  1
  O  O84  1  0.11098929  0.19179081  0.80554142  1
  O  O85  1  0.59796889  0.15746198  0.81042782  1
  O  O86  1  0.48481578  0.78656338  0.80547494  1
  O  O87  1  0.98784387  0.78119735  0.81319525  1
  O  O88  1  0.40635395  0.03385865  0.80417893  1
  O  O89  1  0.92092985  0.03639428  0.81190127  1
  O  O90  1  0.40034348  0.98385462  0.69559801  1
  O  O91  1  0.90407927  0.96915942  0.69475619  1
  O  O92  1  0.09075280  0.19647419  0.69684441  1
  O  O93  1  0.58091990  0.18898986  0.69345072  1
  O  O94  1  0.01902623  0.83718686  0.69575603  1
  O  O95  1  0.50826006  0.81401049  0.69721639  1
  O  O96  1  0.40387183  0.83824367  0.19424326  1
  O  O97  1  0.90150720  0.81733362  0.19412413  1
  O  O98  1  0.00731422  0.19870146  0.19578646  1
  O  O99  1  0.51920769  0.20154577  0.19483199  1
  O  O100  1  0.08092625  0.97091301  0.19241389  1
  O  O101  1  0.59181395  0.98703871  0.19544358  1
  O  O102  1  0.43685974  0.36820986  0.63987956  1
  O  O103  1  0.93462641  0.35397796  0.63737109  1
  O  O104  1  0.24171613  0.12763259  0.63816670  1
  O  O105  1  0.74611082  0.13530189  0.63692789  1
  O  O106  1  0.30633290  0.49964924  0.64217006  1
  O  O107  1  0.82522968  0.51524240  0.63643860  1
  O  O108  1  0.43415434  0.51402811  0.13722267  1
  O  O109  1  0.93401426  0.51449989  0.13661700  1
  O  O110  1  0.32201578  0.12791451  0.13620493  1
  O  O111  1  0.81299059  0.12151519  0.14177535  1
  O  O112  1  0.24383829  0.36341862  0.13632797  1
  O  O113  1  0.74356202  0.35982157  0.13785731  1
  O  O114  1  0.22298265  0.30476436  0.02812476  1
  O  O115  1  0.72998705  0.30946914  0.02888732  1
  O  O116  1  0.42149381  0.54488716  0.02913201  1
  O  O117  1  0.92526248  0.54579010  0.02749184  1
  O  O118  1  0.34483111  0.14267830  0.02754051  1
  O  O119  1  0.85242149  0.16273029  0.02463230  1
  O  O120  1  0.22721909  0.14965134  0.52879700  1
  O  O121  1  0.72594699  0.15147486  0.52852748  1
  O  O122  1  0.34845990  0.54557862  0.52380061  1
  O  O123  1  0.84726427  0.54743772  0.52779066  1
  O  O124  1  0.42157815  0.30026460  0.51884966  1
  O  O125  1  0.92194004  0.29784163  0.52922626  1
  O  O126  1  0.27584147  0.72149283  0.97305995  1
  O  O127  1  0.77173191  0.68717042  0.97361002  1
  O  O128  1  0.07492188  0.45671365  0.97371642  1
  O  O129  1  0.58815457  0.47726110  0.97967169  1
  O  O130  1  0.13180136  0.82473741  0.97485976  1
  O  O131  1  0.66050834  0.86127285  0.97217433  1
  O  O132  1  0.27124326  0.85510646  0.47189379  1
  O  O133  1  0.76632841  0.81656845  0.47310489  1
  O  O134  1  0.15931849  0.46058147  0.47107807  1
  O  O135  1  0.63284236  0.43778621  0.47187906  1
  O  O136  1  0.08874049  0.69718350  0.47854549  1
  O  O137  1  0.57343762  0.69625979  0.47025686  1
  O  O138  1  0.07248422  0.63748258  0.36213973  1
  O  O139  1  0.55603851  0.63078777  0.36255316  1
  O  O140  1  0.25622557  0.86549740  0.36336136  1
  O  O141  1  0.74235718  0.86342297  0.35591172  1
  O  O142  1  0.18220428  0.48711293  0.36291481  1
  O  O143  1  0.69031953  0.49277778  0.35919168  1
  O  O144  1  0.05619536  0.48429034  0.86554170  1
  O  O145  1  0.57415729  0.50827676  0.86311101  1
  O  O146  1  0.18869697  0.88015310  0.86225784  1
  O  O147  1  0.68273996  0.87788559  0.86391918  1
  O  O148  1  0.24134661  0.61983599  0.85713172  1
  O  O149  1  0.75640836  0.63740191  0.86515992  1
  O  O150  1  0.01352703  0.83789015  0.41490361  1
  O  O151  1  0.50901630  0.82164804  0.41056819  1
  O  O152  1  0.40026027  0.98143680  0.41296909  1
  O  O153  1  0.90751574  0.96571349  0.40508376  1
  O  O154  1  0.08704283  0.20502104  0.41163080  1
  O  O155  1  0.57730600  0.16103361  0.40804178  1
  O  O156  1  0.00746081  0.19997908  0.91445844  1
  O  O157  1  0.51335661  0.18700169  0.91446048  1
  O  O158  1  0.07725348  0.99206607  0.90868663  1
  O  O159  1  0.58765495  0.97088949  0.91227800  1
  O  O160  1  0.40985691  0.84760551  0.90378966  1
  O  O161  1  0.90073784  0.81738483  0.91405313  1
  O  O162  1  0.49142818  0.17107897  0.58818557  1
  O  O163  1  0.98785831  0.17219018  0.59095620  1
  O  O164  1  0.09854909  0.03088902  0.58901381  1
  O  O165  1  0.59911413  0.02197410  0.59110904  1
  O  O166  1  0.41539491  0.81324753  0.59433692  1
  O  O167  1  0.91743985  0.80342824  0.59002356  1
  O  O168  1  0.48784736  0.80323418  0.09071711  1
  O  O169  1  0.98773434  0.79986107  0.08889490  1
  O  O170  1  0.41395568  0.02448577  0.08958027  1
  O  O171  1  0.91560777  0.01395002  0.09259424  1
  O  O172  1  0.09645081  0.17567067  0.09152653  1
  O  O173  1  0.60055756  0.16749623  0.08851689  1
  O  O174  1  0.34367856  0.16151818  0.74058960  1
  O  O175  1  0.84483087  0.16898960  0.74291180  1
  O  O176  1  0.23713444  0.30262909  0.74336606  1
  O  O177  1  0.74096410  0.31180975  0.74319151  1
  O  O178  1  0.41885662  0.52635122  0.74511963  1
  O  O179  1  0.91659287  0.51780607  0.74072999  1
  O  O180  1  0.34464868  0.52012643  0.24284148  1
  O  O181  1  0.84691690  0.52465646  0.23710720  1
  O  O182  1  0.41694323  0.31340544  0.24053231  1
  O  O183  1  0.92036533  0.31686868  0.24127936  1
  O  O184  1  0.23983401  0.16873923  0.24254469  1
  O  O185  1  0.73743212  0.17388270  0.24328881  1
  O  O186  1  0.31753550  0.49494232  0.92185579  1
  O  O187  1  0.82097847  0.50107106  0.92426640  1
  O  O188  1  0.42712074  0.35377363  0.92326750  1
  O  O189  1  0.92912208  0.36690993  0.92497435  1
  O  O190  1  0.25121286  0.15245836  0.92927350  1
  O  O191  1  0.74888463  0.14313242  0.92084493  1
  O  O192  1  0.31714027  0.13348715  0.41905144  1
  O  O193  1  0.81725107  0.13587629  0.42317789  1
  O  O194  1  0.24861367  0.35509741  0.42161558  1
  O  O195  1  0.75160718  0.34739055  0.42721030  1
  O  O196  1  0.42771531  0.49876628  0.42122355  1
  O  O197  1  0.92610961  0.49702354  0.42382982  1
  O  O198  1  0.17517817  0.49245444  0.07757363  1
  O  O199  1  0.67761882  0.48678471  0.07988391  1
  O  O200  1  0.06757148  0.63930657  0.08005089  1
  O  O201  1  0.56547664  0.64272916  0.07892870  1
  O  O202  1  0.25214067  0.86097420  0.07886283  1
  O  O203  1  0.74168267  0.83664828  0.07461650  1
  O  O204  1  0.17560616  0.86711643  0.57985883  1
  O  O205  1  0.68131253  0.87089230  0.57830330  1
  O  O206  1  0.24145989  0.65100671  0.57535576  1
  O  O207  1  0.75698581  0.64636210  0.58002846  1
  O  O208  1  0.06549530  0.48843145  0.57894730  1
  O  O209  1  0.58143984  0.52527998  0.57488440  1
  O  O210  1  0.14906990  0.82441641  0.25943140  1
  O  O211  1  0.65795598  0.85052634  0.24948305  1
  O  O212  1  0.25924671  0.69220633  0.25961365  1
  O  O213  1  0.76845532  0.68979356  0.24853091  1
  O  O214  1  0.08005959  0.46127009  0.25376140  1
  O  O215  1  0.59467302  0.50350130  0.25706694  1
  O  O216  1  0.15628926  0.46447595  0.75106504  1
  O  O217  1  0.64941595  0.47179336  0.75957319  1
  O  O218  1  0.09470141  0.68652376  0.75692048  1
  O  O219  1  0.57980485  0.69668160  0.75629879  1
  O  O220  1  0.26851762  0.84036720  0.75077624  1
  O  O221  1  0.76092286  0.82655965  0.76195347  1
