# generated using pymatgen
data_Na2HfSi2GeSO12
_symmetry_space_group_name_H-M   'P 1'
_cell_length_a   8.85910518
_cell_length_b   8.82462997
_cell_length_c   22.40321624
_cell_angle_alpha   90.28769973
_cell_angle_beta   89.36934883
_cell_angle_gamma   119.91644224
_symmetry_Int_Tables_number   1
_chemical_formula_structural   Na2HfSi2GeSO12
_chemical_formula_sum   'Na12 Hf6 Si12 Ge6 S6 O72'
_cell_volume   1517.97998589
_cell_formula_units_Z   6
loop_
 _symmetry_equiv_pos_site_id
 _symmetry_equiv_pos_as_xyz
  1  'x, y, z'
loop_
 _atom_site_type_symbol
 _atom_site_label
 _atom_site_symmetry_multiplicity
 _atom_site_fract_x
 _atom_site_fract_y
 _atom_site_fract_z
 _atom_site_occupancy
  Na  Na0  1  0.99761953  0.62550132  0.25558818  1
  Na  Na1  1  0.37165691  0.00564137  0.75329748  1
  Na  Na2  1  0.66398924  0.95827745  0.58845647  1
  Na  Na3  1  0.03482063  0.33887423  0.09028325  1
  Na  Na4  1  0.32339545  0.29337772  0.92177812  1
  Na  Na5  1  0.69912624  0.66868160  0.42137774  1
  Na  Na6  1  0.01956833  0.99706088  0.49988820  1
  Na  Na7  1  0.01166104  0.98417137  0.00334679  1
  Na  Na8  1  0.68507394  0.32286536  0.83185414  1
  Na  Na9  1  0.67185032  0.31677283  0.33758678  1
  Na  Na10  1  0.34925227  0.65775547  0.17075800  1
  Na  Na11  1  0.34272811  0.64998460  0.66550419  1
  Hf  Hf12  1  0.00249456  0.01390779  0.85052753  1
  Hf  Hf13  1  0.66915798  0.34380549  0.19201292  1
  Hf  Hf14  1  0.66463254  0.33476514  0.98268949  1
  Hf  Hf15  1  0.31811866  0.66430891  0.02225422  1
  Hf  Hf16  1  0.33575358  0.67788601  0.52057738  1
  Hf  Hf17  1  0.33687134  0.66729339  0.80864641  1
  Si  Si18  1  0.70628332  0.72536420  0.25215036  1
  Si  Si19  1  0.00952586  0.28441028  0.25411665  1
  Si  Si20  1  0.28721578  0.28807493  0.74285813  1
  Si  Si21  1  0.71827993  0.01348886  0.74080962  1
  Si  Si22  1  0.37537729  0.05739148  0.58269799  1
  Si  Si23  1  0.67475730  0.61514097  0.58435776  1
  Si  Si24  1  0.95591712  0.64154292  0.08817118  1
  Si  Si25  1  0.36365267  0.32401804  0.08667560  1
  Si  Si26  1  0.03535167  0.37645403  0.91635180  1
  Si  Si27  1  0.33310063  0.96262266  0.91365538  1
  Si  Si28  1  0.61923734  0.96482222  0.41516144  1
  Si  Si29  1  0.04268206  0.66980302  0.41281017  1
  Ge  Ge30  1  0.96985592  0.98349494  0.35405169  1
  Ge  Ge31  1  0.00171538  0.99277710  0.64454982  1
  Ge  Ge32  1  0.00409645  0.00369186  0.15172292  1
  Ge  Ge33  1  0.63964560  0.31718791  0.68460409  1
  Ge  Ge34  1  0.67269537  0.33540654  0.48115529  1
  Ge  Ge35  1  0.33393159  0.66422532  0.31520802  1
  S  S36  1  0.28282558  0.99633806  0.25260802  1
  S  S37  1  0.99068119  0.70285616  0.74642216  1
  S  S38  1  0.95060377  0.33121015  0.58344031  1
  S  S39  1  0.66958767  0.03935883  0.08636639  1
  S  S40  1  0.62569280  0.66988220  0.91672989  1
  S  S41  1  0.32881213  0.37054913  0.41491728  1
  O  O42  1  0.20371067  0.02354672  0.30601320  1
  O  O43  1  0.83084381  0.79254067  0.31142428  1
  O  O44  1  0.98725253  0.16043203  0.31088085  1
  O  O45  1  0.21467096  0.17207590  0.80465153  1
  O  O46  1  0.96786708  0.78388037  0.80142045  1
  O  O47  1  0.82904510  0.03562830  0.80080650  1
  O  O48  1  0.80619568  0.97530353  0.68177134  1
  O  O49  1  0.15822913  0.17901308  0.68845069  1
  O  O50  1  0.02761285  0.81770604  0.69336402  1
  O  O51  1  0.80702334  0.84871964  0.19440262  1
  O  O52  1  0.03745412  0.20320464  0.19087055  1
  O  O53  1  0.17725617  0.96740445  0.19720995  1
  O  O54  1  0.87293329  0.35911022  0.63744954  1
  O  O55  1  0.49765845  0.12412689  0.64279416  1
  O  O56  1  0.65319417  0.49436075  0.64229040  1
  O  O57  1  0.87694686  0.51051103  0.14568288  1
  O  O58  1  0.64411823  0.11950040  0.13961319  1
  O  O59  1  0.48797050  0.34102228  0.14156203  1
  O  O60  1  0.44209643  0.29483414  0.02359209  1
  O  O61  1  0.83793656  0.54453688  0.02953105  1
  O  O62  1  0.69314214  0.14889110  0.03219862  1
  O  O63  1  0.47820086  0.18146378  0.52521990  1
  O  O64  1  0.70524010  0.53396698  0.52123003  1
  O  O65  1  0.84290403  0.30127071  0.52862358  1
  O  O66  1  0.54618856  0.69248124  0.97125756  1
  O  O67  1  0.15442345  0.45512397  0.97658561  1
  O  O68  1  0.32170727  0.84718145  0.97166677  1
  O  O69  1  0.54703480  0.84091986  0.47482219  1
  O  O70  1  0.30434599  0.45290984  0.46916475  1
  O  O71  1  0.16235781  0.69663893  0.47042519  1
  O  O72  1  0.13029970  0.63528952  0.35231126  1
  O  O73  1  0.49140114  0.86131213  0.35869762  1
  O  O74  1  0.36400974  0.48650271  0.36140291  1
  O  O75  1  0.14435801  0.49363386  0.85909552  1
  O  O76  1  0.36091769  0.87853160  0.85194440  1
  O  O77  1  0.51906785  0.64502687  0.86301757  1
  O  O78  1  0.02094174  0.84773457  0.40599016  1
  O  O79  1  0.81337229  0.97849798  0.40892759  1
  O  O80  1  0.17593135  0.19590838  0.40936090  1
  O  O81  1  0.01823057  0.18313630  0.91226858  1
  O  O82  1  0.15426795  0.97361698  0.91141013  1
  O  O83  1  0.80088256  0.82030168  0.90980758  1
  O  O84  1  0.96470023  0.16966118  0.58566944  1
  O  O85  1  0.17974310  0.03301514  0.58975271  1
  O  O86  1  0.84667912  0.81717241  0.59055030  1
  O  O87  1  0.97208828  0.83139534  0.09739636  1
  O  O88  1  0.83302975  0.03202090  0.08876381  1
  O  O89  1  0.16369590  0.15578464  0.09398635  1
  O  O90  1  0.70329086  0.19439313  0.73613732  1
  O  O91  1  0.48193292  0.30354079  0.74012164  1
  O  O92  1  0.83932523  0.52912440  0.74108688  1
  O  O93  1  0.68908021  0.53057908  0.24701898  1
  O  O94  1  0.83586212  0.30681271  0.24956388  1
  O  O95  1  0.46039266  0.14771293  0.24684422  1
  O  O96  1  0.63575818  0.50722280  0.92042104  1
  O  O97  1  0.84588201  0.35844264  0.92124893  1
  O  O98  1  0.49695413  0.16319335  0.91872417  1
  O  O99  1  0.64319680  0.16058418  0.42579800  1
  O  O100  1  0.49243150  0.36116693  0.41915605  1
  O  O101  1  0.84023337  0.50001459  0.42202206  1
  O  O102  1  0.34533894  0.49987123  0.08312919  1
  O  O103  1  0.14901632  0.65891477  0.08198525  1
  O  O104  1  0.51949313  0.86263726  0.07970325  1
  O  O105  1  0.35839365  0.86265529  0.57735909  1
  O  O106  1  0.50244383  0.63968276  0.57909090  1
  O  O107  1  0.12725202  0.48488428  0.57713462  1
  O  O108  1  0.29540575  0.83303788  0.25480119  1
  O  O109  1  0.51241541  0.70412981  0.26049774  1
  O  O110  1  0.18076296  0.48669057  0.25997039  1
  O  O111  1  0.31106833  0.48170739  0.74758408  1
  O  O112  1  0.15382894  0.69181098  0.75097969  1
  O  O113  1  0.51766772  0.84739951  0.74627347  1
