# generated using pymatgen
data_MgV2Pb3O8
_symmetry_space_group_name_H-M   'P 1'
_cell_length_a   5.98995795
_cell_length_b   5.90283502
_cell_length_c   8.58446105
_cell_angle_alpha   70.72779162
_cell_angle_beta   67.38253239
_cell_angle_gamma   66.54302590
_symmetry_Int_Tables_number   1
_chemical_formula_structural   MgV2Pb3O8
_chemical_formula_sum   'Mg1 V2 Pb3 O8'
_cell_volume   251.35353246
_cell_formula_units_Z   1
loop_
 _symmetry_equiv_pos_site_id
 _symmetry_equiv_pos_as_xyz
  1  'x, y, z'
loop_
 _atom_site_type_symbol
 _atom_site_label
 _atom_site_symmetry_multiplicity
 _atom_site_fract_x
 _atom_site_fract_y
 _atom_site_fract_z
 _atom_site_occupancy
  Mg  Mg0  1  0.96712463  0.00473243  0.76128932  1
  V  V1  1  0.64878601  0.65616703  0.17714233  1
  V  V2  1  0.33240264  0.36451414  0.80071087  1
  Pb  Pb3  1  0.26473923  0.32915297  0.30699237  1
  Pb  Pb4  1  0.66686444  0.72080685  0.61080317  1
  Pb  Pb5  1  0.01954357  0.01028271  0.10213159  1
  O  O6  1  0.75070974  0.80593567  0.96078942  1
  O  O7  1  0.25247044  0.32373884  0.03237734  1
  O  O8  1  0.76376928  0.72078703  0.31925986  1
  O  O9  1  0.20138512  0.20198301  0.73492257  1
  O  O10  1  0.68246267  0.31064872  0.23117730  1
  O  O11  1  0.26313719  0.70867090  0.69225518  1
  O  O12  1  0.29275542  0.72692905  0.25556992  1
  O  O13  1  0.68607861  0.30258866  0.69791175  1
