# generated using pymatgen
data_MgCo2(MoO4)2
_symmetry_space_group_name_H-M   'P 1'
_cell_length_a   5.25672077
_cell_length_b   5.64310453
_cell_length_c   5.80137827
_cell_angle_alpha   93.49509942
_cell_angle_beta   107.60361343
_cell_angle_gamma   86.21855140
_symmetry_Int_Tables_number   1
_chemical_formula_structural   MgCo2(MoO4)2
_chemical_formula_sum   'Mg1 Co2 Mo2 O8'
_cell_volume   163.52512274
_cell_formula_units_Z   1
loop_
 _symmetry_equiv_pos_site_id
 _symmetry_equiv_pos_as_xyz
  1  'x, y, z'
loop_
 _atom_site_type_symbol
 _atom_site_label
 _atom_site_symmetry_multiplicity
 _atom_site_fract_x
 _atom_site_fract_y
 _atom_site_fract_z
 _atom_site_occupancy
  Mg  Mg0  1  0.42699635  -0.04778607  0.74459322  1
  Co  Co1  1  0.48976346  0.45479904  0.50916068  1
  Co  Co2  1  0.55459878  0.95416249  0.27632039  1
  Mo  Mo3  1  0.99079937  0.23132372  0.15787343  1
  Mo  Mo4  1  0.98993670  0.67934323  0.86559579  1
  O  O5  1  0.73291864  0.28250201  0.30785372  1
  O  O6  1  0.29643581  0.14178216  0.45296991  1
  O  O7  1  0.24323655  0.63140564  0.71121226  1
  O  O8  1  0.67808602  0.77139292  0.57340619  1
  O  O9  1  0.76896440  0.90349399  0.03884724  1
  O  O10  1  0.18246655  0.52757235  0.18878804  1
  O  O11  1  0.21055411  0.01084070  0.98332865  1
  O  O12  1  0.79635428  0.38416783  0.83290648  1
