# generated using pymatgen
data_Na3LaSc(PO4)3
_symmetry_space_group_name_H-M   'P 1'
_cell_length_a   9.31919843
_cell_length_b   9.27615824
_cell_length_c   23.34118529
_cell_angle_alpha   89.83662611
_cell_angle_beta   90.15834707
_cell_angle_gamma   119.83509592
_symmetry_Int_Tables_number   1
_chemical_formula_structural   Na3LaSc(PO4)3
_chemical_formula_sum   'Na18 La6 Sc6 P18 O72'
_cell_volume   1750.31905935
_cell_formula_units_Z   6
loop_
 _symmetry_equiv_pos_site_id
 _symmetry_equiv_pos_as_xyz
  1  'x, y, z'
loop_
 _atom_site_type_symbol
 _atom_site_label
 _atom_site_symmetry_multiplicity
 _atom_site_fract_x
 _atom_site_fract_y
 _atom_site_fract_z
 _atom_site_occupancy
  Na  Na0  1  0.00093453  0.00058978  0.50238436  1
  Na  Na1  1  0.99863472  0.99840617  0.00081559  1
  Na  Na2  1  0.64007605  0.32030184  0.83303970  1
  Na  Na3  1  0.68112085  0.36144767  0.33594926  1
  Na  Na4  1  0.33030176  0.66619102  0.17188756  1
  Na  Na5  1  0.33366428  0.66717149  0.66657389  1
  Na  Na6  1  0.63666877  0.00240348  0.24838775  1
  Na  Na7  1  0.36148424  0.36026064  0.24846612  1
  Na  Na8  1  0.64008866  0.63261231  0.74445643  1
  Na  Na9  1  0.99026497  0.36010560  0.74295533  1
  Na  Na10  1  0.03420631  0.70133920  0.58455109  1
  Na  Na11  1  0.66774791  0.97025200  0.58464050  1
  Na  Na12  1  0.29834018  0.96951446  0.08923225  1
  Na  Na13  1  0.02465432  0.32710559  0.08990936  1
  Na  Na14  1  0.97082761  0.66572018  0.91804251  1
  Na  Na15  1  0.69675265  0.03025063  0.91711240  1
  Na  Na16  1  0.96968309  0.30321777  0.41640868  1
  Na  Na17  1  0.33594368  0.03416004  0.41757381  1
  La  La18  1  0.98779242  0.98280956  0.34365467  1
  La  La19  1  0.01841623  0.01348868  0.84293678  1
  La  La20  1  0.65864890  0.34194764  0.99154446  1
  La  La21  1  0.34555674  0.66031684  0.02043812  1
  La  La22  1  0.33930448  0.65440697  0.51898929  1
  La  La23  1  0.33255455  0.67088138  0.81322662  1
  Sc  Sc24  1  0.01091234  0.00717210  0.64731534  1
  Sc  Sc25  1  0.99252164  0.98916045  0.15553693  1
  Sc  Sc26  1  0.65783110  0.32671821  0.68049607  1
  Sc  Sc27  1  0.67302802  0.34165266  0.18326793  1
  Sc  Sc28  1  0.66139730  0.33925149  0.48390397  1
  Sc  Sc29  1  0.32876099  0.66534679  0.31734887  1
  P  P30  1  0.31026680  0.00109985  0.24852520  1
  P  P31  1  0.68651990  0.69014142  0.24779352  1
  P  P32  1  0.00092101  0.30709904  0.24844812  1
  P  P33  1  0.30874286  0.30163792  0.74229493  1
  P  P34  1  0.98812003  0.69047798  0.74292187  1
  P  P35  1  0.70727530  0.00791531  0.74270806  1
  P  P36  1  0.94522026  0.32305525  0.58463669  1
  P  P37  1  0.37147157  0.04922363  0.58219573  1
  P  P38  1  0.68263519  0.63214041  0.58689020  1
  P  P39  1  0.96676631  0.64251121  0.08680761  1
  P  P40  1  0.67771461  0.03975114  0.08960866  1
  P  P41  1  0.35005434  0.31569521  0.09372050  1
  P  P42  1  0.64821676  0.67108898  0.91111075  1
  P  P43  1  0.02040456  0.35801828  0.91770831  1
  P  P44  1  0.33446482  0.97184531  0.92148904  1
  P  P45  1  0.62846132  0.97501383  0.41657351  1
  P  P46  1  0.34129378  0.36762770  0.41152528  1
  P  P47  1  0.03455787  0.65580523  0.41912936  1
  O  O48  1  0.24433102  0.03974964  0.30364935  1
  O  O49  1  0.78086919  0.74691855  0.30453888  1
  O  O50  1  0.96026443  0.20311324  0.30419306  1
  O  O51  1  0.24888091  0.22129268  0.80139733  1
  O  O52  1  0.97230423  0.76199528  0.80095728  1
  O  O53  1  0.79737298  0.03231580  0.80089531  1
  O  O54  1  0.81351542  0.99520788  0.69381682  1
  O  O55  1  0.18482088  0.19257468  0.69564900  1
  O  O56  1  0.00392190  0.80873082  0.69337522  1
  O  O57  1  0.78752512  0.81828710  0.20039378  1
  O  O58  1  0.02874231  0.21057182  0.19910016  1
  O  O59  1  0.19227771  0.97713777  0.19796116  1
  O  O60  1  0.85643335  0.33788418  0.63806544  1
  O  O61  1  0.48230921  0.14404830  0.63312412  1
  O  O62  1  0.66792262  0.53199684  0.64105415  1
  O  O63  1  0.85334212  0.51378115  0.13143252  1
  O  O64  1  0.66211597  0.14548928  0.13760150  1
  O  O65  1  0.46633442  0.33160095  0.14291125  1
  O  O66  1  0.41939706  0.29402532  0.03639741  1
  O  O67  1  0.89035262  0.58699492  0.02641520  1
  O  O68  1  0.70354230  0.12995274  0.03114467  1
  O  O69  1  0.45269934  0.14527493  0.52585453  1
  O  O70  1  0.68949727  0.53624877  0.53330982  1
  O  O71  1  0.84125241  0.30586629  0.52983738  1
  O  O72  1  0.55148844  0.68164103  0.96307623  1
  O  O73  1  0.11933228  0.44802856  0.97209177  1
  O  O74  1  0.32569132  0.87865198  0.97773983  1
  O  O75  1  0.55521828  0.87860403  0.47265272  1
  O  O76  1  0.30562424  0.44272665  0.46437644  1
  O  O77  1  0.12781565  0.68055981  0.47617059  1
  O  O78  1  0.13510436  0.63683912  0.36902625  1
  O  O79  1  0.51837752  0.87611019  0.36430002  1
  O  O80  1  0.35591345  0.47290143  0.35763530  1
  O  O81  1  0.11047333  0.45612745  0.86291439  1
  O  O82  1  0.34598885  0.87484506  0.86947556  1
  O  O83  1  0.55709715  0.66202589  0.85471766  1
  O  O84  1  0.02261020  0.81476600  0.41176747  1
  O  O85  1  0.80929081  0.01101861  0.41207844  1
  O  O86  1  0.18888579  0.18924009  0.40792664  1
  O  O87  1  0.99173614  0.17903036  0.91762564  1
  O  O88  1  0.17221053  0.97781646  0.91836535  1
  O  O89  1  0.81989938  0.83131576  0.91373374  1
  O  O90  1  0.96093390  0.16330040  0.58808692  1
  O  O91  1  0.19231171  0.02023713  0.58733954  1
  O  O92  1  0.84531208  0.80608615  0.58727025  1
  O  O93  1  0.99391545  0.81896381  0.09705979  1
  O  O94  1  0.83421464  0.02442134  0.09853653  1
  O  O95  1  0.17681333  0.15739622  0.09891449  1
  O  O96  1  0.68807437  0.16308632  0.73623177  1
  O  O97  1  0.48572441  0.33145163  0.73585595  1
  O  O98  1  0.82970944  0.51684609  0.73840781  1
  O  O99  1  0.65498510  0.51232601  0.23652684  1
  O  O100  1  0.84807226  0.32726847  0.23696366  1
  O  O101  1  0.48686672  0.15370666  0.23897119  1
  O  O102  1  0.67344772  0.51903025  0.91429400  1
  O  O103  1  0.84894720  0.34823450  0.91786373  1
  O  O104  1  0.49397634  0.14277229  0.91937445  1
  O  O105  1  0.63317103  0.14612239  0.41938816  1
  O  O106  1  0.49927134  0.35343095  0.41948009  1
  O  O107  1  0.86348169  0.49377343  0.42160508  1
  O  O108  1  0.32356412  0.46800347  0.09334489  1
  O  O109  1  0.13830987  0.65174953  0.08968125  1
  O  O110  1  0.51451896  0.87106749  0.09016424  1
  O  O111  1  0.35752928  0.87410768  0.58266932  1
  O  O112  1  0.53662226  0.66779810  0.58650421  1
  O  O113  1  0.11607350  0.48404121  0.58379733  1
  O  O114  1  0.33035075  0.84475007  0.25581908  1
  O  O115  1  0.51550405  0.68337828  0.25265241  1
  O  O116  1  0.16445084  0.47602341  0.25535568  1
  O  O117  1  0.31598215  0.47296678  0.74047937  1
  O  O118  1  0.13872721  0.66195411  0.74157383  1
  O  O119  1  0.53982914  0.84334809  0.74190578  1
