# generated using pymatgen
data_TiGaP(SO6)2
_symmetry_space_group_name_H-M   'P 1'
_cell_length_a   8.53644974
_cell_length_b   8.53074651
_cell_length_c   22.06980079
_cell_angle_alpha   90.01261798
_cell_angle_beta   90.00000000
_cell_angle_gamma   120.02211793
_symmetry_Int_Tables_number   1
_chemical_formula_structural   TiGaP(SO6)2
_chemical_formula_sum   'Ti6 Ga6 P6 S12 O72'
_cell_volume   1391.54264079
_cell_formula_units_Z   6
loop_
 _symmetry_equiv_pos_site_id
 _symmetry_equiv_pos_as_xyz
  1  'x, y, z'
loop_
 _atom_site_type_symbol
 _atom_site_label
 _atom_site_symmetry_multiplicity
 _atom_site_fract_x
 _atom_site_fract_y
 _atom_site_fract_z
 _atom_site_occupancy
  Ti  Ti0  1  0.00073023  0.99964985  0.64369133  1
  Ti  Ti1  1  0.99891962  0.99964985  0.14369133  1
  Ti  Ti2  1  0.66273147  0.33210641  0.97700452  1
  Ti  Ti3  1  0.66937593  0.33210641  0.47700452  1
  Ti  Ti4  1  0.34338802  0.65887479  0.31041422  1
  Ti  Ti5  1  0.31548577  0.65887479  0.81041422  1
  Ga  Ga6  1  0.00076871  0.99869986  0.35351740  1
  Ga  Ga7  1  0.99793115  0.99869986  0.85351740  1
  Ga  Ga8  1  0.67941353  0.34039438  0.68712800  1
  Ga  Ga9  1  0.66098185  0.34039438  0.18712800  1
  Ga  Ga10  1  0.32941450  0.65395864  0.02021184  1
  Ga  Ga11  1  0.32454315  0.65395864  0.52021184  1
  P  P12  1  0.71862516  0.71177738  0.25054023  1
  P  P13  1  0.99315222  0.71177738  0.75054023  1
  P  P14  1  0.95730692  0.33699284  0.58370716  1
  P  P15  1  0.37968692  0.33699284  0.08370716  1
  P  P16  1  0.04366867  0.37192517  0.91749870  1
  P  P17  1  0.32825551  0.37192517  0.41749870  1
  S  S18  1  0.29091727  0.00087052  0.25024494  1
  S  S19  1  0.99516307  0.28761667  0.24983292  1
  S  S20  1  0.29245360  0.28761667  0.74983292  1
  S  S21  1  0.70995325  0.00087052  0.75024494  1
  S  S22  1  0.38051081  0.04267744  0.58358862  1
  S  S23  1  0.66319392  0.62064969  0.58346786  1
  S  S24  1  0.95745677  0.62064969  0.08346786  1
  S  S25  1  0.66216763  0.04267744  0.08358862  1
  S  S26  1  0.62282341  0.67014063  0.91641888  1
  S  S27  1  0.33015739  0.95256043  0.91721478  1
  S  S28  1  0.62240203  0.95256043  0.41721478  1
  S  S29  1  0.04731622  0.67014063  0.41641888  1
  O  O30  1  0.21232763  0.03622104  0.30428208  1
  O  O31  1  0.83127362  0.79850704  0.30709132  1
  O  O32  1  0.96477570  0.17731106  0.30426978  1
  O  O33  1  0.21253537  0.17731106  0.80426978  1
  O  O34  1  0.96723342  0.79850704  0.80709132  1
  O  O35  1  0.82389342  0.03622104  0.80428208  1
  O  O36  1  0.79371592  0.96791013  0.69599144  1
  O  O37  1  0.17468365  0.20811025  0.69571458  1
  O  O38  1  0.03201907  0.83519132  0.69399302  1
  O  O39  1  0.80317225  0.83519132  0.19399302  1
  O  O40  1  0.03342659  0.20811025  0.19571458  1
  O  O41  1  0.17419421  0.96791013  0.19599144  1
  O  O42  1  0.87111173  0.36669256  0.63939500  1
  O  O43  1  0.48996015  0.12375394  0.63818766  1
  O  O44  1  0.62923112  0.50870278  0.63775355  1
  O  O45  1  0.87947266  0.50870278  0.13775355  1
  O  O46  1  0.63379479  0.12375394  0.13818766  1
  O  O47  1  0.49558182  0.36669256  0.13939500  1
  O  O48  1  0.46846656  0.30074440  0.02716938  1
  O  O49  1  0.84107855  0.54015964  0.02938380  1
  O  O50  1  0.69960470  0.15948445  0.02917827  1
  O  O51  1  0.45988075  0.15948445  0.52917827  1
  O  O52  1  0.69908209  0.54015964  0.52938380  1
  O  O53  1  0.83227884  0.30074440  0.52716938  1
  O  O54  1  0.54560160  0.70344362  0.97121882  1
  O  O55  1  0.16168741  0.46039102  0.97234980  1
  O  O56  1  0.30103427  0.84266341  0.97174532  1
  O  O57  1  0.54162815  0.84266341  0.47174532  1
  O  O58  1  0.29870261  0.46039102  0.47234980  1
  O  O59  1  0.15784102  0.70344362  0.47121882  1
  O  O60  1  0.12679826  0.63472211  0.36255229  1
  O  O61  1  0.50657192  0.87379653  0.36277461  1
  O  O62  1  0.36572014  0.49903213  0.36061980  1
  O  O63  1  0.13331100  0.49903213  0.86061980  1
  O  O64  1  0.36722361  0.87379653  0.86277461  1
  O  O65  1  0.50792285  0.63472211  0.86255229  1
  O  O66  1  0.02394894  0.82748727  0.40894862  1
  O  O67  1  0.80227399  0.97549639  0.40893312  1
  O  O68  1  0.16515527  0.18783170  0.40567045  1
  O  O69  1  0.02267643  0.18783170  0.90567045  1
  O  O70  1  0.17322240  0.97549639  0.90893312  1
  O  O71  1  0.80353833  0.82748727  0.90894862  1
  O  O72  1  0.97418449  0.16469800  0.59411570  1
  O  O73  1  0.19944695  0.02686659  0.59141273  1
  O  O74  1  0.82805418  0.80126097  0.59146874  1
  O  O75  1  0.97320679  0.80126097  0.09146874  1
  O  O76  1  0.82741964  0.02686659  0.09141273  1
  O  O77  1  0.19051351  0.16469800  0.09411570  1
  O  O78  1  0.68808581  0.15885592  0.74175434  1
  O  O79  1  0.47077670  0.30756725  0.74053688  1
  O  O80  1  0.83287610  0.52490561  0.74155739  1
  O  O81  1  0.69203050  0.52490561  0.24155739  1
  O  O82  1  0.83679155  0.30756725  0.24053688  1
  O  O83  1  0.47077111  0.15885592  0.24175434  1
  O  O84  1  0.64065720  0.50593652  0.92504376  1
  O  O85  1  0.85669752  0.35812854  0.92742024  1
  O  O86  1  0.49520865  0.13377648  0.92470828  1
  O  O87  1  0.63856883  0.13377648  0.42470828  1
  O  O88  1  0.50143203  0.35812854  0.42742024  1
  O  O89  1  0.86528032  0.50593652  0.42504376  1
  O  O90  1  0.35792548  0.50043787  0.07443281  1
  O  O91  1  0.13814846  0.64558069  0.07506699  1
  O  O92  1  0.50447185  0.86395823  0.07435342  1
  O  O93  1  0.35948538  0.86395823  0.57435342  1
  O  O94  1  0.50743124  0.64558069  0.57506699  1
  O  O95  1  0.14251139  0.50043787  0.57443281  1
  O  O96  1  0.30530732  0.83704076  0.25868600  1
  O  O97  1  0.52777949  0.69552179  0.25972317  1
  O  O98  1  0.15888453  0.46891728  0.25801543  1
  O  O99  1  0.31003175  0.46891728  0.75801543  1
  O  O100  1  0.16774131  0.69552179  0.75972317  1
  O  O101  1  0.53173244  0.83704076  0.75868600  1
