# generated using pymatgen
data_Na10Mg2Si7Ge6S5O48
_symmetry_space_group_name_H-M   'P 1'
_cell_length_a   17.42236836
_cell_length_b   8.79510682
_cell_length_c   21.91308914
_cell_angle_alpha   90.21337510
_cell_angle_beta   89.32611845
_cell_angle_gamma   120.18757382
_symmetry_Int_Tables_number   1
_chemical_formula_structural   Na10Mg2Si7Ge6S5O48
_chemical_formula_sum   'Na30 Mg6 Si21 Ge18 S15 O144'
_cell_volume   2902.19867484
_cell_formula_units_Z   3
loop_
 _symmetry_equiv_pos_site_id
 _symmetry_equiv_pos_as_xyz
  1  'x, y, z'
loop_
 _atom_site_type_symbol
 _atom_site_label
 _atom_site_symmetry_multiplicity
 _atom_site_fract_x
 _atom_site_fract_y
 _atom_site_fract_z
 _atom_site_occupancy
  Na  Na0  1  0.81526076  0.00902516  0.24893541  1
  Na  Na1  1  0.18821590  0.37498922  0.24673982  1
  Na  Na2  1  0.68806270  0.36295588  0.25402764  1
  Na  Na3  1  0.99475669  0.61576297  0.25367651  1
  Na  Na4  1  0.49551566  0.62734792  0.24514984  1
  Na  Na5  1  0.31641401  0.62321344  0.74958899  1
  Na  Na6  1  0.99515063  0.36154161  0.74603891  1
  Na  Na7  1  0.49559085  0.37715704  0.75348710  1
  Na  Na8  1  0.18987773  0.01553556  0.74911760  1
  Na  Na9  1  0.68934687  0.00101658  0.74712409  1
  Na  Na10  1  0.15247545  0.33412181  0.57984054  1
  Na  Na11  1  0.01461188  0.69223917  0.58622569  1
  Na  Na12  1  0.48490326  0.66462461  0.91675477  1
  Na  Na13  1  0.99130062  0.67531223  0.92119859  1
  Na  Na14  1  0.84862479  0.03130504  0.91515734  1
  Na  Na15  1  0.49180163  0.30944733  0.42145931  1
  Na  Na16  1  0.16361399  0.02610409  0.41821870  1
  Na  Na17  1  0.34823985  0.66471726  0.41517153  1
  Na  Na18  1  0.98940754  0.99329071  0.49878590  1
  Na  Na19  1  0.51403504  0.01106085  0.49824548  1
  Na  Na20  1  0.01234699  0.01605013  0.99814775  1
  Na  Na21  1  0.50312038  0.01955148  0.00040960  1
  Na  Na22  1  0.32745761  0.31870976  0.83205434  1
  Na  Na23  1  0.82953673  0.33662302  0.83256992  1
  Na  Na24  1  0.33577584  0.33357996  0.33084817  1
  Na  Na25  1  0.83156295  0.33457047  0.33179131  1
  Na  Na26  1  0.17558279  0.67561394  0.16418686  1
  Na  Na27  1  0.66253826  0.66661174  0.16126777  1
  Na  Na28  1  0.17184047  0.67969156  0.66386626  1
  Na  Na29  1  0.67379182  0.67403543  0.66418004  1
  Mg  Mg30  1  0.33189695  0.32413793  0.69017163  1
  Mg  Mg31  1  0.83684696  0.33012668  0.68358449  1
  Mg  Mg32  1  0.33922320  0.34602006  0.18273420  1
  Mg  Mg33  1  0.83356620  0.33395098  0.18992563  1
  Mg  Mg34  1  0.16242398  0.67038616  0.01783762  1
  Mg  Mg35  1  0.66164646  0.65535734  0.51766024  1
  Si  Si36  1  0.64002865  0.99060175  0.25165084  1
  Si  Si37  1  0.35400888  0.71903686  0.25320258  1
  Si  Si38  1  0.85643902  0.72012987  0.25183707  1
  Si  Si39  1  0.00421196  0.29005169  0.25293004  1
  Si  Si40  1  0.14129039  0.29286242  0.75239983  1
  Si  Si41  1  0.50469851  0.71911936  0.75261179  1
  Si  Si42  1  0.35730961  0.99410951  0.75273559  1
  Si  Si43  1  0.85646538  0.98877552  0.75137921  1
  Si  Si44  1  0.97604037  0.33442712  0.58035156  1
  Si  Si45  1  0.18842347  0.03688294  0.58587414  1
  Si  Si46  1  0.48153924  0.62055170  0.08106569  1
  Si  Si47  1  0.80555053  0.66526995  0.91721729  1
  Si  Si48  1  0.02534356  0.38086244  0.92012851  1
  Si  Si49  1  0.52455785  0.37236004  0.91351117  1
  Si  Si50  1  0.16822169  0.96434282  0.91722930  1
  Si  Si51  1  0.66459835  0.96142074  0.91665040  1
  Si  Si52  1  0.30833301  0.94777640  0.41599688  1
  Si  Si53  1  0.16197535  0.37352028  0.41725996  1
  Si  Si54  1  0.66817423  0.37216904  0.41677312  1
  Si  Si55  1  0.01915970  0.66505206  0.41279389  1
  Si  Si56  1  0.52454884  0.66902953  0.42040866  1
  Ge  Ge57  1  0.99510294  0.99664357  0.35539052  1
  Ge  Ge58  1  0.50367873  0.98830963  0.35810169  1
  Ge  Ge59  1  0.00270170  0.01788093  0.85812766  1
  Ge  Ge60  1  0.50002342  0.00350257  0.85493182  1
  Ge  Ge61  1  0.00106219  0.03244596  0.64462657  1
  Ge  Ge62  1  0.49864996  0.98615062  0.65106739  1
  Ge  Ge63  1  0.99648810  0.01450483  0.15001025  1
  Ge  Ge64  1  0.49231026  0.94996059  0.14638288  1
  Ge  Ge65  1  0.33994300  0.31817152  0.97949219  1
  Ge  Ge66  1  0.82995681  0.33920884  0.97497961  1
  Ge  Ge67  1  0.32723209  0.32104997  0.47588877  1
  Ge  Ge68  1  0.83782277  0.34560929  0.47581220  1
  Ge  Ge69  1  0.65551309  0.65896128  0.00928127  1
  Ge  Ge70  1  0.15956128  0.66920583  0.51283643  1
  Ge  Ge71  1  0.16889144  0.65891663  0.31731347  1
  Ge  Ge72  1  0.66634255  0.66140636  0.31703483  1
  Ge  Ge73  1  0.16678590  0.67263966  0.81743959  1
  Ge  Ge74  1  0.67176745  0.68573569  0.81731590  1
  S  S75  1  0.14432879  0.99884991  0.24786373  1
  S  S76  1  0.49800275  0.27937716  0.24961319  1
  S  S77  1  0.64389530  0.28867728  0.74835378  1
  S  S78  1  0.99724076  0.71210171  0.75032202  1
  S  S79  1  0.48007277  0.32427855  0.58619986  1
  S  S80  1  0.68375697  0.04261296  0.58525534  1
  S  S81  1  0.33961973  0.63299223  0.58340474  1
  S  S82  1  0.83097903  0.62309412  0.58415853  1
  S  S83  1  0.97889751  0.63409642  0.08607519  1
  S  S84  1  0.33731012  0.04197263  0.08559345  1
  S  S85  1  0.83611143  0.04380231  0.08334578  1
  S  S86  1  0.18436008  0.32428572  0.08559649  1
  S  S87  1  0.68778825  0.33339214  0.08409807  1
  S  S88  1  0.31109044  0.66594853  0.91707402  1
  S  S89  1  0.81129459  0.95825727  0.41769118  1
  O  O90  1  0.10846074  0.03346075  0.30546274  1
  O  O91  1  0.59620513  0.03898861  0.30833457  1
  O  O92  1  0.41862142  0.80923909  0.31127957  1
  O  O93  1  0.92286496  0.80790711  0.30963251  1
  O  O94  1  0.48766579  0.18585072  0.30752739  1
  O  O95  1  0.98634475  0.15842842  0.31032368  1
  O  O96  1  0.09367322  0.15128159  0.80673468  1
  O  O97  1  0.60686970  0.17609530  0.80389017  1
  O  O98  1  0.48740405  0.80961427  0.81292901  1
  O  O99  1  0.98750206  0.79083408  0.80707967  1
  O  O100  1  0.42388055  0.03370710  0.80967845  1
  O  O101  1  0.91747591  0.02605649  0.81159361  1
  O  O102  1  0.39994191  0.94602700  0.69177313  1
  O  O103  1  0.90265690  0.96209080  0.68903239  1
  O  O104  1  0.08246567  0.22012027  0.68829867  1
  O  O105  1  0.58516243  0.20582703  0.69388013  1
  O  O106  1  0.01167746  0.81934795  0.69479102  1
  O  O107  1  0.53203206  0.85472787  0.69329631  1
  O  O108  1  0.39450834  0.83196224  0.18941399  1
  O  O109  1  0.89967612  0.85616237  0.19194429  1
  O  O110  1  0.03154965  0.21275237  0.19203371  1
  O  O111  1  0.51374487  0.19619407  0.19600290  1
  O  O112  1  0.08409684  0.96648556  0.19483277  1
  O  O113  1  0.57602452  0.94223358  0.19042589  1
  O  O114  1  0.43557548  0.34039146  0.64076383  1
  O  O115  1  0.94509907  0.38258362  0.64250642  1
  O  O116  1  0.23994701  0.11716352  0.64708208  1
  O  O117  1  0.73183532  0.12785817  0.64149885  1
  O  O118  1  0.33045863  0.52825595  0.63759269  1
  O  O119  1  0.81915543  0.51679028  0.63820716  1
  O  O120  1  0.44618899  0.52704225  0.14517379  1
  O  O121  1  0.93294006  0.52910571  0.13986495  1
  O  O122  1  0.32348554  0.12652607  0.13804320  1
  O  O123  1  0.82894581  0.12928700  0.13829074  1
  O  O124  1  0.23182073  0.33531034  0.14198267  1
  O  O125  1  0.73717771  0.34997917  0.13932804  1
  O  O126  1  0.22746175  0.29968684  0.03051829  1
  O  O127  1  0.73109632  0.30028059  0.02818503  1
  O  O128  1  0.41487514  0.51878212  0.02175793  1
  O  O129  1  0.92671975  0.55306831  0.02818563  1
  O  O130  1  0.35062508  0.14714188  0.02720664  1
  O  O131  1  0.84747534  0.14805815  0.02634450  1
  O  O132  1  0.23176413  0.17472764  0.52548660  1
  O  O133  1  0.72477327  0.15092003  0.52985469  1
  O  O134  1  0.35016164  0.55261068  0.52586254  1
  O  O135  1  0.84746110  0.54249851  0.52761326  1
  O  O136  1  0.42751858  0.29984206  0.52889016  1
  O  O137  1  0.90899526  0.30365344  0.52340472  1
  O  O138  1  0.26888802  0.68665818  0.97117996  1
  O  O139  1  0.76225294  0.71531362  0.97569132  1
  O  O140  1  0.08251581  0.45926082  0.97801703  1
  O  O141  1  0.58451654  0.45578478  0.97358985  1
  O  O142  1  0.14435893  0.83782469  0.97376347  1
  O  O143  1  0.63787840  0.82098728  0.97176592  1
  O  O144  1  0.26493959  0.81373194  0.47392366  1
  O  O145  1  0.76970205  0.85381130  0.47145880  1
  O  O146  1  0.14934867  0.46526406  0.47773218  1
  O  O147  1  0.64469452  0.45289579  0.47317565  1
  O  O148  1  0.08267721  0.71328922  0.47263194  1
  O  O149  1  0.58162121  0.70612601  0.47830331  1
  O  O150  1  0.06522611  0.63434860  0.35218130  1
  O  O151  1  0.56383207  0.61690718  0.35815902  1
  O  O152  1  0.24025538  0.86616455  0.35876256  1
  O  O153  1  0.76092501  0.87833996  0.35973517  1
  O  O154  1  0.18869962  0.50152242  0.35766903  1
  O  O155  1  0.68750048  0.49600501  0.35316570  1
  O  O156  1  0.06442555  0.51120360  0.85830751  1
  O  O157  1  0.56594384  0.50752164  0.85453440  1
  O  O158  1  0.18754732  0.88024620  0.85331354  1
  O  O159  1  0.69227179  0.88882876  0.85594445  1
  O  O160  1  0.26019809  0.64424704  0.85937563  1
  O  O161  1  0.74239767  0.62429705  0.85829616  1
  O  O162  1  0.01204719  0.84539331  0.40785783  1
  O  O163  1  0.50363048  0.82876890  0.41093876  1
  O  O164  1  0.40815669  0.97966724  0.40834486  1
  O  O165  1  0.90202784  0.97702125  0.41268630  1
  O  O166  1  0.07807654  0.17344942  0.40992740  1
  O  O167  1  0.57676983  0.17783992  0.40710771  1
  O  O168  1  0.00410789  0.17891289  0.91099780  1
  O  O169  1  0.51238441  0.17738701  0.90750985  1
  O  O170  1  0.07705827  0.97695398  0.90682334  1
  O  O171  1  0.57560450  0.97515887  0.90916848  1
  O  O172  1  0.40235068  0.82643872  0.91266650  1
  O  O173  1  0.90626632  0.83594730  0.90987556  1
  O  O174  1  0.48722310  0.15843754  0.58937146  1
  O  O175  1  0.98691654  0.15806851  0.58376142  1
  O  O176  1  0.08466660  0.01339198  0.59116040  1
  O  O177  1  0.59153409  0.02907534  0.58812351  1
  O  O178  1  0.42189632  0.81300146  0.58585620  1
  O  O179  1  0.91587099  0.79785993  0.58705174  1
  O  O180  1  0.48839765  0.81947242  0.08188572  1
  O  O181  1  0.98632924  0.81376695  0.08879185  1
  O  O182  1  0.42216867  0.03645027  0.08889987  1
  O  O183  1  0.92134044  0.03284762  0.08509569  1
  O  O184  1  0.09226304  0.15354017  0.08746145  1
  O  O185  1  0.59679472  0.17643694  0.08655133  1
  O  O186  1  0.34659295  0.16340304  0.74884529  1
  O  O187  1  0.84328101  0.15975319  0.74655798  1
  O  O188  1  0.23917349  0.32253230  0.74669812  1
  O  O189  1  0.73211316  0.30960035  0.74052332  1
  O  O190  1  0.41893237  0.52921730  0.74511406  1
  O  O191  1  0.91985197  0.53333612  0.74625935  1
  O  O192  1  0.34174905  0.52299584  0.24860288  1
  O  O193  1  0.84359593  0.52779073  0.24500365  1
  O  O194  1  0.42067811  0.30426632  0.24450760  1
  O  O195  1  0.91814000  0.30821650  0.24600784  1
  O  O196  1  0.23237824  0.15467355  0.24000678  1
  O  O197  1  0.73716877  0.15787518  0.24393001  1
  O  O198  1  0.32340415  0.51084601  0.91872692  1
  O  O199  1  0.82073679  0.49639569  0.92673977  1
  O  O200  1  0.42655285  0.35950403  0.92199593  1
  O  O201  1  0.92289751  0.36217537  0.92578664  1
  O  O202  1  0.25625097  0.16571507  0.92656285  1
  O  O203  1  0.75399561  0.15209500  0.92745405  1
  O  O204  1  0.31889599  0.14429353  0.42529851  1
  O  O205  1  0.82149009  0.13604809  0.41986492  1
  O  O206  1  0.25220467  0.35405384  0.42325497  1
  O  O207  1  0.75440807  0.34135921  0.42516073  1
  O  O208  1  0.42188356  0.48270575  0.42634307  1
  O  O209  1  0.92318445  0.48821233  0.42133924  1
  O  O210  1  0.17333058  0.47844039  0.08168323  1
  O  O211  1  0.68371777  0.49592219  0.07595800  1
  O  O212  1  0.06769519  0.65438102  0.08280237  1
  O  O213  1  0.58231088  0.64337875  0.07201641  1
  O  O214  1  0.26145972  0.86263066  0.07858677  1
  O  O215  1  0.75816143  0.86583415  0.07918323  1
  O  O216  1  0.17469287  0.84060354  0.57279428  1
  O  O217  1  0.67341876  0.86728056  0.58165866  1
  O  O218  1  0.25860317  0.64786205  0.58042841  1
  O  O219  1  0.75576956  0.65130507  0.57726233  1
  O  O220  1  0.07833820  0.50879629  0.57118006  1
  O  O221  1  0.56893284  0.47977473  0.58249188  1
  O  O222  1  0.14836538  0.83544389  0.25136917  1
  O  O223  1  0.64671379  0.80992013  0.26054359  1
  O  O224  1  0.25649062  0.70489231  0.25861197  1
  O  O225  1  0.75729339  0.70456763  0.25784286  1
  O  O226  1  0.09323524  0.48762423  0.25794076  1
  O  O227  1  0.58118642  0.46230673  0.25165006  1
  O  O228  1  0.14719235  0.48650715  0.76103174  1
  O  O229  1  0.64728778  0.45887588  0.75359533  1
  O  O230  1  0.08082389  0.69771288  0.75240241  1
  O  O231  1  0.59423004  0.69949781  0.75762875  1
  O  O232  1  0.25789280  0.81215699  0.75782611  1
  O  O233  1  0.75819030  0.80878264  0.75630139  1
