# generated using pymatgen
data_Ti2P2SO12
_symmetry_space_group_name_H-M   'P 1'
_cell_length_a   8.59057451
_cell_length_b   8.59766379
_cell_length_c   22.22244591
_cell_angle_alpha   90.08192133
_cell_angle_beta   90.00000000
_cell_angle_gamma   119.97272760
_symmetry_Int_Tables_number   1
_chemical_formula_structural   Ti2P2SO12
_chemical_formula_sum   'Ti12 P12 S6 O72'
_cell_volume   1421.81748275
_cell_formula_units_Z   6
loop_
 _symmetry_equiv_pos_site_id
 _symmetry_equiv_pos_as_xyz
  1  'x, y, z'
loop_
 _atom_site_type_symbol
 _atom_site_label
 _atom_site_symmetry_multiplicity
 _atom_site_fract_x
 _atom_site_fract_y
 _atom_site_fract_z
 _atom_site_occupancy
  Ti  Ti0  1  0.99988320  0.00412984  0.35647166  1
  Ti  Ti1  1  0.00424664  0.00412984  0.85647166  1
  Ti  Ti2  1  0.99133618  0.00609741  0.64373198  1
  Ti  Ti3  1  0.01476122  0.00609741  0.14373198  1
  Ti  Ti4  1  0.66655020  0.33746284  0.68980466  1
  Ti  Ti5  1  0.67091364  0.33746284  0.18980466  1
  Ti  Ti6  1  0.65800318  0.33943041  0.97706498  1
  Ti  Ti7  1  0.68142822  0.33943041  0.47706498  1
  Ti  Ti8  1  0.33321620  0.67079684  0.02313866  1
  Ti  Ti9  1  0.33757964  0.67079684  0.52313866  1
  Ti  Ti10  1  0.32466918  0.67276441  0.31039898  1
  Ti  Ti11  1  0.34809422  0.67276441  0.81039898  1
  P  P12  1  0.28860610  0.00383018  0.25048781  1
  P  P13  1  0.00092324  0.28652559  0.24985824  1
  P  P14  1  0.28560235  0.28652559  0.74985824  1
  P  P15  1  0.71522408  0.00383018  0.75048781  1
  P  P16  1  0.95527310  0.33716318  0.58382081  1
  P  P17  1  0.66759024  0.61985859  0.58319124  1
  P  P18  1  0.95226935  0.61985859  0.08319124  1
  P  P19  1  0.38189108  0.33716318  0.08382081  1
  P  P20  1  0.62193910  0.67049718  0.91715481  1
  P  P21  1  0.33425624  0.95319259  0.91652524  1
  P  P22  1  0.61893535  0.95319259  0.41652524  1
  P  P23  1  0.04855708  0.67049718  0.41715481  1
  S  S24  1  0.71153066  0.71340184  0.24993611  1
  S  S25  1  0.00187118  0.71340184  0.74993611  1
  S  S26  1  0.37819766  0.04673484  0.58326911  1
  S  S27  1  0.66853818  0.04673484  0.08326911  1
  S  S28  1  0.04486366  0.38006884  0.91660311  1
  S  S29  1  0.33520418  0.38006884  0.41660311  1
  O  O30  1  0.19907148  0.03174134  0.30586488  1
  O  O31  1  0.82527093  0.79211531  0.30411389  1
  O  O32  1  0.96793101  0.16730036  0.30582455  1
  O  O33  1  0.19936935  0.16730036  0.80582455  1
  O  O34  1  0.96684438  0.79211531  0.80411389  1
  O  O35  1  0.83266986  0.03174134  0.80586488  1
  O  O36  1  0.79865493  0.96658049  0.69421071  1
  O  O37  1  0.16708336  0.19729208  0.69404049  1
  O  O38  1  0.03283336  0.82471349  0.69586620  1
  O  O39  1  0.79188013  0.82471349  0.19586620  1
  O  O40  1  0.03020872  0.19729208  0.19404049  1
  O  O41  1  0.16792556  0.96658049  0.19421071  1
  O  O42  1  0.86573848  0.36507434  0.63919788  1
  O  O43  1  0.49193793  0.12544831  0.63744689  1
  O  O44  1  0.63459801  0.50063336  0.63915755  1
  O  O45  1  0.86603635  0.50063336  0.13915755  1
  O  O46  1  0.63351138  0.12544831  0.13744689  1
  O  O47  1  0.49933686  0.36507434  0.13919788  1
  O  O48  1  0.46532193  0.29991349  0.02754371  1
  O  O49  1  0.83375036  0.53062508  0.02737349  1
  O  O50  1  0.69950036  0.15804649  0.02919920  1
  O  O51  1  0.45854713  0.15804649  0.52919920  1
  O  O52  1  0.69687572  0.53062508  0.52737349  1
  O  O53  1  0.83459256  0.29991349  0.52754371  1
  O  O54  1  0.53240448  0.69840834  0.97253188  1
  O  O55  1  0.15860393  0.45878231  0.97078089  1
  O  O56  1  0.30126401  0.83396736  0.97249155  1
  O  O57  1  0.53270235  0.83396736  0.47249155  1
  O  O58  1  0.30017738  0.45878231  0.47078089  1
  O  O59  1  0.16600286  0.69840834  0.47253188  1
  O  O60  1  0.13198793  0.63324749  0.36087771  1
  O  O61  1  0.50041636  0.86395908  0.36070749  1
  O  O62  1  0.36616636  0.49138049  0.36253320  1
  O  O63  1  0.12521313  0.49138049  0.86253320  1
  O  O64  1  0.36354172  0.86395908  0.86070749  1
  O  O65  1  0.50125856  0.63324749  0.86087771  1
  O  O66  1  0.02491558  0.83313018  0.40603137  1
  O  O67  1  0.80606710  0.97420558  0.40618287  1
  O  O68  1  0.17301661  0.19982951  0.40877258  1
  O  O69  1  0.02681290  0.19982951  0.90877258  1
  O  O70  1  0.16813848  0.97420558  0.90618287  1
  O  O71  1  0.80821460  0.83313018  0.90603137  1
  O  O72  1  0.97488357  0.16898635  0.59256560  1
  O  O73  1  0.19841747  0.02422550  0.59217968  1
  O  O74  1  0.83389539  0.80589496  0.59386138  1
  O  O75  1  0.97199957  0.80589496  0.09386138  1
  O  O76  1  0.82580803  0.02422550  0.09217968  1
  O  O77  1  0.19410278  0.16898635  0.09256560  1
  O  O78  1  0.69158258  0.16646318  0.73936437  1
  O  O79  1  0.47273410  0.30753858  0.73951587  1
  O  O80  1  0.83968361  0.53316251  0.74210558  1
  O  O81  1  0.69347990  0.53316251  0.24210558  1
  O  O82  1  0.83480548  0.30753858  0.23951587  1
  O  O83  1  0.47488160  0.16646318  0.23936437  1
  O  O84  1  0.64155057  0.50231935  0.92589860  1
  O  O85  1  0.86508447  0.35755850  0.92551268  1
  O  O86  1  0.50056239  0.13922796  0.92719438  1
  O  O87  1  0.63866657  0.13922796  0.42719438  1
  O  O88  1  0.49247503  0.35755850  0.42551268  1
  O  O89  1  0.86076978  0.50231935  0.42589860  1
  O  O90  1  0.35824858  0.49979718  0.07269837  1
  O  O91  1  0.13940010  0.64087258  0.07284987  1
  O  O92  1  0.50634961  0.86649651  0.07543958  1
  O  O93  1  0.36014590  0.86649651  0.57543958  1
  O  O94  1  0.50147148  0.64087258  0.57284987  1
  O  O95  1  0.14154760  0.49979718  0.57269837  1
  O  O96  1  0.30821657  0.83565335  0.25923260  1
  O  O97  1  0.53175047  0.69089250  0.25884668  1
  O  O98  1  0.16722839  0.47256196  0.26052838  1
  O  O99  1  0.30533257  0.47256196  0.76052838  1
  O  O100  1  0.15914103  0.69089250  0.75884668  1
  O  O101  1  0.52743578  0.83565335  0.75923260  1
