# generated using pymatgen
data_Na3TaSi3GeO12
_symmetry_space_group_name_H-M   'P 1'
_cell_length_a   8.90928507
_cell_length_b   8.88122300
_cell_length_c   22.01520827
_cell_angle_alpha   90.00000000
_cell_angle_beta   90.17821185
_cell_angle_gamma   119.89586370
_symmetry_Int_Tables_number   1
_chemical_formula_structural   Na3TaSi3GeO12
_chemical_formula_sum   'Na18 Ta6 Si18 Ge6 O72'
_cell_volume   1510.15329584
_cell_formula_units_Z   6
loop_
 _symmetry_equiv_pos_site_id
 _symmetry_equiv_pos_as_xyz
  1  'x, y, z'
loop_
 _atom_site_type_symbol
 _atom_site_label
 _atom_site_symmetry_multiplicity
 _atom_site_fract_x
 _atom_site_fract_y
 _atom_site_fract_z
 _atom_site_occupancy
  Na  Na0  1  0.99157288  0.98040141  0.49570932  1
  Na  Na1  1  0.99157288  0.01117147  0.99570932  1
  Na  Na2  1  0.66628913  0.33439967  0.82897787  1
  Na  Na3  1  0.66628913  0.33188846  0.32897787  1
  Na  Na4  1  0.33202787  0.66539149  0.16233548  1
  Na  Na5  1  0.33202787  0.66663738  0.66233548  1
  Na  Na6  1  0.36850399  0.36720918  0.24842278  1
  Na  Na7  1  0.99288830  0.62975839  0.24785929  1
  Na  Na8  1  0.99288830  0.36312991  0.74785929  1
  Na  Na9  1  0.36850399  0.00129480  0.74842278  1
  Na  Na10  1  0.30181892  0.34004498  0.58152984  1
  Na  Na11  1  0.66480326  0.96614740  0.58134482  1
  Na  Na12  1  0.30181892  0.96177294  0.08152984  1
  Na  Na13  1  0.66480326  0.69865486  0.08134482  1
  Na  Na14  1  0.96875437  0.67407054  0.91448155  1
  Na  Na15  1  0.33174169  0.29911141  0.91508125  1
  Na  Na16  1  0.96875437  0.29468483  0.41448155  1
  Na  Na17  1  0.33174169  0.03263128  0.41508125  1
  Ta  Ta18  1  -0.00022865  0.99766536  0.64400968  1
  Ta  Ta19  1  -0.00022865  0.00210599  0.14400968  1
  Ta  Ta20  1  0.66798986  0.32928425  0.97727873  1
  Ta  Ta21  1  0.66798986  0.33870461  0.47727873  1
  Ta  Ta22  1  0.33633429  0.67006521  0.31071559  1
  Ta  Ta23  1  0.33633429  0.66627008  0.81071559  1
  Si  Si24  1  0.29310855  0.00802045  0.25086351  1
  Si  Si25  1  0.71576934  0.71234572  0.25061735  1
  Si  Si26  1  0.98767570  0.28063679  0.25233816  1
  Si  Si27  1  0.29310855  0.28508810  0.75086351  1
  Si  Si28  1  0.98767570  0.70703891  0.75233816  1
  Si  Si29  1  0.71576934  0.00342362  0.75061735  1
  Si  Si30  1  0.95922730  0.34627441  0.58472343  1
  Si  Si31  1  0.38104460  0.04075884  0.58419227  1
  Si  Si32  1  0.66201497  0.61765748  0.58513728  1
  Si  Si33  1  0.95922730  0.61295188  0.08472343  1
  Si  Si34  1  0.66201497  0.04435649  0.08513728  1
  Si  Si35  1  0.38104460  0.34028476  0.08419227  1
  Si  Si36  1  0.62645454  0.67984886  0.91939701  1
  Si  Si37  1  0.04860492  0.37475772  0.91681506  1
  Si  Si38  1  0.32937443  0.95151090  0.91763523  1
  Si  Si39  1  0.62645454  0.94660668  0.41939701  1
  Si  Si40  1  0.32937443  0.37786453  0.41763523  1
  Si  Si41  1  0.04860492  0.67384821  0.41681506  1
  Ge  Ge42  1  0.99734132  0.99689109  0.35384773  1
  Ge  Ge43  1  0.99734132  0.00045023  0.85384773  1
  Ge  Ge44  1  0.66613886  0.33577032  0.68724114  1
  Ge  Ge45  1  0.66613886  0.33036755  0.18724114  1
  Ge  Ge46  1  0.33021704  0.66077447  0.02049174  1
  Ge  Ge47  1  0.33021704  0.66944358  0.52049174  1
  O  O48  1  0.20668335  0.04503193  0.31101292  1
  O  O49  1  0.84787686  0.80230862  0.30786471  1
  O  O50  1  0.96530299  0.16862282  0.31385005  1
  O  O51  1  0.20668335  0.16165142  0.81101292  1
  O  O52  1  0.96530299  0.79668017  0.81385005  1
  O  O53  1  0.84787686  0.04556824  0.80786471  1
  O  O54  1  0.79958922  0.97167923  0.68921957  1
  O  O55  1  0.16787124  0.20101128  0.69090057  1
  O  O56  1  0.03148852  0.83881685  0.69451089  1
  O  O57  1  0.79958922  0.82790999  0.18921957  1
  O  O58  1  0.03148852  0.19267167  0.19451089  1
  O  O59  1  0.16787124  0.96685996  0.19090057  1
  O  O60  1  0.86789449  0.36789466  0.64581710  1
  O  O61  1  0.50451155  0.12674527  0.64454916  1
  O  O62  1  0.62022934  0.48666858  0.64247931  1
  O  O63  1  0.86789449  0.49999883  0.14581710  1
  O  O64  1  0.62022934  0.13355976  0.14247931  1
  O  O65  1  0.50451155  0.37776528  0.14454916  1
  O  O66  1  0.46745347  0.30159870  0.02439590  1
  O  O67  1  0.83341750  0.53212369  0.02484341  1
  O  O68  1  0.69605738  0.16628726  0.02534672  1
  O  O69  1  0.46745347  0.16585377  0.52439590  1
  O  O70  1  0.69605738  0.52976912  0.52534672  1
  O  O71  1  0.83341750  0.30129281  0.52484341  1
  O  O72  1  0.53753222  0.70406806  0.98051078  1
  O  O73  1  0.17877996  0.46540339  0.97472844  1
  O  O74  1  0.29267991  0.82774228  0.97740059  1
  O  O75  1  0.53753222  0.83346516  0.48051078  1
  O  O76  1  0.29267991  0.46493864  0.47740059  1
  O  O77  1  0.17877996  0.71337757  0.47472844  1
  O  O78  1  0.13035385  0.63293784  0.35625270  1
  O  O79  1  0.49434386  0.85973607  0.36128894  1
  O  O80  1  0.36058277  0.49563428  0.35696525  1
  O  O81  1  0.13035385  0.49741701  0.85625270  1
  O  O82  1  0.36058277  0.86494949  0.85696525  1
  O  O83  1  0.49434386  0.63460879  0.86128894  1
  O  O84  1  0.03605174  0.85004755  0.40991502  1
  O  O85  1  0.82136788  0.97667934  0.41156407  1
  O  O86  1  0.15657530  0.18370299  0.41234533  1
  O  O87  1  0.03605174  0.18600419  0.90991502  1
  O  O88  1  0.15657530  0.97287231  0.91234533  1
  O  O89  1  0.82136788  0.84468854  0.91156407  1
  O  O90  1  0.97762624  0.16878073  0.58880114  1
  O  O91  1  0.19247259  0.03159328  0.58850288  1
  O  O92  1  0.83167914  0.81361930  0.58796625  1
  O  O93  1  0.97762624  0.80884551  0.08880114  1
  O  O94  1  0.83167914  0.01805984  0.08796625  1
  O  O95  1  0.19247259  0.16087931  0.08850288  1
  O  O96  1  0.69355732  0.17619848  0.74502878  1
  O  O97  1  0.48085633  0.29684915  0.74388992  1
  O  O98  1  0.82260594  0.51164937  0.74485653  1
  O  O99  1  0.69355732  0.51735784  0.24502878  1
  O  O100  1  0.82260594  0.31095556  0.24485653  1
  O  O101  1  0.48085633  0.18400618  0.24388992  1
  O  O102  1  0.64311313  0.50170617  0.92277218  1
  O  O103  1  0.86006466  0.36567763  0.92172173  1
  O  O104  1  0.49833064  0.14881802  0.92063691  1
  O  O105  1  0.64311313  0.14140597  0.42277218  1
  O  O106  1  0.49833064  0.34951162  0.42063691  1
  O  O107  1  0.86006466  0.49438603  0.42172173  1
  O  O108  1  0.36740046  0.51606688  0.07791893  1
  O  O109  1  0.15489036  0.64383673  0.07769478  1
  O  O110  1  0.48937992  0.85161334  0.07826517  1
  O  O111  1  0.36740046  0.85133458  0.57791893  1
  O  O112  1  0.48937992  0.63776758  0.57826517  1
  O  O113  1  0.15489036  0.51105463  0.57769478  1
  O  O114  1  0.30228404  0.82800071  0.25502960  1
  O  O115  1  0.51928305  0.68504442  0.25476453  1
  O  O116  1  0.16504527  0.47524135  0.25534318  1
  O  O117  1  0.30228404  0.47428433  0.75502960  1
  O  O118  1  0.16504527  0.68980492  0.75534318  1
  O  O119  1  0.51928305  0.83423963  0.75476453  1
