# generated using pymatgen
data_Sr4MgFe4O11
_symmetry_space_group_name_H-M   'P 1'
_cell_length_a   6.16319852
_cell_length_b   6.79281790
_cell_length_c   7.13893871
_cell_angle_alpha   111.67843260
_cell_angle_beta   95.94305196
_cell_angle_gamma   86.58985835
_symmetry_Int_Tables_number   1
_chemical_formula_structural   Sr4MgFe4O11
_chemical_formula_sum   'Sr4 Mg1 Fe4 O11'
_cell_volume   276.17052897
_cell_formula_units_Z   1
loop_
 _symmetry_equiv_pos_site_id
 _symmetry_equiv_pos_as_xyz
  1  'x, y, z'
loop_
 _atom_site_type_symbol
 _atom_site_label
 _atom_site_symmetry_multiplicity
 _atom_site_fract_x
 _atom_site_fract_y
 _atom_site_fract_z
 _atom_site_occupancy
  Sr  Sr0  1  0.04776862  0.77525182  0.28769582  1
  Sr  Sr1  1  0.89830490  0.27755051  0.81164794  1
  Sr  Sr2  1  0.50168535  0.95409156  0.96755839  1
  Sr  Sr3  1  0.59604906  0.50010822  0.46025003  1
  Mg  Mg4  1  0.24024167  0.34126600  0.60555931  1
  Fe  Fe5  1  0.55739866  -0.00131913  0.46555654  1
  Fe  Fe6  1  0.44320087  0.47308365  0.01143551  1
  Fe  Fe7  1  -0.00117646  0.25314878  0.24411262  1
  Fe  Fe8  1  0.00094638  0.76194517  0.75475495  1
  O  O9  1  0.16192537  0.96928404  0.71463813  1
  O  O10  1  0.26116233  0.11529204  0.33544435  1
  O  O11  1  0.84023483  0.70254960  0.94151756  1
  O  O12  1  0.71444036  0.31797579  0.10516436  1
  O  O13  1  0.79218537  0.10356403  0.36793605  1
  O  O14  1  0.71015881  0.86878572  0.64387834  1
  O  O15  1  0.19395026  0.36775146  0.09933426  1
  O  O16  1  0.28061699  0.61491174  0.84283083  1
  O  O17  1  0.00484819  0.49833613  0.49635559  1
  O  O18  1  0.47403459  0.72319492  0.25747188  1
  O  O19  1  0.52010982  0.27211396  0.70722254  1
