# generated using pymatgen
data_NaMgV2Bi3O10
_symmetry_space_group_name_H-M   'P 1'
_cell_length_a   5.71116051
_cell_length_b   7.34091211
_cell_length_c   8.15003557
_cell_angle_alpha   113.53267112
_cell_angle_beta   118.44881378
_cell_angle_gamma   82.46810754
_symmetry_Int_Tables_number   1
_chemical_formula_structural   NaMgV2Bi3O10
_chemical_formula_sum   'Na1 Mg1 V2 Bi3 O10'
_cell_volume   274.70184349
_cell_formula_units_Z   1
loop_
 _symmetry_equiv_pos_site_id
 _symmetry_equiv_pos_as_xyz
  1  'x, y, z'
loop_
 _atom_site_type_symbol
 _atom_site_label
 _atom_site_symmetry_multiplicity
 _atom_site_fract_x
 _atom_site_fract_y
 _atom_site_fract_z
 _atom_site_occupancy
  Na  Na0  1  0.92036528  0.59552208  0.18093971  1
  Mg  Mg1  1  0.87013641  0.34872324  0.77274805  1
  V  V2  1  0.28519682  0.60257538  0.67788139  1
  V  V3  1  0.65404830  0.92454012  0.38039492  1
  Bi  Bi4  1  0.03154230  0.01432620  0.98714148  1
  Bi  Bi5  1  0.56519120  0.38251703  0.29930609  1
  Bi  Bi6  1  0.38474809  0.16875402  0.75525362  1
  O  O7  1  0.39332678  0.10133009  0.28448588  1
  O  O8  1  0.28065795  0.53769286  0.44483653  1
  O  O9  1  0.93629999  0.96109630  0.37144210  1
  O  O10  1  0.72456383  0.22946232  0.05486143  1
  O  O11  1  0.01562713  0.45655023  0.65584209  1
  O  O12  1  0.71742853  0.06307807  0.66098824  1
  O  O13  1  0.28897630  0.86506929  0.81583775  1
  O  O14  1  0.52651595  0.67199588  0.25457945  1
  O  O15  1  0.57026741  0.47018372  0.81817783  1
  O  O16  1  0.17565073  0.28672116  -0.00089656  1
