# generated using pymatgen
data_Na3MgCo2SbO6
_symmetry_space_group_name_H-M   'P 1'
_cell_length_a   6.32489103
_cell_length_b   6.33027797
_cell_length_c   5.77236871
_cell_angle_alpha   88.50102253
_cell_angle_beta   88.73585591
_cell_angle_gamma   120.92997976
_symmetry_Int_Tables_number   1
_chemical_formula_structural   Na3MgCo2SbO6
_chemical_formula_sum   'Na3 Mg1 Co2 Sb1 O6'
_cell_volume   198.01252657
_cell_formula_units_Z   1
loop_
 _symmetry_equiv_pos_site_id
 _symmetry_equiv_pos_as_xyz
  1  'x, y, z'
loop_
 _atom_site_type_symbol
 _atom_site_label
 _atom_site_symmetry_multiplicity
 _atom_site_fract_x
 _atom_site_fract_y
 _atom_site_fract_z
 _atom_site_occupancy
  Na  Na0  1  0.13417323  0.70434989  0.42546756  1
  Na  Na1  1  0.70549919  0.13447843  0.42658584  1
  Na  Na2  1  0.69849547  0.69865805  0.71063385  1
  Mg  Mg3  1  0.23678521  0.23512565  0.47411753  1
  Co  Co4  1  0.55815028  0.18562473  0.88364325  1
  Co  Co5  1  0.18567717  0.55867739  0.88337329  1
  Sb  Sb6  1  0.06132966  0.06199536  0.06289558  1
  O  O7  1  0.43543552  0.87228255  0.74053169  1
  O  O8  1  0.12337412  0.38249919  0.20407119  1
  O  O9  1  0.87137578  0.43586060  0.74082403  1
  O  O10  1  0.38242224  0.12264176  0.20388657  1
  O  O11  1  0.92753127  0.92735812  0.39664246  1
  O  O12  1  0.32975187  0.33044929  0.78482917  1
