# generated using pymatgen
data_Cs3InO3
_symmetry_space_group_name_H-M   'P 1'
_cell_length_a   7.35243083
_cell_length_b   8.20845995
_cell_length_c   11.83466999
_cell_angle_alpha   84.54952926
_cell_angle_beta   90.00000000
_cell_angle_gamma   90.00000000
_symmetry_Int_Tables_number   1
_chemical_formula_structural   Cs3InO3
_chemical_formula_sum   'Cs12 In4 O12'
_cell_volume   711.01824734
_cell_formula_units_Z   4
loop_
 _symmetry_equiv_pos_site_id
 _symmetry_equiv_pos_as_xyz
  1  'x, y, z'
loop_
 _atom_site_type_symbol
 _atom_site_label
 _atom_site_symmetry_multiplicity
 _atom_site_fract_x
 _atom_site_fract_y
 _atom_site_fract_z
 _atom_site_occupancy
  Cs  Cs0  1  0.83246978  0.65122459  0.42761390  1
  Cs  Cs1  1  0.82091351  0.37443396  0.19355409  1
  Cs  Cs2  1  0.32091351  0.62556604  0.30644591  1
  Cs  Cs3  1  0.67908649  0.37443396  0.69355409  1
  Cs  Cs4  1  0.62294450  0.95173890  0.15598111  1
  Cs  Cs5  1  0.16753022  0.34877541  0.57238610  1
  Cs  Cs6  1  0.87705550  0.95173890  0.65598111  1
  Cs  Cs7  1  0.17908649  0.62556604  0.80644591  1
  Cs  Cs8  1  0.66753022  0.65122459  0.92761390  1
  Cs  Cs9  1  0.37705550  0.04826110  0.84401889  1
  Cs  Cs10  1  0.12294450  0.04826110  0.34401889  1
  Cs  Cs11  1  0.33246978  0.34877541  0.07238610  1
  In  In12  1  0.41591757  0.84370814  0.56692932  1
  In  In13  1  0.08408243  0.84370814  0.06692932  1
  In  In14  1  0.58408243  0.15629186  0.43307068  1
  In  In15  1  0.91591757  0.15629186  0.93307068  1
  O  O16  1  0.94287979  0.70846636  0.19190642  1
  O  O17  1  0.16087380  0.75405452  0.53971914  1
  O  O18  1  0.44718989  0.09865030  0.59130961  1
  O  O19  1  0.33912620  0.75405452  0.03971914  1
  O  O20  1  0.55712021  0.70846636  0.69190642  1
  O  O21  1  0.55281011  0.90134970  0.40869039  1
  O  O22  1  0.05712021  0.29153364  0.80809358  1
  O  O23  1  0.44287979  0.29153364  0.30809358  1
  O  O24  1  0.83912620  0.24594548  0.46028086  1
  O  O25  1  0.66087380  0.24594548  0.96028086  1
  O  O26  1  0.05281011  0.09865030  0.09130961  1
  O  O27  1  0.94718989  0.90134970  0.90869039  1
