# generated using pymatgen
data_Na7Sc2Si3Sn2(PO8)3
_symmetry_space_group_name_H-M   'P 1'
_cell_length_a   9.11718053
_cell_length_b   9.11683212
_cell_length_c   22.44916326
_cell_angle_alpha   89.91715729
_cell_angle_beta   89.87424463
_cell_angle_gamma   120.02176329
_symmetry_Int_Tables_number   1
_chemical_formula_structural   Na7Sc2Si3Sn2(PO8)3
_chemical_formula_sum   'Na21 Sc6 Si9 Sn6 P9 O72'
_cell_volume   1615.61210226
_cell_formula_units_Z   3
loop_
 _symmetry_equiv_pos_site_id
 _symmetry_equiv_pos_as_xyz
  1  'x, y, z'
loop_
 _atom_site_type_symbol
 _atom_site_label
 _atom_site_symmetry_multiplicity
 _atom_site_fract_x
 _atom_site_fract_y
 _atom_site_fract_z
 _atom_site_occupancy
  Na  Na0  1  0.63181825  0.00439809  0.25334125  1
  Na  Na1  1  0.36830214  0.37238508  0.24669976  1
  Na  Na2  1  0.99974932  0.62092382  0.24991008  1
  Na  Na3  1  0.63187320  0.63489767  0.74870112  1
  Na  Na4  1  0.99531235  0.36552582  0.74860878  1
  Na  Na5  1  0.37461540  0.00103713  0.74735240  1
  Na  Na6  1  0.03322707  0.69643596  0.58240467  1
  Na  Na7  1  0.66441188  0.97176083  0.58182944  1
  Na  Na8  1  0.66389403  0.68802298  0.08166380  1
  Na  Na9  1  0.03073181  0.33587073  0.08637816  1
  Na  Na10  1  0.95971810  0.66529168  0.91961398  1
  Na  Na11  1  0.70200444  0.03194411  0.91730991  1
  Na  Na12  1  0.33875011  0.30115867  0.91861031  1
  Na  Na13  1  0.96468744  0.30164653  0.41612666  1
  Na  Na14  1  0.33574035  0.02708314  0.41956547  1
  Na  Na15  1  0.99885335  -0.00006893  0.50027446  1
  Na  Na16  1  0.01034404  0.99585023  0.00164812  1
  Na  Na17  1  0.66645588  0.33323016  0.83343090  1
  Na  Na18  1  0.67497241  0.34139351  0.33503406  1
  Na  Na19  1  0.32512838  0.66656443  0.16567160  1
  Na  Na20  1  0.33372217  0.66050760  0.66399062  1
  Sc  Sc21  1  0.99400757  0.99926361  0.85176392  1
  Sc  Sc22  1  0.66879240  0.32866059  0.68215141  1
  Sc  Sc23  1  0.67110627  0.33632399  0.18181503  1
  Sc  Sc24  1  0.66375774  0.33955957  0.98494493  1
  Sc  Sc25  1  0.32818637  0.66418514  0.31750280  1
  Sc  Sc26  1  0.34014429  0.66857014  0.81486249  1
  Si  Si27  1  -0.00036445  0.29377970  0.25002115  1
  Si  Si28  1  0.70480651  0.00106306  0.74980802  1
  Si  Si29  1  0.96674043  0.33423432  0.58289242  1
  Si  Si30  1  0.36822798  0.03638415  0.58340158  1
  Si  Si31  1  0.96700489  0.63400780  0.08307437  1
  Si  Si32  1  0.36785465  0.33231320  0.08303266  1
  Si  Si33  1  0.62996725  0.66574624  0.91645337  1
  Si  Si34  1  0.62889931  0.96154905  0.41672447  1
  Si  Si35  1  0.03339175  0.66627833  0.41662199  1
  Sn  Sn36  1  0.99186614  0.99492849  0.35410924  1
  Sn  Sn37  1  0.00282154  0.00518168  0.64679509  1
  Sn  Sn38  1  0.00704609  0.00257606  0.14676389  1
  Sn  Sn39  1  0.66468757  0.33165017  0.48266638  1
  Sn  Sn40  1  0.33525831  0.67027181  0.01908536  1
  Sn  Sn41  1  0.33374639  0.66766308  0.51722907  1
  P  P42  1  0.29057281  -0.00048311  0.25142617  1
  P  P43  1  0.70920621  0.70832622  0.24883398  1
  P  P44  1  0.29286881  0.29365636  0.75125409  1
  P  P45  1  0.99938707  0.70719165  0.75003455  1
  P  P46  1  0.66508418  0.62612439  0.58458067  1
  P  P47  1  0.66507163  0.03575713  0.08374539  1
  P  P48  1  0.04057880  0.37313422  0.91650744  1
  P  P49  1  0.33414790  0.95966507  0.91575624  1
  P  P50  1  0.33562014  0.37307051  0.41567429  1
  O  O51  1  0.21089240  0.03059024  0.30815457  1
  O  O52  1  0.82914475  0.78988545  0.30290553  1
  O  O53  1  0.96648210  0.17294885  0.30923924  1
  O  O54  1  0.21549282  0.18456518  0.80763019  1
  O  O55  1  0.97761973  0.79487867  0.80537556  1
  O  O56  1  0.82412620  0.03250833  0.80820576  1
  O  O57  1  0.78981617  0.96132740  0.69097085  1
  O  O58  1  0.17691047  0.20811940  0.69627263  1
  O  O59  1  0.03271738  0.81958926  0.69315622  1
  O  O60  1  0.78852512  0.81900403  0.19197261  1
  O  O61  1  0.03296210  0.20646758  0.19102594  1
  O  O62  1  0.17080138  0.96084695  0.19728989  1
  O  O63  1  0.88642961  0.37345739  0.64193479  1
  O  O64  1  0.48648286  0.12268508  0.64168748  1
  O  O65  1  0.64130474  0.52498184  0.64220262  1
  O  O66  1  0.88617614  0.51442069  0.14242494  1
  O  O67  1  0.64316440  0.11842266  0.14038691  1
  O  O68  1  0.48464500  0.36457999  0.14210886  1
  O  O69  1  0.45256608  0.30789151  0.02264728  1
  O  O70  1  0.85023423  0.55103771  0.02376739  1
  O  O71  1  0.69448899  0.14495433  0.02773059  1
  O  O72  1  0.44757646  0.15028737  0.52262629  1
  O  O73  1  0.69893786  0.54249575  0.53007770  1
  O  O74  1  0.84533761  0.29711373  0.52378315  1
  O  O75  1  0.54612365  0.70622278  0.97553997  1
  O  O76  1  0.15103753  0.45658243  0.97307519  1
  O  O77  1  0.29622058  0.84053643  0.97063242  1
  O  O78  1  0.54732502  0.84873838  0.47748123  1
  O  O79  1  0.29908654  0.45520354  0.46994682  1
  O  O80  1  0.15407512  0.70524431  0.47602162  1
  O  O81  1  0.11460767  0.62692937  0.35786774  1
  O  O82  1  0.51223223  0.87517656  0.35817666  1
  O  O83  1  0.36041450  0.47535169  0.35807736  1
  O  O84  1  0.12170428  0.48522151  0.86098465  1
  O  O85  1  0.35758633  0.87662892  0.85926552  1
  O  O86  1  0.50978093  0.63539676  0.85846737  1
  O  O87  1  0.03275620  0.84704414  0.41202337  1
  O  O88  1  0.82489511  0.99567096  0.41531600  1
  O  O89  1  0.17440541  0.19264272  0.41236822  1
  O  O90  1  0.03110618  0.19833644  0.91304454  1
  O  O91  1  0.17755054  0.98313249  0.91228472  1
  O  O92  1  0.81942926  0.83591192  0.91400857  1
  O  O93  1  0.97012363  0.15507774  0.58658969  1
  O  O94  1  0.17146351  -0.00084478  0.58768148  1
  O  O95  1  0.82909972  0.80506190  0.58713994  1
  O  O96  1  0.96973467  0.81603951  0.08854570  1
  O  O97  1  0.82593644  0.01579776  0.08812320  1
  O  O98  1  0.17190998  0.17095721  0.08540882  1
  O  O99  1  0.68872569  0.17283951  0.74621926  1
  O  O100  1  0.47247232  0.31737408  0.74475407  1
  O  O101  1  0.83487779  0.53302110  0.74570365  1
  O  O102  1  0.68906486  0.52984046  0.24440367  1
  O  O103  1  0.82691123  0.30775049  0.24731661  1
  O  O104  1  0.46555289  0.16133291  0.24510580  1
  O  O105  1  0.64694471  0.49457503  0.91952327  1
  O  O106  1  0.86044947  0.34821110  0.92229790  1
  O  O107  1  0.49881764  0.13284959  0.92161992  1
  O  O108  1  0.64014240  0.14965759  0.42029332  1
  O  O109  1  0.49189680  0.34968223  0.42196170  1
  O  O110  1  0.84606732  0.49501157  0.42281615  1
  O  O111  1  0.35311536  0.50766134  0.07947739  1
  O  O112  1  0.15377748  0.64775692  0.07780327  1
  O  O113  1  0.50859017  0.85378417  0.08003641  1
  O  O114  1  0.35798115  0.84927993  0.57954544  1
  O  O115  1  0.51014190  0.65190937  0.57819568  1
  O  O116  1  0.15379504  0.50613618  0.57684524  1
  O  O117  1  0.31095936  0.84117952  0.25574097  1
  O  O118  1  0.53453109  0.69591138  0.25478096  1
  O  O119  1  0.17242321  0.48064681  0.25240325  1
  O  O120  1  0.30350233  0.46894344  0.75443314  1
  O  O121  1  0.15631020  0.68414813  0.75375851  1
  O  O122  1  0.51534433  0.83085222  0.75228564  1
