# generated using pymatgen
data_Na3HfTa(SiO4)3
_symmetry_space_group_name_H-M   'P 1'
_cell_length_a   15.78260767
_cell_length_b   9.12550472
_cell_length_c   9.09648817
_cell_angle_alpha   90.00000000
_cell_angle_beta   124.94136633
_cell_angle_gamma   90.00000000
_symmetry_Int_Tables_number   1
_chemical_formula_structural   Na3HfTa(SiO4)3
_chemical_formula_sum   'Na12 Hf4 Ta4 Si12 O48'
_cell_volume   1073.95180316
_cell_formula_units_Z   4
loop_
 _symmetry_equiv_pos_site_id
 _symmetry_equiv_pos_as_xyz
  1  'x, y, z'
loop_
 _atom_site_type_symbol
 _atom_site_label
 _atom_site_symmetry_multiplicity
 _atom_site_fract_x
 _atom_site_fract_y
 _atom_site_fract_z
 _atom_site_occupancy
  Na  Na0  1  0.25391092  0.72590416  0.99752057  1
  Na  Na1  1  0.75391092  0.77409584  0.49752057  1
  Na  Na2  1  0.75391092  0.22590416  0.99752057  1
  Na  Na3  1  0.25391092  0.27409584  0.49752057  1
  Na  Na4  1  0.49931642  0.11410677  0.74513456  1
  Na  Na5  1  0.49931642  0.88589323  0.24513456  1
  Na  Na6  1  0.99931642  0.61410677  0.74513456  1
  Na  Na7  1  0.99931642  0.38589323  0.24513456  1
  Na  Na8  1  0.18989350  0.94461897  0.29110558  1
  Na  Na9  1  0.18989350  0.05538103  0.79110558  1
  Na  Na10  1  0.68989350  0.44461897  0.29110558  1
  Na  Na11  1  0.68989350  0.55538103  0.79110558  1
  Hf  Hf12  1  0.10612790  0.74923811  0.56685739  1
  Hf  Hf13  1  0.10612790  0.25076189  0.06685739  1
  Hf  Hf14  1  0.60612790  0.24923811  0.56685739  1
  Hf  Hf15  1  0.60612790  0.75076189  0.06685739  1
  Ta  Ta16  1  0.89310227  0.75359479  0.93405713  1
  Ta  Ta17  1  0.89310227  0.24640521  0.43405713  1
  Ta  Ta18  1  0.39310227  0.25359479  0.93405713  1
  Ta  Ta19  1  0.39310227  0.74640521  0.43405713  1
  Si  Si20  1  0.99630494  0.95963151  0.75457742  1
  Si  Si21  1  0.99630494  0.04036849  0.25457742  1
  Si  Si22  1  0.49630494  0.45963151  0.75457742  1
  Si  Si23  1  0.49630494  0.54036849  0.25457742  1
  Si  Si24  1  0.35515376  0.89634439  0.75709629  1
  Si  Si25  1  0.64466062  0.89103415  0.74357677  1
  Si  Si26  1  0.64466062  0.10896585  0.24357677  1
  Si  Si27  1  0.35515376  0.10365561  0.25709629  1
  Si  Si28  1  0.85515376  0.39634439  0.75709629  1
  Si  Si29  1  0.14466062  0.39103415  0.74357677  1
  Si  Si30  1  0.14466062  0.60896585  0.24357677  1
  Si  Si31  1  0.85515376  0.60365561  0.25709629  1
  O  O32  1  0.15225096  0.56832083  0.74234272  1
  O  O33  1  0.85051275  0.57843793  0.75986455  1
  O  O34  1  0.85051275  0.42156207  0.25986455  1
  O  O35  1  0.15225096  0.43167917  0.24234272  1
  O  O36  1  0.65225096  0.06832083  0.74234272  1
  O  O37  1  0.35051275  0.07843793  0.75986455  1
  O  O38  1  0.35051275  0.92156207  0.25986455  1
  O  O39  1  0.65225096  0.93167917  0.24234272  1
  O  O40  1  0.43271064  0.57416042  0.58106508  1
  O  O41  1  0.56704401  0.55700500  0.93367139  1
  O  O42  1  0.56704401  0.44299500  0.43367139  1
  O  O43  1  0.43271064  0.42583958  0.08106508  1
  O  O44  1  0.93271064  0.07416042  0.58106508  1
  O  O45  1  0.06704401  0.05700500  0.93367139  1
  O  O46  1  0.06704401  0.94299500  0.43367139  1
  O  O47  1  0.93271064  0.92583958  0.08106508  1
  O  O48  1  0.25575319  0.83530331  0.74867829  1
  O  O49  1  0.74110064  0.80550813  0.75787937  1
  O  O50  1  0.74110064  0.19449187  0.25787937  1
  O  O51  1  0.25575319  0.16469669  0.24867829  1
  O  O52  1  0.75575319  0.33530331  0.74867829  1
  O  O53  1  0.24110064  0.30550813  0.75787937  1
  O  O54  1  0.24110064  0.69449187  0.25787937  1
  O  O55  1  0.75575319  0.66469669  0.24867829  1
  O  O56  1  0.35543395  0.85820491  0.57716110  1
  O  O57  1  0.64290128  0.84322706  0.91292312  1
  O  O58  1  0.64290128  0.15677294  0.41292312  1
  O  O59  1  0.35543395  0.14179509  0.07716110  1
  O  O60  1  0.85543395  0.35820491  0.57716110  1
  O  O61  1  0.14290128  0.34322706  0.91292312  1
  O  O62  1  0.14290128  0.65677294  0.41292312  1
  O  O63  1  0.85543395  0.64179509  0.07716110  1
  O  O64  1  0.46140788  0.83906225  0.93577377  1
  O  O65  1  0.53530371  0.82826091  0.56098112  1
  O  O66  1  0.53530371  0.17173909  0.06098112  1
  O  O67  1  0.46140788  0.16093775  0.43577377  1
  O  O68  1  0.96140788  0.33906225  0.93577377  1
  O  O69  1  0.03530371  0.32826091  0.56098112  1
  O  O70  1  0.03530371  0.67173909  0.06098112  1
  O  O71  1  0.96140788  0.66093775  0.43577377  1
  O  O72  1  0.07446396  0.85245971  0.74123990  1
  O  O73  1  0.91264671  0.85506506  0.75849389  1
  O  O74  1  0.91264671  0.14493494  0.25849389  1
  O  O75  1  0.07446396  0.14754029  0.24123990  1
  O  O76  1  0.57446396  0.35245971  0.74123990  1
  O  O77  1  0.41264671  0.35506506  0.75849389  1
  O  O78  1  0.41264671  0.64493494  0.25849389  1
  O  O79  1  0.57446396  0.64754029  0.24123990  1
