# generated using pymatgen
data_V2S2O11
_symmetry_space_group_name_H-M   'P 1'
_cell_length_a   8.96112938
_cell_length_b   9.49288189
_cell_length_c   9.89878764
_cell_angle_alpha   75.00082139
_cell_angle_beta   90.00000000
_cell_angle_gamma   90.00000000
_symmetry_Int_Tables_number   1
_chemical_formula_structural   V2S2O11
_chemical_formula_sum   'V8 S8 O44'
_cell_volume   813.37024055
_cell_formula_units_Z   4
loop_
 _symmetry_equiv_pos_site_id
 _symmetry_equiv_pos_as_xyz
  1  'x, y, z'
loop_
 _atom_site_type_symbol
 _atom_site_label
 _atom_site_symmetry_multiplicity
 _atom_site_fract_x
 _atom_site_fract_y
 _atom_site_fract_z
 _atom_site_occupancy
  V  V0  1  0.13006211  0.35734873  0.33239743  1
  V  V1  1  0.63006211  0.14265127  0.66760257  1
  V  V2  1  0.86993789  0.64265127  0.66760257  1
  V  V3  1  0.36993789  0.85734873  0.33239743  1
  V  V4  1  0.87441551  0.62144835  0.17667451  1
  V  V5  1  0.37441551  0.87855165  0.82332549  1
  V  V6  1  0.12558449  0.37855165  0.82332549  1
  V  V7  1  0.62558449  0.12144835  0.17667451  1
  S  S8  1  0.92565394  0.28832907  0.10357119  1
  S  S9  1  0.42565394  0.21167093  0.89642881  1
  S  S10  1  0.07434606  0.71167093  0.89642881  1
  S  S11  1  0.57434606  0.78832907  0.10357119  1
  S  S12  1  0.78519742  0.42754881  0.47183678  1
  S  S13  1  0.28519742  0.07245119  0.52816322  1
  S  S14  1  0.21480258  0.57245119  0.52816322  1
  S  S15  1  0.71480258  0.92754881  0.47183678  1
  O  O16  1  0.92861840  0.35700981  0.49422474  1
  O  O17  1  0.42861840  0.14299019  0.50577526  1
  O  O18  1  0.07138160  0.64299019  0.50577526  1
  O  O19  1  0.57138160  0.85700981  0.49422474  1
  O  O20  1  0.75463543  0.49004363  0.32080606  1
  O  O21  1  0.25463543  0.00995637  0.67919394  1
  O  O22  1  0.24536457  0.50995637  0.67919394  1
  O  O23  1  0.74536457  0.99004363  0.32080606  1
  O  O24  1  0.77026604  0.54863258  0.54021389  1
  O  O25  1  0.27026604  0.95136742  0.45978611  1
  O  O26  1  0.22973396  0.45136742  0.45978611  1
  O  O27  1  0.72973396  0.04863258  0.54021389  1
  O  O28  1  0.65966898  0.32668658  0.52341868  1
  O  O29  1  0.15966898  0.17331342  0.47658132  1
  O  O30  1  0.85237161  0.42826577  0.07101055  1
  O  O31  1  0.34033102  0.67331342  0.47658132  1
  O  O32  1  0.60904371  0.25338431  0.24515749  1
  O  O33  1  0.10904371  0.24661569  0.75484251  1
  O  O34  1  0.39095629  0.74661569  0.75484251  1
  O  O35  1  0.89095629  0.75338431  0.24515749  1
  O  O36  1  0.23252543  0.85219930  0.23397441  1
  O  O37  1  0.73252543  0.64780070  0.76602559  1
  O  O38  1  0.76747457  0.14780070  0.76602559  1
  O  O39  1  0.26747457  0.35219930  0.23397441  1
  O  O40  1  0.46070240  0.02128207  0.24075956  1
  O  O41  1  0.96070240  0.47871793  0.75924044  1
  O  O42  1  0.53929760  0.97871793  0.75924044  1
  O  O43  1  0.03929760  0.52128207  0.24075956  1
  O  O44  1  0.67548613  0.66941501  0.09074425  1
  O  O45  1  0.17548613  0.83058499  0.90925575  1
  O  O46  1  0.32451387  0.33058499  0.90925575  1
  O  O47  1  0.82451387  0.16941501  0.09074425  1
  O  O48  1  0.44758400  0.78410377  0.00905881  1
  O  O49  1  0.94758400  0.71589623  0.99094119  1
  O  O50  1  0.55241600  0.21589623  0.99094119  1
  O  O51  1  0.05241600  0.28410377  0.00905881  1
  O  O52  1  0.51435562  0.74759502  0.24950090  1
  O  O53  1  0.01435562  0.75240498  0.75049910  1
  O  O54  1  0.48564438  0.25240498  0.75049910  1
  O  O55  1  0.98564438  0.24759502  0.24950090  1
  O  O56  1  0.64762839  0.92826577  0.07101055  1
  O  O57  1  0.14762839  0.57173423  0.92898945  1
  O  O58  1  0.35237161  0.07173423  0.92898945  1
  O  O59  1  0.84033102  0.82668658  0.52341868  1
