# generated using pymatgen
data_Ba2PrMgSbO6
_symmetry_space_group_name_H-M   'P 1'
_cell_length_a   6.72790787
_cell_length_b   6.50956251
_cell_length_c   7.11562701
_cell_angle_alpha   57.01016807
_cell_angle_beta   53.73582981
_cell_angle_gamma   59.09972383
_symmetry_Int_Tables_number   1
_chemical_formula_structural   Ba2PrMgSbO6
_chemical_formula_sum   'Ba2 Pr1 Mg1 Sb1 O6'
_cell_volume   202.13374080
_cell_formula_units_Z   1
loop_
 _symmetry_equiv_pos_site_id
 _symmetry_equiv_pos_as_xyz
  1  'x, y, z'
loop_
 _atom_site_type_symbol
 _atom_site_label
 _atom_site_symmetry_multiplicity
 _atom_site_fract_x
 _atom_site_fract_y
 _atom_site_fract_z
 _atom_site_occupancy
  Ba  Ba0  1  0.69891431  0.72990584  0.69418180  1
  Ba  Ba1  1  0.30108569  0.27009416  0.30581820  1
  Pr  Pr2  1  -0.00000000  -0.00000000  -0.00000000  1
  Mg  Mg3  1  -0.00000000  0.50000000  -0.00000000  1
  Sb  Sb4  1  0.50000000  0.50000000  0.50000000  1
  O  O5  1  0.65536546  0.27541074  0.85297203  1
  O  O6  1  0.22288698  0.77271992  0.72458538  1
  O  O7  1  0.85501240  0.63123718  0.26473987  1
  O  O8  1  0.34463454  0.72458926  0.14702797  1
  O  O9  1  0.14498760  0.36876282  0.73526013  1
  O  O10  1  0.77711302  0.22728008  0.27541462  1
