# generated using pymatgen
data_Na4Mg(CoO3)2
_symmetry_space_group_name_H-M   'P 1'
_cell_length_a   6.46689299
_cell_length_b   5.54398417
_cell_length_c   5.79260697
_cell_angle_alpha   75.17608935
_cell_angle_beta   95.92552917
_cell_angle_gamma   56.11586804
_symmetry_Int_Tables_number   1
_chemical_formula_structural   Na4Mg(CoO3)2
_chemical_formula_sum   'Na4 Mg1 Co2 O6'
_cell_volume   158.65465465
_cell_formula_units_Z   1
loop_
 _symmetry_equiv_pos_site_id
 _symmetry_equiv_pos_as_xyz
  1  'x, y, z'
loop_
 _atom_site_type_symbol
 _atom_site_label
 _atom_site_symmetry_multiplicity
 _atom_site_fract_x
 _atom_site_fract_y
 _atom_site_fract_z
 _atom_site_occupancy
  Na  Na0  1  -0.02253726  0.29309247  0.47420982  1
  Na  Na1  1  0.02253726  0.70690753  0.52579018  1
  Na  Na2  1  0.50000000  0.50000000  0.50000000  1
  Na  Na3  1  -0.00000000  0.00000000  0.00000000  1
  Mg  Mg4  1  0.50000000  0.00000000  0.50000000  1
  Co  Co5  1  0.59564128  0.68208362  -0.02401882  1
  Co  Co6  1  0.40435872  0.31791638  0.02401882  1
  O  O7  1  0.27992313  0.76337596  0.77435328  1
  O  O8  1  0.20946377  0.43809779  0.24265062  1
  O  O9  1  0.54514076  0.83322043  0.23343152  1
  O  O10  1  0.79053623  0.56190221  0.75734938  1
  O  O11  1  0.45485924  0.16677957  0.76656848  1
  O  O12  1  0.72007687  0.23662404  0.22564672  1
