# generated using pymatgen
data_Na5MgZr3SiP5O24
_symmetry_space_group_name_H-M   'P 1'
_cell_length_a   9.07429163
_cell_length_b   9.04517621
_cell_length_c   22.83513781
_cell_angle_alpha   89.99752759
_cell_angle_beta   90.15277855
_cell_angle_gamma   119.88606930
_symmetry_Int_Tables_number   1
_chemical_formula_structural   Na5MgZr3SiP5O24
_chemical_formula_sum   'Na15 Mg3 Zr9 Si3 P15 O72'
_cell_volume   1625.02278862
_cell_formula_units_Z   3
loop_
 _symmetry_equiv_pos_site_id
 _symmetry_equiv_pos_as_xyz
  1  'x, y, z'
loop_
 _atom_site_type_symbol
 _atom_site_label
 _atom_site_symmetry_multiplicity
 _atom_site_fract_x
 _atom_site_fract_y
 _atom_site_fract_z
 _atom_site_occupancy
  Na  Na0  1  0.64218499  0.01271389  0.24349669  1
  Na  Na1  1  0.37167776  0.35895375  0.24339316  1
  Na  Na2  1  0.98801148  0.63010904  0.24391642  1
  Na  Na3  1  0.63601379  0.62635594  0.74634465  1
  Na  Na4  1  0.99019602  0.36368720  0.74680134  1
  Na  Na5  1  0.37794842  0.01286207  0.74290136  1
  Na  Na6  1  0.66254934  0.97468571  0.58461855  1
  Na  Na7  1  0.33253441  0.30511139  0.92259370  1
  Na  Na8  1  0.32571047  0.03150808  0.41346647  1
  Na  Na9  1  -0.00001949  0.00042166  0.49182083  1
  Na  Na10  1  0.98496915  0.98974290  0.00262207  1
  Na  Na11  1  0.67844836  0.33676823  0.83780634  1
  Na  Na12  1  0.67825827  0.34385622  0.33032385  1
  Na  Na13  1  0.33341719  0.66765505  0.15970399  1
  Na  Na14  1  0.32348259  0.66183125  0.66144877  1
  Mg  Mg15  1  0.99226263  0.99888348  0.35167303  1
  Mg  Mg16  1  0.66549430  0.33245457  0.68028284  1
  Mg  Mg17  1  0.66802729  0.33459011  0.18001775  1
  Zr  Zr18  1  0.99138710  0.99392421  0.85633636  1
  Zr  Zr19  1  0.01040493  0.00121203  0.64295072  1
  Zr  Zr20  1  0.00000615  0.00132103  0.14552793  1
  Zr  Zr21  1  0.67675753  0.33709310  0.98344174  1
  Zr  Zr22  1  0.66728349  0.33790289  0.48182303  1
  Zr  Zr23  1  0.33524152  0.66482973  0.02072140  1
  Zr  Zr24  1  0.32800873  0.66176554  0.51870500  1
  Zr  Zr25  1  0.33331854  0.66416698  0.31583092  1
  Zr  Zr26  1  0.33208504  0.66547630  0.81861094  1
  Si  Si27  1  0.37737493  0.04155934  0.58483263  1
  Si  Si28  1  0.62699534  0.66401560  0.91748463  1
  Si  Si29  1  0.03675493  0.37374302  0.91614986  1
  P  P30  1  0.29328222  0.00297903  0.25311774  1
  P  P31  1  0.71150003  0.70797231  0.25180580  1
  P  P32  1  0.99668727  0.28937138  0.25198093  1
  P  P33  1  0.29571929  0.29424364  0.75047990  1
  P  P34  1  0.99847986  0.70438361  0.74903295  1
  P  P35  1  0.70661866  0.00251261  0.74813140  1
  P  P36  1  0.95762160  0.33607093  0.58672701  1
  P  P37  1  0.66461796  0.62439994  0.58671937  1
  P  P38  1  0.96098907  0.62618244  0.08747848  1
  P  P39  1  0.66458312  0.04031306  0.08755100  1
  P  P40  1  0.37518202  0.33302593  0.08573604  1
  P  P41  1  0.33483019  0.96080644  0.91698773  1
  P  P42  1  0.63295925  0.96141070  0.41737939  1
  P  P43  1  0.32978269  0.36638080  0.41571050  1
  P  P44  1  0.03752090  0.66930232  0.41518130  1
  O  O45  1  0.21443769  0.02818467  0.30852108  1
  O  O46  1  0.82260325  0.79037481  0.30504021  1
  O  O47  1  0.96997954  0.17832536  0.30496120  1
  O  O48  1  0.21153157  0.18632225  0.80562521  1
  O  O49  1  0.97632692  0.79357476  0.80313928  1
  O  O50  1  0.82150449  0.02150134  0.80146469  1
  O  O51  1  0.78688597  0.97172824  0.69297011  1
  O  O52  1  0.17619469  0.20346874  0.69738392  1
  O  O53  1  0.02655597  0.82124595  0.69538277  1
  O  O54  1  0.79138608  0.82431024  0.19697268  1
  O  O55  1  0.03177401  0.20908573  0.19683511  1
  O  O56  1  0.17357330  0.96958743  0.19947550  1
  O  O57  1  0.88522947  0.36277696  0.64322200  1
  O  O58  1  0.48958865  0.11745373  0.64325173  1
  O  O59  1  0.64297737  0.52639905  0.64302522  1
  O  O60  1  0.88269129  0.52610547  0.14326793  1
  O  O61  1  0.64586938  0.11995587  0.14370563  1
  O  O62  1  0.47731934  0.35297057  0.14103408  1
  O  O63  1  0.45788811  0.31124098  0.02915736  1
  O  O64  1  0.84840722  0.53690312  0.03264529  1
  O  O65  1  0.68657281  0.15176438  0.03290844  1
  O  O66  1  0.46813234  0.15562807  0.52585479  1
  O  O67  1  0.69122533  0.53818104  0.53234946  1
  O  O68  1  0.84157434  0.30869204  0.53300118  1
  O  O69  1  0.53150567  0.69310083  0.97198133  1
  O  O70  1  0.16571439  0.46920531  0.97006873  1
  O  O71  1  0.30775322  0.84639297  0.96936291  1
  O  O72  1  0.53860494  0.85225792  0.47217574  1
  O  O73  1  0.31497185  0.46342548  0.46901773  1
  O  O74  1  0.15538890  0.68896560  0.46816804  1
  O  O75  1  0.12378425  0.64358654  0.35965227  1
  O  O76  1  0.51316862  0.87272271  0.36304639  1
  O  O77  1  0.35393661  0.47641335  0.35992428  1
  O  O78  1  0.12060446  0.48352303  0.85517052  1
  O  O79  1  0.35886091  0.88083153  0.85947157  1
  O  O80  1  0.51372467  0.63686242  0.85686748  1
  O  O81  1  0.03074498  0.83376873  0.41139824  1
  O  O82  1  0.80645941  0.97898076  0.41211287  1
  O  O83  1  0.17627228  0.18784894  0.41205279  1
  O  O84  1  0.03317422  0.19106533  0.90983151  1
  O  O85  1  0.17775426  0.98439915  0.90990224  1
  O  O86  1  0.81600372  0.82932338  0.91141380  1
  O  O87  1  0.96590642  0.16720104  0.58960846  1
  O  O88  1  0.18635459  0.02000539  0.58738345  1
  O  O89  1  0.82054236  0.81024310  0.58927891  1
  O  O90  1  0.97788996  0.80688824  0.08983547  1
  O  O91  1  0.82700103  0.02106045  0.08968218  1
  O  O92  1  0.19366624  0.17096877  0.08943659  1
  O  O93  1  0.69087346  0.16356988  0.74603414  1
  O  O94  1  0.47367900  0.31605459  0.74450897  1
  O  O95  1  0.84122280  0.52685007  0.74407717  1
  O  O96  1  0.68313759  0.52601069  0.24384972  1
  O  O97  1  0.84346867  0.31772702  0.24448523  1
  O  O98  1  0.47314342  0.15743814  0.24489503  1
  O  O99  1  0.63056326  0.48642374  0.92270687  1
  O  O100  1  0.84825244  0.34832245  0.92211456  1
  O  O101  1  0.49064306  0.14110418  0.92272857  1
  O  O102  1  0.63728252  0.13643227  0.42174534  1
  O  O103  1  0.49494048  0.35291838  0.42055051  1
  O  O104  1  0.86214909  0.50749266  0.42164787  1
  O  O105  1  0.35257356  0.49240050  0.07981084  1
  O  O106  1  0.14021168  0.64876983  0.07896194  1
  O  O107  1  0.50598821  0.86116094  0.07986375  1
  O  O108  1  0.35944336  0.85125252  0.57601522  1
  O  O109  1  0.50761556  0.64913315  0.57786708  1
  O  O110  1  0.13898408  0.48796255  0.57708738  1
  O  O111  1  0.31016634  0.83642953  0.25645020  1
  O  O112  1  0.52895800  0.69194573  0.25698014  1
  O  O113  1  0.16324905  0.47209496  0.25653660  1
  O  O114  1  0.30853563  0.47390694  0.75307763  1
  O  O115  1  0.16455051  0.69252423  0.75282787  1
  O  O116  1  0.52652478  0.84006486  0.75413954  1
