# generated using pymatgen
data_Na6Ti4In4Si5S7O48
_symmetry_space_group_name_H-M   'P 1'
_cell_length_a   17.82603785
_cell_length_b   8.89146321
_cell_length_c   22.80905236
_cell_angle_alpha   90.07159025
_cell_angle_beta   89.83895881
_cell_angle_gamma   120.00458862
_symmetry_Int_Tables_number   1
_chemical_formula_structural   Na6Ti4In4Si5S7O48
_chemical_formula_sum   'Na18 Ti12 In12 Si15 S21 O144'
_cell_volume   3130.71928710
_cell_formula_units_Z   3
loop_
 _symmetry_equiv_pos_site_id
 _symmetry_equiv_pos_as_xyz
  1  'x, y, z'
loop_
 _atom_site_type_symbol
 _atom_site_label
 _atom_site_symmetry_multiplicity
 _atom_site_fract_x
 _atom_site_fract_y
 _atom_site_fract_z
 _atom_site_occupancy
  Na  Na0  1  0.99869874  0.62929445  0.25508404  1
  Na  Na1  1  0.49955331  0.63157814  0.24982430  1
  Na  Na2  1  0.00054890  0.37406800  0.74813596  1
  Na  Na3  1  0.49860753  0.36239988  0.75323469  1
  Na  Na4  1  0.66472227  0.30182969  0.91665528  1
  Na  Na5  1  0.16606922  0.02151089  0.42723255  1
  Na  Na6  1  0.00066075  0.99736570  0.50575875  1
  Na  Na7  1  0.49954833  0.98739156  0.50092306  1
  Na  Na8  1  0.00148661  0.00896476  0.99494526  1
  Na  Na9  1  0.50190504  0.00567149  0.00248087  1
  Na  Na10  1  0.33010280  0.32376650  0.83705272  1
  Na  Na11  1  0.82739151  0.32651914  0.82384881  1
  Na  Na12  1  0.33781975  0.34397639  0.32987700  1
  Na  Na13  1  0.82683397  0.33338421  0.34062859  1
  Na  Na14  1  0.18262569  0.66330678  0.16497268  1
  Na  Na15  1  0.67252714  0.66089359  0.16263696  1
  Na  Na16  1  0.17463209  0.68672376  0.66433938  1
  Na  Na17  1  0.67984916  0.68546883  0.67078937  1
  Ti  Ti18  1  0.49820684  0.01617765  0.35123901  1
  Ti  Ti19  1  0.99833687  0.98046091  0.85035745  1
  Ti  Ti20  1  0.99840917  0.98279379  0.64969947  1
  Ti  Ti21  1  0.51091209  0.00297193  0.64143477  1
  Ti  Ti22  1  0.00320073  0.01677038  0.13771144  1
  Ti  Ti23  1  0.49754937  0.01328760  0.14891189  1
  Ti  Ti24  1  0.32578637  0.31784055  0.97822348  1
  Ti  Ti25  1  0.82599960  0.33564268  0.47915146  1
  Ti  Ti26  1  0.16418335  0.66616686  0.01660159  1
  Ti  Ti27  1  0.66377564  0.65112753  0.02324878  1
  Ti  Ti28  1  0.16310943  0.67510854  0.52585030  1
  Ti  Ti29  1  0.66312753  0.65808419  0.51894093  1
  In  In30  1  0.99544703  0.99091058  0.35598429  1
  In  In31  1  0.49904093  0.00661501  0.85367142  1
  In  In32  1  0.32384630  0.33364150  0.67771508  1
  In  In33  1  0.82672503  0.31585582  0.68860879  1
  In  In34  1  0.33256887  0.34521438  0.18535449  1
  In  In35  1  0.82141515  0.31511082  0.17720409  1
  In  In36  1  0.83052682  0.31829332  0.98834310  1
  In  In37  1  0.33216934  0.34736605  0.49148537  1
  In  In38  1  0.16964396  0.66693081  0.31619999  1
  In  In39  1  0.66746674  0.65090611  0.31599617  1
  In  In40  1  0.16932705  0.68615579  0.81495134  1
  In  In41  1  0.66678559  0.65782485  0.81159614  1
  Si  Si42  1  0.35623633  0.72049364  0.25154288  1
  Si  Si43  1  0.49955931  0.29425681  0.24879351  1
  Si  Si44  1  0.64391511  0.28659297  0.75010917  1
  Si  Si45  1  0.00207508  0.70702897  0.74844211  1
  Si  Si46  1  0.85756745  0.99383847  0.75148411  1
  Si  Si47  1  0.17975292  0.03748609  0.58234357  1
  Si  Si48  1  0.69131086  0.03804648  0.58139599  1
  Si  Si49  1  0.33416643  0.64310765  0.58362120  1
  Si  Si50  1  0.82997570  0.02816280  0.08279071  1
  Si  Si51  1  0.19115378  0.34487442  0.08205862  1
  Si  Si52  1  0.67958737  0.32472925  0.08207040  1
  Si  Si53  1  0.51788651  0.37895433  0.91757807  1
  Si  Si54  1  0.16240881  0.95813054  0.91797152  1
  Si  Si55  1  0.66333144  0.36794816  0.41754445  1
  Si  Si56  1  0.01945273  0.65565642  0.41652844  1
  S  S57  1  0.14280589  0.00126999  0.24873718  1
  S  S58  1  0.64407004  0.00451111  0.25248924  1
  S  S59  1  0.85652365  0.70946641  0.24619401  1
  S  S60  1  0.99718686  0.28574712  0.24779465  1
  S  S61  1  0.14398304  0.28357826  0.75261528  1
  S  S62  1  0.49545364  0.70726207  0.74803335  1
  S  S63  1  0.35452675  0.00239439  0.74653856  1
  S  S64  1  0.48548049  0.33504882  0.58407129  1
  S  S65  1  0.97851673  0.33124542  0.58170638  1
  S  S66  1  0.83167169  0.62659810  0.58099166  1
  S  S67  1  0.48048162  0.62956487  0.08153477  1
  S  S68  1  0.98579840  0.63531589  0.08550984  1
  S  S69  1  0.33121230  0.03706663  0.08163064  1
  S  S70  1  0.31029841  0.66155886  0.91774939  1
  S  S71  1  0.81536353  0.66793467  0.91942364  1
  S  S72  1  0.01953163  0.37400903  0.91696777  1
  S  S73  1  0.66720394  0.95476252  0.91749987  1
  S  S74  1  0.31583457  0.96463094  0.41891079  1
  S  S75  1  0.80942542  0.95873787  0.41802282  1
  S  S76  1  0.16816447  0.37370827  0.41713585  1
  S  S77  1  0.51881794  0.66523762  0.41695878  1
  O  O78  1  0.10639557  0.02283011  0.30512318  1
  O  O79  1  0.60087220  0.02106299  0.30587971  1
  O  O80  1  0.41907743  0.82293622  0.30911404  1
  O  O81  1  0.90600893  0.78224552  0.30179037  1
  O  O82  1  0.49424938  0.17866235  0.30749363  1
  O  O83  1  0.98738079  0.18824856  0.30251361  1
  O  O84  1  0.10095448  0.18073095  0.80614098  1
  O  O85  1  0.60715992  0.18921101  0.81317871  1
  O  O86  1  0.48090500  0.77807380  0.80281198  1
  O  O87  1  0.99645359  0.81206870  0.80745075  1
  O  O88  1  0.40139762  0.02466674  0.80281329  1
  O  O89  1  0.92026462  0.01356000  0.80939745  1
  O  O90  1  0.40003113  0.98899387  0.69530257  1
  O  O91  1  0.91123220  0.98127127  0.69321518  1
  O  O92  1  0.09287992  0.20380480  0.69870044  1
  O  O93  1  0.57815818  0.16947569  0.69529268  1
  O  O94  1  0.01447649  0.83268779  0.69153273  1
  O  O95  1  0.50045104  0.80886862  0.69557147  1
  O  O96  1  0.40943569  0.83645409  0.19297589  1
  O  O97  1  0.90451046  0.81618201  0.19534341  1
  O  O98  1  0.00398761  0.19223218  0.19583223  1
  O  O99  1  0.51191337  0.19419720  0.19174899  1
  O  O100  1  0.08659643  0.98418619  0.19857579  1
  O  O101  1  0.59305748  0.98190561  0.19858925  1
  O  O102  1  0.44899364  0.36552297  0.63822412  1
  O  O103  1  0.94848855  0.37093840  0.63717759  1
  O  O104  1  0.24285334  0.10693956  0.63825171  1
  O  O105  1  0.74766211  0.10082637  0.63949508  1
  O  O106  1  0.30839628  0.52205869  0.64136216  1
  O  O107  1  0.81576719  0.52431019  0.63405259  1
  O  O108  1  0.45114104  0.53041468  0.13800045  1
  O  O109  1  0.94939531  0.53254738  0.14004989  1
  O  O110  1  0.31498623  0.10741419  0.13563179  1
  O  O111  1  0.81210232  0.09810606  0.14346552  1
  O  O112  1  0.24304323  0.38240912  0.14245703  1
  O  O113  1  0.74160682  0.38287207  0.13906996  1
  O  O114  1  0.23905116  0.30841224  0.02757679  1
  O  O115  1  0.71754296  0.29405915  0.02115289  1
  O  O116  1  0.42227147  0.53497354  0.03277471  1
  O  O117  1  0.93073521  0.55975226  0.03385620  1
  O  O118  1  0.34530535  0.14815120  0.02992894  1
  O  O119  1  0.86438107  0.15748463  0.02740667  1
  O  O120  1  0.21766989  0.13950785  0.52028633  1
  O  O121  1  0.74067731  0.17112809  0.52621751  1
  O  O122  1  0.36462288  0.57907603  0.52620752  1
  O  O123  1  0.84574222  0.54432937  0.52832331  1
  O  O124  1  0.43155617  0.30587080  0.53170716  1
  O  O125  1  0.92249025  0.31140209  0.53148432  1
  O  O126  1  0.26428467  0.68499384  0.96865816  1
  O  O127  1  0.77397898  0.69135570  0.97213221  1
  O  O128  1  0.07629080  0.46877598  0.96885869  1
  O  O129  1  0.58890629  0.49174450  0.96972034  1
  O  O130  1  0.15288342  0.82787123  0.97386085  1
  O  O131  1  0.66467418  0.85828093  0.97014484  1
  O  O132  1  0.27356936  0.85603640  0.47062022  1
  O  O133  1  0.76411103  0.84349991  0.46795142  1
  O  O134  1  0.16202136  0.46369740  0.46883760  1
  O  O135  1  0.65199242  0.47592325  0.47286285  1
  O  O136  1  0.09103506  0.68895074  0.46775566  1
  O  O137  1  0.57495677  0.68254607  0.46786841  1
  O  O138  1  0.05427385  0.62943169  0.35217451  1
  O  O139  1  0.55701732  0.64622529  0.36073929  1
  O  O140  1  0.26163848  0.89359391  0.36511267  1
  O  O141  1  0.76232071  0.89046356  0.36192709  1
  O  O142  1  0.17891209  0.46701418  0.36144055  1
  O  O143  1  0.69231494  0.48474546  0.35900421  1
  O  O144  1  0.05897150  0.47050093  0.86181228  1
  O  O145  1  0.55155331  0.47891571  0.85503947  1
  O  O146  1  0.19131620  0.89679900  0.86047285  1
  O  O147  1  0.67684476  0.87865072  0.86269776  1
  O  O148  1  0.26098828  0.63133310  0.86279687  1
  O  O149  1  0.76147170  0.63267513  0.86646961  1
  O  O150  1  0.01628685  0.83970791  0.41617519  1
  O  O151  1  0.51124244  0.82285670  0.41459758  1
  O  O152  1  0.40162046  0.97638745  0.41177197  1
  O  O153  1  0.89730627  0.97561729  0.41570814  1
  O  O154  1  0.08717354  0.19759214  0.41484709  1
  O  O155  1  0.57727449  0.17479219  0.41031566  1
  O  O156  1  0.01179365  0.20138120  0.91531054  1
  O  O157  1  0.51234079  0.18817340  0.91978678  1
  O  O158  1  0.07692601  0.97914290  0.91238475  1
  O  O159  1  0.58622362  0.96767522  0.91742675  1
  O  O160  1  0.39704311  0.81996228  0.91509694  1
  O  O161  1  0.90175977  0.82769933  0.91303313  1
  O  O162  1  0.49728256  0.18287810  0.58926549  1
  O  O163  1  0.98712678  0.17460213  0.58677370  1
  O  O164  1  0.08465437  0.02166682  0.59207550  1
  O  O165  1  0.59352862  0.01746176  0.58900082  1
  O  O166  1  0.41754582  0.83806437  0.59666916  1
  O  O167  1  0.91030051  0.80289425  0.58602334  1
  O  O168  1  0.48802931  0.80230156  0.08750732  1
  O  O169  1  0.99828344  0.81341680  0.09304674  1
  O  O170  1  0.40980105  0.01865196  0.08727134  1
  O  O171  1  0.91689628  0.00170367  0.09543933  1
  O  O172  1  0.09164058  0.16791590  0.09145333  1
  O  O173  1  0.58456528  0.14904037  0.09339612  1
  O  O174  1  0.34721114  0.16423701  0.74385751  1
  O  O175  1  0.85980403  0.17737673  0.75066105  1
  O  O176  1  0.23148635  0.30268806  0.75081675  1
  O  O177  1  0.73954305  0.31537141  0.74667173  1
  O  O178  1  0.42047869  0.52330783  0.74372741  1
  O  O179  1  0.91679189  0.52093699  0.74526629  1
  O  O180  1  0.35370575  0.53463326  0.25089171  1
  O  O181  1  0.84925797  0.53370695  0.24322570  1
  O  O182  1  0.41191942  0.30536784  0.24575917  1
  O  O183  1  0.92110531  0.31302011  0.24410356  1
  O  O184  1  0.23077459  0.15050472  0.24481372  1
  O  O185  1  0.73184272  0.16127455  0.25081599  1
  O  O186  1  0.32084154  0.50783728  0.92622391  1
  O  O187  1  0.82676769  0.51261401  0.92494224  1
  O  O188  1  0.42221716  0.35759889  0.93234782  1
  O  O189  1  0.93463221  0.36505814  0.92281352  1
  O  O190  1  0.24896420  0.15201117  0.93014496  1
  O  O191  1  0.74312359  0.13869714  0.91846056  1
  O  O192  1  0.32724643  0.14225341  0.42446598  1
  O  O193  1  0.82102237  0.13457022  0.42536617  1
  O  O194  1  0.24340724  0.34240220  0.41879313  1
  O  O195  1  0.74944329  0.34624309  0.42947058  1
  O  O196  1  0.43283598  0.50425929  0.42171809  1
  O  O197  1  0.92343859  0.48802725  0.42939467  1
  O  O198  1  0.17324001  0.50645264  0.06740692  1
  O  O199  1  0.66517106  0.49447304  0.07338364  1
  O  O200  1  0.07291445  0.65221376  0.07723934  1
  O  O201  1  0.56930110  0.65520592  0.07222486  1
  O  O202  1  0.25448230  0.85865184  0.07284683  1
  O  O203  1  0.74627763  0.83763632  0.07062077  1
  O  O204  1  0.16513778  0.83768531  0.57372626  1
  O  O205  1  0.67348642  0.84073533  0.56432260  1
  O  O206  1  0.24649948  0.65668669  0.56894561  1
  O  O207  1  0.75487754  0.65122873  0.57146315  1
  O  O208  1  0.06837035  0.48445592  0.57212976  1
  O  O209  1  0.57270817  0.49549930  0.57611106  1
  O  O210  1  0.14532294  0.83550601  0.24984318  1
  O  O211  1  0.65140828  0.84407974  0.25655133  1
  O  O212  1  0.26081819  0.70334177  0.25350092  1
  O  O213  1  0.77110411  0.69799577  0.24886738  1
  O  O214  1  0.07679940  0.46031402  0.24829670  1
  O  O215  1  0.58330593  0.49076235  0.25031225  1
  O  O216  1  0.15086040  0.45811190  0.75680979  1
  O  O217  1  0.64081595  0.46779556  0.74634194  1
  O  O218  1  0.08684233  0.68220303  0.74977203  1
  O  O219  1  0.57598164  0.69765408  0.74957741  1
  O  O220  1  0.26794681  0.84286615  0.74881957  1
  O  O221  1  0.76262248  0.82478045  0.75389322  1
