# generated using pymatgen
data_NaGaSiGe(SO6)2
_symmetry_space_group_name_H-M   'P 1'
_cell_length_a   8.50238553
_cell_length_b   8.51192994
_cell_length_c   22.18624851
_cell_angle_alpha   90.16004894
_cell_angle_beta   90.00000000
_cell_angle_gamma   119.96291466
_symmetry_Int_Tables_number   1
_chemical_formula_structural   NaGaSiGe(SO6)2
_chemical_formula_sum   'Na6 Ga6 Si6 Ge6 S12 O72'
_cell_volume   1391.05164563
_cell_formula_units_Z   6
loop_
 _symmetry_equiv_pos_site_id
 _symmetry_equiv_pos_as_xyz
  1  'x, y, z'
loop_
 _atom_site_type_symbol
 _atom_site_label
 _atom_site_symmetry_multiplicity
 _atom_site_fract_x
 _atom_site_fract_y
 _atom_site_fract_z
 _atom_site_occupancy
  Na  Na0  1  0.01617635  0.00859610  0.50227594  1
  Na  Na1  1  0.99241976  0.00859610  0.00227594  1
  Na  Na2  1  0.68148419  0.33176806  0.83478132  1
  Na  Na3  1  0.65028487  0.33176806  0.33478132  1
  Na  Na4  1  0.33684522  0.68150359  0.16854023  1
  Na  Na5  1  0.34465736  0.68150359  0.66854023  1
  Ga  Ga6  1  0.99532522  0.99268749  0.64759009  1
  Ga  Ga7  1  0.99736227  0.99268749  0.14759009  1
  Ga  Ga8  1  0.69146985  0.32385249  0.97947474  1
  Ga  Ga9  1  0.63238364  0.32385249  0.47947474  1
  Ga  Ga10  1  0.33746808  0.67284923  0.31312589  1
  Ga  Ga11  1  0.33538015  0.67284923  0.81312589  1
  Si  Si12  1  0.28567829  0.99424709  0.24816452  1
  Si  Si13  1  0.70856879  0.99424709  0.74816452  1
  Si  Si14  1  0.36593718  0.03306355  0.58191884  1
  Si  Si15  1  0.66712737  0.03306355  0.08191884  1
  Si  Si16  1  0.05622836  0.39008506  0.91525164  1
  Si  Si17  1  0.33385570  0.39008506  0.41525164  1
  Ge  Ge18  1  0.02868150  0.02401771  0.35380866  1
  Ge  Ge19  1  0.99533621  0.02401771  0.85380866  1
  Ge  Ge20  1  0.65834395  0.30008718  0.68494976  1
  Ge  Ge21  1  0.64174423  0.30008718  0.18494976  1
  Ge  Ge22  1  0.33719881  0.66655523  0.01853735  1
  Ge  Ge23  1  0.32935542  0.66655523  0.51853735  1
  S  S24  1  0.71530713  0.70866261  0.25007959  1
  S  S25  1  0.99602119  0.28927157  0.24919504  1
  S  S26  1  0.29325038  0.28927157  0.74919504  1
  S  S27  1  0.99335548  0.70866261  0.75007959  1
  S  S28  1  0.95282878  0.33641314  0.58168922  1
  S  S29  1  0.66428308  0.61598046  0.58423653  1
  S  S30  1  0.95169838  0.61598046  0.08423653  1
  S  S31  1  0.38358536  0.33641314  0.08168922  1
  S  S32  1  0.62790980  0.66621143  0.91675784  1
  S  S33  1  0.32735158  0.95865419  0.91551521  1
  S  S34  1  0.63130161  0.95865419  0.41551521  1
  S  S35  1  0.03830063  0.66621143  0.41675784  1
  O  O36  1  0.20681124  0.04073225  0.31000329  1
  O  O37  1  0.82529557  0.79170731  0.30587574  1
  O  O38  1  0.95409055  0.17351670  0.30516864  1
  O  O39  1  0.21942615  0.17351670  0.80516864  1
  O  O40  1  0.96641174  0.79170731  0.80587574  1
  O  O41  1  0.83392101  0.04073225  0.81000329  1
  O  O42  1  0.79714928  0.96503907  0.68877708  1
  O  O43  1  0.18465506  0.20683076  0.69533570  1
  O  O44  1  0.02881564  0.81872497  0.69566471  1
  O  O45  1  0.78990932  0.81872497  0.19566471  1
  O  O46  1  0.02217570  0.20683076  0.19533570  1
  O  O47  1  0.16788979  0.96503907  0.18877708  1
  O  O48  1  0.87805852  0.37514889  0.63862535  1
  O  O49  1  0.49506452  0.11382127  0.64288198  1
  O  O50  1  0.63614040  0.50487157  0.63961312  1
  O  O51  1  0.86873217  0.50487157  0.13961312  1
  O  O52  1  0.61875775  0.11382127  0.14288198  1
  O  O53  1  0.49709137  0.37514889  0.13862535  1
  O  O54  1  0.47020619  0.31566503  0.02776601  1
  O  O55  1  0.84148665  0.54039629  0.02924878  1
  O  O56  1  0.70277666  0.15337487  0.02322371  1
  O  O57  1  0.45059921  0.15337487  0.52322371  1
  O  O58  1  0.69891064  0.54039629  0.52924878  1
  O  O59  1  0.84545984  0.31566503  0.52776601  1
  O  O60  1  0.55475074  0.71212447  0.97190201  1
  O  O61  1  0.17912312  0.47502803  0.97773387  1
  O  O62  1  0.29571768  0.84779817  0.97119185  1
  O  O63  1  0.55207948  0.84779817  0.47119185  1
  O  O64  1  0.29590391  0.47502803  0.47773387  1
  O  O65  1  0.15737273  0.71212447  0.47190201  1
  O  O66  1  0.11782350  0.63994864  0.36221771  1
  O  O67  1  0.51699743  0.88590388  0.36194012  1
  O  O68  1  0.35937798  0.50564109  0.35626735  1
  O  O69  1  0.14626211  0.50564109  0.85626735  1
  O  O70  1  0.36890544  0.88590388  0.86194012  1
  O  O71  1  0.52212414  0.63994864  0.86221771  1
  O  O72  1  0.01269275  0.82847424  0.41139132  1
  O  O73  1  0.80822730  0.96189323  0.40811225  1
  O  O74  1  0.14587412  0.18605373  0.41251719  1
  O  O75  1  0.04017961  0.18605373  0.91251719  1
  O  O76  1  0.15366593  0.96189323  0.90811225  1
  O  O77  1  0.81578149  0.82847424  0.91139132  1
  O  O78  1  0.96905504  0.17353083  0.58777185  1
  O  O79  1  0.16860811  0.01185135  0.59239247  1
  O  O80  1  0.82323266  0.79903293  0.58865159  1
  O  O81  1  0.97580027  0.79903293  0.08865159  1
  O  O82  1  0.84324324  0.01185135  0.09239247  1
  O  O83  1  0.20447580  0.17353083  0.08777185  1
  O  O84  1  0.70010042  0.18577799  0.74438639  1
  O  O85  1  0.48031270  0.31364003  0.74413217  1
  O  O86  1  0.82324995  0.52897954  0.74337401  1
  O  O87  1  0.70573059  0.52897954  0.24337401  1
  O  O88  1  0.83332833  0.31364003  0.24413217  1
  O  O89  1  0.48567857  0.18577799  0.24438639  1
  O  O90  1  0.63675094  0.50016657  0.92628484  1
  O  O91  1  0.85567271  0.36728173  0.91899093  1
  O  O92  1  0.48103557  0.14509514  0.92331285  1
  O  O93  1  0.66406057  0.14509514  0.42331285  1
  O  O94  1  0.51161002  0.36728173  0.41899093  1
  O  O95  1  0.86341662  0.50016657  0.42628484  1
  O  O96  1  0.36498716  0.50217272  0.07912087  1
  O  O97  1  0.13335113  0.62900909  0.07925282  1
  O  O98  1  0.47808529  0.83316922  0.07217115  1
  O  O99  1  0.35508292  0.83316922  0.57217115  1
  O  O100  1  0.49565696  0.62900909  0.57925282  1
  O  O101  1  0.13718456  0.50217272  0.57912087  1
  O  O102  1  0.31303550  0.82094023  0.25761926  1
  O  O103  1  0.53176773  0.68503566  0.25524690  1
  O  O104  1  0.15961993  0.46711638  0.25594170  1
  O  O105  1  0.30749545  0.46711638  0.75594170  1
  O  O106  1  0.15326693  0.68503566  0.75524690  1
  O  O107  1  0.50790372  0.82094023  0.75761926  1
