# generated using pymatgen
data_Na3Co(NO2)6
_symmetry_space_group_name_H-M   'P 1'
_cell_length_a   6.79897123
_cell_length_b   6.79897123
_cell_length_c   6.79897123
_cell_angle_alpha   71.51115622
_cell_angle_beta   71.51115623
_cell_angle_gamma   71.51115627
_symmetry_Int_Tables_number   1
_chemical_formula_structural   Na3Co(NO2)6
_chemical_formula_sum   'Na3 Co1 N6 O12'
_cell_volume   274.36703007
_cell_formula_units_Z   1
loop_
 _symmetry_equiv_pos_site_id
 _symmetry_equiv_pos_as_xyz
  1  'x, y, z'
loop_
 _atom_site_type_symbol
 _atom_site_label
 _atom_site_symmetry_multiplicity
 _atom_site_fract_x
 _atom_site_fract_y
 _atom_site_fract_z
 _atom_site_occupancy
  N  N0  1  0.80606989  0.17154791  0.80606891  1
  N  N1  1  0.80606967  0.80606943  0.17154829  1
  N  N2  1  0.17154832  0.80606943  0.80606893  1
  N  N3  1  0.82845167  0.19393016  0.19393080  1
  N  N4  1  0.19393011  0.82845168  0.19393081  1
  N  N5  1  0.19393033  0.19393016  0.82845143  1
  O  O6  1  0.72410402  0.72410256  0.08799803  1
  O  O7  1  0.08799694  0.72410256  0.72410355  1
  O  O8  1  0.91200306  0.27589703  0.27589617  1
  O  O9  1  0.72410278  0.08799748  0.72410331  1
  O  O10  1  0.23455775  0.62872269  0.23455816  1
  O  O11  1  0.27589597  0.27589703  0.91200316  1
  O  O12  1  0.62872301  0.23455897  0.23455766  1
  O  O13  1  0.37127815  0.76544222  0.76544118  1
  O  O14  1  0.76544225  0.37127690  0.76544157  1
  O  O15  1  0.76544194  0.76544221  0.37127669  1
  O  O16  1  0.27589722  0.91200211  0.27589641  1
  O  O17  1  0.23455767  0.23455897  0.62872265  1
  Na  Na18  1  0.73587986  0.73587977  0.73587978  1
  Na  Na19  1  0.26412014  0.26411983  0.26412141  1
  Na  Na20  1  0.50000077  0.49999980  0.49999961  1
  Co  Co21  1  0.00000000  0.00000000  0.00000000  1
