# generated using pymatgen
data_NaNb3GaSiP5O24
_symmetry_space_group_name_H-M   'P 1'
_cell_length_a   8.74113710
_cell_length_b   8.74397732
_cell_length_c   22.68780742
_cell_angle_alpha   89.75352298
_cell_angle_beta   90.12394467
_cell_angle_gamma   120.01944366
_symmetry_Int_Tables_number   1
_chemical_formula_structural   NaNb3GaSiP5O24
_chemical_formula_sum   'Na3 Nb9 Ga3 Si3 P15 O72'
_cell_volume   1501.45033451
_cell_formula_units_Z   3
loop_
 _symmetry_equiv_pos_site_id
 _symmetry_equiv_pos_as_xyz
  1  'x, y, z'
loop_
 _atom_site_type_symbol
 _atom_site_label
 _atom_site_symmetry_multiplicity
 _atom_site_fract_x
 _atom_site_fract_y
 _atom_site_fract_z
 _atom_site_occupancy
  Na  Na0  1  0.00108630  0.00026958  0.99243837  1
  Na  Na1  1  0.66492444  0.33228447  0.83985785  1
  Na  Na2  1  0.66696660  0.33351219  0.33867985  1
  Nb  Nb3  1  0.99363300  0.99776623  0.36044256  1
  Nb  Nb4  1  0.00366732  0.00535107  0.64332358  1
  Nb  Nb5  1  0.99728398  0.00197870  0.14380303  1
  Nb  Nb6  1  0.66470213  0.33393064  0.69009663  1
  Nb  Nb7  1  0.66845126  0.33565085  0.18826684  1
  Nb  Nb8  1  0.33365601  0.66667859  0.02032631  1
  Nb  Nb9  1  0.33298248  0.66594094  0.52463579  1
  Nb  Nb10  1  0.33283548  0.66488162  0.30949624  1
  Nb  Nb11  1  0.33333108  0.66478456  0.81071007  1
  Ga  Ga12  1  0.00366087  0.00106502  0.85502656  1
  Ga  Ga13  1  0.66600906  0.33321316  0.97781531  1
  Ga  Ga14  1  0.66704857  0.33437314  0.48005221  1
  Si  Si15  1  0.71712322  0.71539321  0.25108425  1
  Si  Si16  1  0.99787003  0.28235208  0.25070029  1
  Si  Si17  1  0.27896178  0.27880941  0.75375459  1
  P  P18  1  0.28271584  0.00149738  0.25101264  1
  P  P19  1  0.99920459  0.71966443  0.75250020  1
  P  P20  1  0.72042852  0.00070308  0.75230694  1
  P  P21  1  0.94456174  0.33109983  0.58072426  1
  P  P22  1  0.38577761  0.05384117  0.58078590  1
  P  P23  1  0.67007379  0.61550731  0.58064010  1
  P  P24  1  0.94977694  0.61703920  0.07962585  1
  P  P25  1  0.66626979  0.05119329  0.07988169  1
  P  P26  1  0.38397194  0.33210086  0.07960836  1
  P  P27  1  0.62915324  0.66762402  0.91626801  1
  P  P28  1  0.03750782  0.37202276  0.91672908  1
  P  P29  1  0.33359453  0.96168447  0.91635861  1
  P  P30  1  0.61544454  0.96040212  0.41818301  1
  P  P31  1  0.34300532  0.38234629  0.41807487  1
  P  P32  1  0.04061145  0.65764564  0.41798436  1
  O  O33  1  0.20219175  0.03444726  0.30597585  1
  O  O34  1  0.83992289  0.80261072  0.30885080  1
  O  O35  1  0.96795812  0.16098744  0.30851921  1
  O  O36  1  0.20219464  0.15859607  0.81053080  1
  O  O37  1  0.95591489  0.78926933  0.80690453  1
  O  O38  1  0.83172210  0.03733973  0.80696898  1
  O  O39  1  0.80040520  0.97136667  0.69537281  1
  O  O40  1  0.16572157  0.19297692  0.69273394  1
  O  O41  1  0.02488919  0.82843596  0.69549277  1
  O  O42  1  0.80668041  0.83317040  0.19196518  1
  O  O43  1  0.03207754  0.19752902  0.19171637  1
  O  O44  1  0.17248655  0.97132958  0.19454222  1
  O  O45  1  0.86636034  0.36363755  0.63700542  1
  O  O46  1  0.49890377  0.13482989  0.63699336  1
  O  O47  1  0.63627624  0.50037582  0.63680347  1
  O  O48  1  0.86511782  0.50531536  0.13686575  1
  O  O49  1  0.64032085  0.13330246  0.13694693  1
  O  O50  1  0.49346377  0.35903225  0.13681063  1
  O  O51  1  0.46480961  0.29832341  0.02611480  1
  O  O52  1  0.83371702  0.53688486  0.02628138  1
  O  O53  1  0.70301496  0.16672776  0.02610740  1
  O  O54  1  0.46231035  0.16485396  0.52627878  1
  O  O55  1  0.70164002  0.53722140  0.52637880  1
  O  O56  1  0.83506443  0.29878448  0.52605452  1
  O  O57  1  0.53292559  0.69110091  0.97137572  1
  O  O58  1  0.15890002  0.46913538  0.97162883  1
  O  O59  1  0.31201763  0.84124968  0.97173848  1
  O  O60  1  0.52976010  0.84066581  0.47277943  1
  O  O61  1  0.31014225  0.46918351  0.47233224  1
  O  O62  1  0.15955429  0.68838643  0.47264558  1
  O  O63  1  0.13154048  0.63559711  0.36289346  1
  O  O64  1  0.50410954  0.87043054  0.36280333  1
  O  O65  1  0.36545179  0.49781311  0.36282676  1
  O  O66  1  0.13346497  0.49263927  0.86219475  1
  O  O67  1  0.35877964  0.86814492  0.86210039  1
  O  O68  1  0.50837874  0.64260749  0.86187602  1
  O  O69  1  0.03138164  0.82919535  0.40965428  1
  O  O70  1  0.79832258  0.97105342  0.41056012  1
  O  O71  1  0.17449102  0.20000526  0.40881691  1
  O  O72  1  0.02623705  0.19243947  0.91268429  1
  O  O73  1  0.16183166  0.96761785  0.91358558  1
  O  O74  1  0.80813712  0.83708743  0.91082991  1
  O  O75  1  0.97015263  0.16961860  0.59154441  1
  O  O76  1  0.19748516  0.02370109  0.59227102  1
  O  O77  1  0.82755397  0.80134093  0.59302061  1
  O  O78  1  0.97701211  0.80538761  0.08940648  1
  O  O79  1  0.83090803  0.02631457  0.08859014  1
  O  O80  1  0.19656298  0.16801611  0.08881837  1
  O  O81  1  0.69641910  0.16509614  0.74102774  1
  O  O82  1  0.47959129  0.30937197  0.74103047  1
  O  O83  1  0.83895685  0.52869945  0.74102670  1
  O  O84  1  0.68809123  0.51751228  0.24231025  1
  O  O85  1  0.82351087  0.30225466  0.24220292  1
  O  O86  1  0.46924072  0.16393398  0.24199001  1
  O  O87  1  0.63832948  0.49807947  0.92256757  1
  O  O88  1  0.85904385  0.36383261  0.92270589  1
  O  O89  1  0.50241157  0.14101578  0.92298459  1
  O  O90  1  0.63993504  0.14433452  0.42391313  1
  O  O91  1  0.50568443  0.36258048  0.42366313  1
  O  O92  1  0.85721144  0.49680091  0.42385601  1
  O  O93  1  0.36158888  0.49609563  0.07294065  1
  O  O94  1  0.13512229  0.63660859  0.07324769  1
  O  O95  1  0.50370431  0.86404456  0.07327107  1
  O  O96  1  0.36275509  0.86588193  0.57321743  1
  O  O97  1  0.50375630  0.63643872  0.57294332  1
  O  O98  1  0.13382797  0.49407791  0.57296742  1
  O  O99  1  0.30429711  0.83879589  0.26034658  1
  O  O100  1  0.52539799  0.69792839  0.26095883  1
  O  O101  1  0.16658350  0.47778036  0.26079127  1
  O  O102  1  0.30799030  0.47815028  0.76048762  1
  O  O103  1  0.16356673  0.69817790  0.75995236  1
  O  O104  1  0.53176133  0.84048608  0.75987734  1
