# generated using pymatgen
data_Na4YMg(PO4)3
_symmetry_space_group_name_H-M   'P 1'
_cell_length_a   9.25180020
_cell_length_b   9.25179987
_cell_length_c   22.64539121
_cell_angle_alpha   90.00000000
_cell_angle_beta   90.00000000
_cell_angle_gamma   120.00000119
_symmetry_Int_Tables_number   1
_chemical_formula_structural   Na4YMg(PO4)3
_chemical_formula_sum   'Na24 Y6 Mg6 P18 O72'
_cell_volume   1678.66072354
_cell_formula_units_Z   6
loop_
 _symmetry_equiv_pos_site_id
 _symmetry_equiv_pos_as_xyz
  1  'x, y, z'
loop_
 _atom_site_type_symbol
 _atom_site_label
 _atom_site_symmetry_multiplicity
 _atom_site_fract_x
 _atom_site_fract_y
 _atom_site_fract_z
 _atom_site_occupancy
  Na  Na0  1  0.63788422  0.00853567  0.24788266  1
  Na  Na1  1  0.37065146  0.36211578  0.24788266  1
  Na  Na2  1  0.99146433  0.62934854  0.24788266  1
  Na  Na3  1  0.63788422  0.62934854  0.74788266  1
  Na  Na4  1  0.99146433  0.36211578  0.74788266  1
  Na  Na5  1  0.37065146  0.00853567  0.74788266  1
  Na  Na6  1  0.30455122  0.34186867  0.58121566  1
  Na  Na7  1  0.03731846  0.69544878  0.58121566  1
  Na  Na8  1  0.65813133  0.96268154  0.58121566  1
  Na  Na9  1  0.30455122  0.96268154  0.08121566  1
  Na  Na10  1  0.65813133  0.69544878  0.08121566  1
  Na  Na11  1  0.03731846  0.34186867  0.08121566  1
  Na  Na12  1  0.97121722  0.67520267  0.91454966  1
  Na  Na13  1  0.70398446  0.02878278  0.91454966  1
  Na  Na14  1  0.32479733  0.29601554  0.91454966  1
  Na  Na15  1  0.97121722  0.29601554  0.41454966  1
  Na  Na16  1  0.32479733  0.02878278  0.41454966  1
  Na  Na17  1  0.70398446  0.67520267  0.41454966  1
  Na  Na18  1  -0.00000000  0.00000000  0.49474358  1
  Na  Na19  1  -0.00000000  0.00000000  0.99474358  1
  Na  Na20  1  0.66666700  0.33333300  0.82807658  1
  Na  Na21  1  0.66666700  0.33333300  0.32807658  1
  Na  Na22  1  0.33333300  0.66666700  0.16141058  1
  Na  Na23  1  0.33333300  0.66666700  0.66141058  1
  Y  Y24  1  -0.00000000  0.00000000  0.65187669  1
  Y  Y25  1  -0.00000000  0.00000000  0.15187669  1
  Y  Y26  1  0.66666700  0.33333300  0.98520969  1
  Y  Y27  1  0.66666700  0.33333300  0.48520969  1
  Y  Y28  1  0.33333300  0.66666700  0.31854369  1
  Y  Y29  1  0.33333300  0.66666700  0.81854369  1
  Mg  Mg30  1  -0.00000000  0.00000000  0.34818036  1
  Mg  Mg31  1  -0.00000000  0.00000000  0.84818036  1
  Mg  Mg32  1  0.66666700  0.33333300  0.68151336  1
  Mg  Mg33  1  0.66666700  0.33333300  0.18151336  1
  Mg  Mg34  1  0.33333300  0.66666700  0.01484736  1
  Mg  Mg35  1  0.33333300  0.66666700  0.51484736  1
  P  P36  1  0.30339478  0.00657940  0.25170547  1
  P  P37  1  0.70318462  0.69660522  0.25170547  1
  P  P38  1  0.99342060  0.29681538  0.25170547  1
  P  P39  1  0.30339478  0.29681538  0.75170547  1
  P  P40  1  0.99342060  0.69660522  0.75170547  1
  P  P41  1  0.70318462  0.00657940  0.75170547  1
  P  P42  1  0.97006178  0.33991240  0.58503847  1
  P  P43  1  0.36985162  0.02993822  0.58503847  1
  P  P44  1  0.66008760  0.63014838  0.58503847  1
  P  P45  1  0.97006178  0.63014838  0.08503847  1
  P  P46  1  0.66008760  0.02993822  0.08503847  1
  P  P47  1  0.36985162  0.33991240  0.08503847  1
  P  P48  1  0.63672778  0.67324640  0.91837247  1
  P  P49  1  0.03651762  0.36327222  0.91837247  1
  P  P50  1  0.32675360  0.96348238  0.91837247  1
  P  P51  1  0.63672778  0.96348238  0.41837247  1
  P  P52  1  0.32675360  0.36327222  0.41837247  1
  P  P53  1  0.03651762  0.67324640  0.41837247  1
  O  O54  1  0.21347161  0.02660484  0.30578715  1
  O  O55  1  0.81313323  0.78652839  0.30578715  1
  O  O56  1  0.97339516  0.18686677  0.30578715  1
  O  O57  1  0.21347161  0.18686677  0.80578715  1
  O  O58  1  0.97339516  0.78652839  0.80578715  1
  O  O59  1  0.81313323  0.02660484  0.80578715  1
  O  O60  1  0.77937787  0.97712824  0.69512731  1
  O  O61  1  0.19775037  0.22062213  0.69512731  1
  O  O62  1  0.02287176  0.80224963  0.69512731  1
  O  O63  1  0.77937787  0.80224963  0.19512731  1
  O  O64  1  0.02287176  0.22062213  0.19512731  1
  O  O65  1  0.19775037  0.97712824  0.19512731  1
  O  O66  1  0.88013861  0.35993784  0.63912015  1
  O  O67  1  0.47980023  0.11986139  0.63912015  1
  O  O68  1  0.64006216  0.52019977  0.63912015  1
  O  O69  1  0.88013861  0.52019977  0.13912015  1
  O  O70  1  0.64006216  0.11986139  0.13912015  1
  O  O71  1  0.47980023  0.35993784  0.13912015  1
  O  O72  1  0.44604487  0.31046124  0.02846031  1
  O  O73  1  0.86441737  0.55395513  0.02846031  1
  O  O74  1  0.68953876  0.13558263  0.02846031  1
  O  O75  1  0.44604487  0.13558263  0.52846031  1
  O  O76  1  0.68953876  0.55395513  0.52846031  1
  O  O77  1  0.86441737  0.31046124  0.52846031  1
  O  O78  1  0.54680461  0.69327184  0.97245415  1
  O  O79  1  0.14646623  0.45319539  0.97245415  1
  O  O80  1  0.30672816  0.85353377  0.97245415  1
  O  O81  1  0.54680461  0.85353377  0.47245415  1
  O  O82  1  0.30672816  0.45319539  0.47245415  1
  O  O83  1  0.14646623  0.69327184  0.47245415  1
  O  O84  1  0.11271087  0.64379524  0.36179431  1
  O  O85  1  0.53108337  0.88728913  0.36179431  1
  O  O86  1  0.35620476  0.46891663  0.36179431  1
  O  O87  1  0.11271087  0.46891663  0.86179431  1
  O  O88  1  0.35620476  0.88728913  0.86179431  1
  O  O89  1  0.53108337  0.64379524  0.86179431  1
  O  O90  1  0.02039582  0.83229993  0.41289690  1
  O  O91  1  0.81190411  0.97960418  0.41289690  1
  O  O92  1  0.16770007  0.18809589  0.41289690  1
  O  O93  1  0.02039582  0.18809589  0.91289690  1
  O  O94  1  0.16770007  0.97960418  0.91289690  1
  O  O95  1  0.81190411  0.83229993  0.91289690  1
  O  O96  1  0.99071399  0.18282293  0.58833363  1
  O  O97  1  0.19210893  0.00928601  0.58833363  1
  O  O98  1  0.81717707  0.80789107  0.58833363  1
  O  O99  1  0.99071399  0.80789107  0.08833363  1
  O  O100  1  0.81717707  0.00928601  0.08833363  1
  O  O101  1  0.19210893  0.18282293  0.08833363  1
  O  O102  1  0.68706282  0.16563293  0.74622990  1
  O  O103  1  0.47857111  0.31293718  0.74622990  1
  O  O104  1  0.83436707  0.52142889  0.74622990  1
  O  O105  1  0.68706282  0.52142889  0.24622990  1
  O  O106  1  0.83436707  0.31293718  0.24622990  1
  O  O107  1  0.47857111  0.16563293  0.24622990  1
  O  O108  1  0.65738099  0.51615593  0.92166663  1
  O  O109  1  0.85877593  0.34261901  0.92166663  1
  O  O110  1  0.48384407  0.14122407  0.92166663  1
  O  O111  1  0.65738099  0.14122407  0.42166663  1
  O  O112  1  0.48384407  0.34261901  0.42166663  1
  O  O113  1  0.85877593  0.51615593  0.42166663  1
  O  O114  1  0.35372882  0.49896693  0.07956390  1
  O  O115  1  0.14523711  0.64627118  0.07956390  1
  O  O116  1  0.50103307  0.85476289  0.07956390  1
  O  O117  1  0.35372882  0.85476289  0.57956390  1
  O  O118  1  0.50103307  0.64627118  0.57956390  1
  O  O119  1  0.14523711  0.49896693  0.57956390  1
  O  O120  1  0.32404699  0.84948993  0.25500063  1
  O  O121  1  0.52544193  0.67595301  0.25500063  1
  O  O122  1  0.15051007  0.47455807  0.25500063  1
  O  O123  1  0.32404699  0.47455807  0.75500063  1
  O  O124  1  0.15051007  0.67595301  0.75500063  1
  O  O125  1  0.52544193  0.84948993  0.75500063  1
