# generated using pymatgen
data_Ba2PbO4
_symmetry_space_group_name_H-M   'P 1'
_cell_length_a   4.33955479
_cell_length_b   4.33955491
_cell_length_c   7.35302762
_cell_angle_alpha   107.16271173
_cell_angle_beta   107.16271119
_cell_angle_gamma   89.99999863
_symmetry_Int_Tables_number   1
_chemical_formula_structural   Ba2PbO4
_chemical_formula_sum   'Ba2 Pb1 O4'
_cell_volume   125.83651068
_cell_formula_units_Z   1
loop_
 _symmetry_equiv_pos_site_id
 _symmetry_equiv_pos_as_xyz
  1  'x, y, z'
loop_
 _atom_site_type_symbol
 _atom_site_label
 _atom_site_symmetry_multiplicity
 _atom_site_fract_x
 _atom_site_fract_y
 _atom_site_fract_z
 _atom_site_occupancy
  Ba  Ba0  1  0.35581795  0.35581795  0.71163690  1
  Ba  Ba1  1  0.64418205  0.64418205  0.28836310  1
  Pb  Pb2  1  -0.00000000  -0.00000000  -0.00000000  1
  O  O3  1  -0.00000000  0.50000000  -0.00000000  1
  O  O4  1  0.50000000  -0.00000000  -0.00000000  1
  O  O5  1  0.83831128  0.83831128  0.67662055  1
  O  O6  1  0.16168872  0.16168872  0.32337945  1
