# generated using pymatgen
data_RbMgH3
_symmetry_space_group_name_H-M   'P 1'
_cell_length_a   5.88668425
_cell_length_b   5.88668397
_cell_length_c   14.28385677
_cell_angle_alpha   90.00000007
_cell_angle_beta   90.00000047
_cell_angle_gamma   119.99975613
_symmetry_Int_Tables_number   1
_chemical_formula_structural   RbMgH3
_chemical_formula_sum   'Rb6 Mg6 H18'
_cell_volume   428.66561520
_cell_formula_units_Z   6
loop_
 _symmetry_equiv_pos_site_id
 _symmetry_equiv_pos_as_xyz
  1  'x, y, z'
loop_
 _atom_site_type_symbol
 _atom_site_label
 _atom_site_symmetry_multiplicity
 _atom_site_fract_x
 _atom_site_fract_y
 _atom_site_fract_z
 _atom_site_occupancy
  Rb  Rb0  1  0.00000042  -0.00000024  0.74999998  1
  Rb  Rb1  1  -0.00000022  0.00000038  0.25000000  1
  Rb  Rb2  1  0.33333334  0.66666783  0.40451189  1
  Rb  Rb3  1  0.66666724  0.33333184  0.90451210  1
  Rb  Rb4  1  0.66666693  0.33333171  0.59548790  1
  Rb  Rb5  1  0.33333280  0.66666760  0.09548817  1
  Mg  Mg6  1  0.33333815  0.66666216  0.84585807  1
  Mg  Mg7  1  0.66666207  0.33333786  0.34585807  1
  Mg  Mg8  1  0.66666193  0.33333824  0.15414195  1
  Mg  Mg9  1  0.33333840  0.66666213  0.65414195  1
  Mg  Mg10  1  -0.00000024  0.00000005  0.49999999  1
  Mg  Mg11  1  -0.00000018  -0.00000011  -0.00000004  1
  H  H12  1  0.47609709  0.95218233  0.74999997  1
  H  H13  1  0.52390270  0.47609711  0.25000003  1
  H  H14  1  0.95218243  0.47609717  0.25000003  1
  H  H15  1  0.04781764  0.52390292  0.74999998  1
  H  H16  1  0.47609729  0.52390272  0.75000003  1
  H  H17  1  0.52390338  0.04781777  0.25000000  1
  H  H18  1  0.16610464  0.83389521  0.92015044  1
  H  H19  1  0.16610445  0.33220877  0.92015083  1
  H  H20  1  0.66779125  0.83389557  0.92015083  1
  H  H21  1  0.33220874  0.16610456  0.42015085  1
  H  H22  1  0.83389543  0.66779138  0.07984914  1
  H  H23  1  0.83389526  0.16610479  0.42015044  1
  H  H24  1  0.16610455  0.33220867  0.57984916  1
  H  H25  1  0.83389521  0.16610485  0.07984956  1
  H  H26  1  0.33220868  0.16610458  0.07984917  1
  H  H27  1  0.66779141  0.83389552  0.57984912  1
  H  H28  1  0.16610481  0.83389532  0.57984959  1
  H  H29  1  0.83389542  0.66779129  0.42015081  1
