# generated using pymatgen
data_Na10Nb4Zn4Si7S5O48
_symmetry_space_group_name_H-M   'P 1'
_cell_length_a   18.05330441
_cell_length_b   9.10647238
_cell_length_c   22.44185422
_cell_angle_alpha   89.87031211
_cell_angle_beta   89.38154531
_cell_angle_gamma   120.26266461
_symmetry_Int_Tables_number   1
_chemical_formula_structural   Na10Nb4Zn4Si7S5O48
_chemical_formula_sum   'Na30 Nb12 Zn12 Si21 S15 O144'
_cell_volume   3186.38386284
_cell_formula_units_Z   3
loop_
 _symmetry_equiv_pos_site_id
 _symmetry_equiv_pos_as_xyz
  1  'x, y, z'
loop_
 _atom_site_type_symbol
 _atom_site_label
 _atom_site_symmetry_multiplicity
 _atom_site_fract_x
 _atom_site_fract_y
 _atom_site_fract_z
 _atom_site_occupancy
  Na  Na0  1  0.32111911  0.02105255  0.25124011  1
  Na  Na1  1  0.81937688  0.02247281  0.24483023  1
  Na  Na2  1  0.17920486  0.34426575  0.25110171  1
  Na  Na3  1  0.68068884  0.34817574  0.25098926  1
  Na  Na4  1  0.82199592  0.62280755  0.75022640  1
  Na  Na5  1  0.49670795  0.36523671  0.73944876  1
  Na  Na6  1  0.18014508  0.01008035  0.75124613  1
  Na  Na7  1  0.67779320  0.01332279  0.75105592  1
  Na  Na8  1  0.65538901  0.95140624  0.07605392  1
  Na  Na9  1  0.82911939  0.69834167  0.07199441  1
  Na  Na10  1  0.01300560  0.34359642  0.08389434  1
  Na  Na11  1  0.49011349  0.69559658  0.91150429  1
  Na  Na12  1  0.98982063  0.69316268  0.91287508  1
  Na  Na13  1  0.16111306  0.29292584  0.90626787  1
  Na  Na14  1  0.49231284  0.28739812  0.41427732  1
  Na  Na15  1  0.99193728  0.28628987  0.41415700  1
  Na  Na16  1  0.16145803  0.02948641  0.40835306  1
  Na  Na17  1  0.66114314  0.02950438  0.40799061  1
  Na  Na18  1  0.99064447  0.99925932  0.49466066  1
  Na  Na19  1  0.49086716  0.99928309  0.49439861  1
  Na  Na20  1  0.99590371  0.98494962  0.99011004  1
  Na  Na21  1  0.49367626  0.99793867  0.98865242  1
  Na  Na22  1  0.33128571  0.34962090  0.82173594  1
  Na  Na23  1  0.83290168  0.33790572  0.82649922  1
  Na  Na24  1  0.33927707  0.34376095  0.32414883  1
  Na  Na25  1  0.83876683  0.34380099  0.32324765  1
  Na  Na26  1  0.15744154  0.68106641  0.15966783  1
  Na  Na27  1  0.65072436  0.66105489  0.15890532  1
  Na  Na28  1  0.15508913  0.63633336  0.65865420  1
  Na  Na29  1  0.65929562  0.65344381  0.65535012  1
  Nb  Nb30  1  0.00814892  0.01677759  0.64672993  1
  Nb  Nb31  1  0.50544235  0.01106478  0.64617697  1
  Nb  Nb32  1  0.00633828  0.00177641  0.14533036  1
  Nb  Nb33  1  0.50356962  0.99690456  0.14787154  1
  Nb  Nb34  1  0.33631928  0.34418403  0.97703592  1
  Nb  Nb35  1  0.83518726  0.33534616  0.97837414  1
  Nb  Nb36  1  0.33401878  0.32508928  0.48017673  1
  Nb  Nb37  1  0.83421578  0.32414592  0.48001062  1
  Nb  Nb38  1  0.16732134  0.66605723  0.31387773  1
  Nb  Nb39  1  0.66800721  0.66719879  0.31339206  1
  Nb  Nb40  1  0.17040633  0.66872849  0.81175589  1
  Nb  Nb41  1  0.66992435  0.67331622  0.81488146  1
  Zn  Zn42  1  0.00463827  0.01976231  0.35078984  1
  Zn  Zn43  1  0.50320973  0.02034550  0.35141701  1
  Zn  Zn44  1  0.00406975  0.98745765  0.84984250  1
  Zn  Zn45  1  0.50601363  0.98874316  0.85127739  1
  Zn  Zn46  1  0.34112024  0.36332712  0.68503657  1
  Zn  Zn47  1  0.84405436  0.35490913  0.68491505  1
  Zn  Zn48  1  0.34187160  0.32977494  0.18498577  1
  Zn  Zn49  1  0.84304284  0.32315874  0.18295323  1
  Zn  Zn50  1  0.17054850  0.69572880  0.01604645  1
  Zn  Zn51  1  0.67141729  0.68775031  0.01591576  1
  Zn  Zn52  1  0.16718690  0.64554391  0.51810336  1
  Zn  Zn53  1  0.66654634  0.64464176  0.51789310  1
  Si  Si54  1  0.14813746  0.99975452  0.25289192  1
  Si  Si55  1  0.64742445  -0.00000895  0.25402571  1
  Si  Si56  1  0.00072168  0.29759202  0.25195133  1
  Si  Si57  1  0.49972548  0.29684358  0.25223692  1
  Si  Si58  1  0.15035503  0.29806576  0.75313631  1
  Si  Si59  1  0.64837836  0.29509010  0.75184984  1
  Si  Si60  1  0.00021296  0.70394172  0.75166002  1
  Si  Si61  1  0.49819610  0.70442966  0.75322028  1
  Si  Si62  1  0.48279104  0.33929652  0.58768913  1
  Si  Si63  1  0.98388660  0.34047362  0.58605817  1
  Si  Si64  1  0.47960903  0.62300102  0.08598644  1
  Si  Si65  1  0.98332306  0.62650527  0.08369094  1
  Si  Si66  1  0.83285941  0.03670095  0.08681855  1
  Si  Si67  1  0.31157509  0.67854699  0.92159750  1
  Si  Si68  1  0.81447912  0.67141092  0.92081653  1
  Si  Si69  1  0.16716567  0.96003900  0.91793135  1
  Si  Si70  1  0.66758020  0.96770375  0.92017992  1
  Si  Si71  1  0.31218519  0.94656632  0.42137322  1
  Si  Si72  1  0.81210473  0.94605326  0.42131981  1
  Si  Si73  1  0.16783113  0.37263726  0.41905833  1
  Si  Si74  1  0.66790425  0.37314286  0.41902712  1
  S  S75  1  0.35481119  0.71114479  0.25220461  1
  S  S76  1  0.85595132  0.71283106  0.25094561  1
  S  S77  1  0.35491875  0.99363875  0.75100456  1
  S  S78  1  0.85600889  -0.00004798  0.75136142  1
  S  S79  1  0.18700766  0.04022670  0.58566131  1
  S  S80  1  0.68629318  0.03991199  0.58597264  1
  S  S81  1  0.33561982  0.62865370  0.58394131  1
  S  S82  1  0.83579043  0.62938226  0.58517853  1
  S  S83  1  0.33517588  0.04145835  0.08561760  1
  S  S84  1  0.18865086  0.33302986  0.08526823  1
  S  S85  1  0.68552978  0.32912805  0.08540285  1
  S  S86  1  0.02000498  0.37509928  0.91766139  1
  S  S87  1  0.52205011  0.37600495  0.91803202  1
  S  S88  1  0.01962797  0.66394419  0.41814234  1
  S  S89  1  0.51985061  0.66353984  0.41820835  1
  O  O90  1  0.10548606  0.02251255  0.31213672  1
  O  O91  1  0.59990215  0.01467810  0.31181508  1
  O  O92  1  0.40449940  0.78878325  0.30494613  1
  O  O93  1  0.90625762  0.79119497  0.30332625  1
  O  O94  1  0.48381147  0.18826749  0.31219603  1
  O  O95  1  0.98603336  0.18738804  0.31113536  1
  O  O96  1  0.10557409  0.18729290  0.81174368  1
  O  O97  1  0.59872953  0.17434229  0.80641447  1
  O  O98  1  0.48619570  0.77788007  0.81446799  1
  O  O99  1  0.98377652  0.78058558  0.81135033  1
  O  O100  1  0.40624133  0.01779041  0.80405547  1
  O  O101  1  0.90509927  0.02138102  0.80448430  1
  O  O102  1  0.39727094  0.97470508  0.69569338  1
  O  O103  1  0.89740618  0.97550259  0.69642803  1
  O  O104  1  0.08409184  0.19674688  0.69399386  1
  O  O105  1  0.58299140  0.19933717  0.69134563  1
  O  O106  1  0.01403837  0.84121427  0.69471530  1
  O  O107  1  0.51281845  0.83965441  0.69578020  1
  O  O108  1  0.39730039  0.81820119  0.19679453  1
  O  O109  1  0.89656855  0.81825454  0.19490489  1
  O  O110  1  0.01568065  0.19569724  0.19294435  1
  O  O111  1  0.51239976  0.18593970  0.19521174  1
  O  O112  1  0.08379210  0.97432678  0.19447858  1
  O  O113  1  0.58450197  0.97282339  0.19307884  1
  O  O114  1  0.43295604  0.34055849  0.64673493  1
  O  O115  1  0.92920521  0.33899365  0.64155615  1
  O  O116  1  0.23502943  0.12500136  0.63861928  1
  O  O117  1  0.73287642  0.12371119  0.63955556  1
  O  O118  1  0.32331971  0.53053295  0.63862435  1
  O  O119  1  0.82392472  0.53574524  0.64139199  1
  O  O120  1  0.42730637  0.51731378  0.14239553  1
  O  O121  1  0.93165030  0.51200916  0.13965332  1
  O  O122  1  0.32322531  0.11115265  0.14170219  1
  O  O123  1  0.81113243  0.10681268  0.14590946  1
  O  O124  1  0.23474608  0.34388627  0.13937087  1
  O  O125  1  0.73245118  0.34918700  0.14035989  1
  O  O126  1  0.23199726  0.31356526  0.03022232  1
  O  O127  1  0.73052320  0.30466618  0.03257314  1
  O  O128  1  0.41951169  0.52623749  0.02447664  1
  O  O129  1  0.92087866  0.53716724  0.02299805  1
  O  O130  1  0.34506995  0.15389385  0.03319423  1
  O  O131  1  0.84812955  0.17423967  0.03042010  1
  O  O132  1  0.23054906  0.15143220  0.52985078  1
  O  O133  1  0.73052723  0.15079493  0.53053799  1
  O  O134  1  0.34472978  0.53564601  0.53057526  1
  O  O135  1  0.84392538  0.53189797  0.53309732  1
  O  O136  1  0.41861403  0.31507192  0.52762890  1
  O  O137  1  0.92080707  0.31399323  0.52434733  1
  O  O138  1  0.25856915  0.66635818  0.97964343  1
  O  O139  1  0.76643106  0.67228482  0.98050683  1
  O  O140  1  0.06671484  0.44331378  0.97313563  1
  O  O141  1  0.57132693  0.45617574  0.97045463  1
  O  O142  1  0.13738212  0.82869391  0.97187762  1
  O  O143  1  0.64902647  0.85028196  0.97768370  1
  O  O144  1  0.25733167  0.84548350  0.47766810  1
  O  O145  1  0.75738376  0.84506375  0.47778021  1
  O  O146  1  0.13868542  0.45169689  0.47028274  1
  O  O147  1  0.63822039  0.45063952  0.47060867  1
  O  O148  1  0.06983150  0.69177663  0.47094808  1
  O  O149  1  0.57006033  0.69122716  0.47111107  1
  O  O150  1  0.06294748  0.63394348  0.36363687  1
  O  O151  1  0.56293100  0.63397014  0.36367195  1
  O  O152  1  0.25075621  0.86383317  0.35935830  1
  O  O153  1  0.75028020  0.86222667  0.35949400  1
  O  O154  1  0.18136481  0.49670275  0.35691146  1
  O  O155  1  0.68094439  0.49654969  0.35691784  1
  O  O156  1  0.06542979  0.49262914  0.86527364  1
  O  O157  1  0.56221423  0.48768877  0.86221297  1
  O  O158  1  0.18136400  0.86589987  0.85702974  1
  O  O159  1  0.67893895  0.86151615  0.85997479  1
  O  O160  1  0.24844630  0.63776877  0.86151352  1
  O  O161  1  0.75161549  0.64462176  0.86042250  1
  O  O162  1  0.00493990  0.80518005  0.40713805  1
  O  O163  1  0.50455715  0.80410536  0.40772137  1
  O  O164  1  0.40856049  0.98550990  0.41395918  1
  O  O165  1  0.90847219  0.98552366  0.41354615  1
  O  O166  1  0.09115227  0.17755991  0.41276295  1
  O  O167  1  0.59130975  0.17787521  0.41265130  1
  O  O168  1  0.00545578  0.20467563  0.90784922  1
  O  O169  1  0.50415293  0.20360348  0.90893439  1
  O  O170  1  0.09167359  0.00533568  0.91202979  1
  O  O171  1  0.58729718  0.99481725  0.91350295  1
  O  O172  1  0.40722666  0.83199227  0.91365917  1
  O  O173  1  0.90931935  0.83271547  0.91300178  1
  O  O174  1  0.48617407  0.15418025  0.59033419  1
  O  O175  1  0.98846228  0.15648060  0.59005039  1
  O  O176  1  0.10020607  0.03313872  0.58589370  1
  O  O177  1  0.59909413  0.03071140  0.58579287  1
  O  O178  1  0.41852839  0.79817972  0.58567278  1
  O  O179  1  0.91810488  0.79890430  0.58583664  1
  O  O180  1  0.48802271  0.82066262  0.09074000  1
  O  O181  1  0.98757756  0.81657165  0.08992537  1
  O  O182  1  0.41720967  0.03404057  0.08764304  1
  O  O183  1  0.92567284  0.03528738  0.09032605  1
  O  O184  1  0.10090110  0.16739289  0.08503736  1
  O  O185  1  0.59964575  0.16072467  0.08667852  1
  O  O186  1  0.33764340  0.13400586  0.74502010  1
  O  O187  1  0.83316625  0.13220894  0.74467046  1
  O  O188  1  0.24003745  0.30423897  0.74116749  1
  O  O189  1  0.74162337  0.31519385  0.74118225  1
  O  O190  1  0.42407913  0.50950103  0.74685246  1
  O  O191  1  0.91748189  0.51848275  0.74564294  1
  O  O192  1  0.33305976  0.53413601  0.24534961  1
  O  O193  1  0.83462278  0.53587238  0.24387173  1
  O  O194  1  0.41727880  0.31742085  0.24577258  1
  O  O195  1  0.91933737  0.32185636  0.24635294  1
  O  O196  1  0.24132033  0.16943878  0.24223512  1
  O  O197  1  0.73943750  0.17215095  0.24602789  1
  O  O198  1  0.31888395  0.49113532  0.92466429  1
  O  O199  1  0.82349713  0.49380029  0.92358816  1
  O  O200  1  0.43520278  0.37233466  0.92052081  1
  O  O201  1  0.93521377  0.37310218  0.91876648  1
  O  O202  1  0.25779920  0.14914193  0.92724425  1
  O  O203  1  0.75942156  0.15264222  0.92444984  1
  O  O204  1  0.32021058  0.14761124  0.42579967  1
  O  O205  1  0.81900423  0.14625226  0.42554330  1
  O  O206  1  0.25838604  0.36554412  0.42594869  1
  O  O207  1  0.75846548  0.36633694  0.42615449  1
  O  O208  1  0.43453064  0.49647106  0.42062377  1
  O  O209  1  0.93411039  0.49787054  0.42032070  1
  O  O210  1  0.17082693  0.47199267  0.08007037  1
  O  O211  1  0.67004337  0.47008582  0.07716646  1
  O  O212  1  0.07524422  0.63759217  0.07773325  1
  O  O213  1  0.57540653  0.65727012  0.07904582  1
  O  O214  1  0.26172139  0.86868719  0.07965671  1
  O  O215  1  0.75594310  0.84350720  0.08009346  1
  O  O216  1  0.17297013  0.87017419  0.57855846  1
  O  O217  1  0.67303207  0.86994243  0.57912060  1
  O  O218  1  0.26324022  0.65630306  0.57793659  1
  O  O219  1  0.76246401  0.65525215  0.57863976  1
  O  O220  1  0.07733112  0.50342101  0.57882199  1
  O  O221  1  0.57615196  0.50315586  0.57976126  1
  O  O222  1  0.15955835  0.82894712  0.25580998  1
  O  O223  1  0.65846733  0.82861829  0.25644334  1
  O  O224  1  0.26994090  0.71196273  0.25324083  1
  O  O225  1  0.77009942  0.71110343  0.25320935  1
  O  O226  1  0.09385210  0.48420547  0.25494709  1
  O  O227  1  0.59290130  0.48203109  0.25454110  1
  O  O228  1  0.15653792  0.48629376  0.75752165  1
  O  O229  1  0.65509036  0.48521468  0.75604359  1
  O  O230  1  0.09293591  0.70357424  0.75515988  1
  O  O231  1  0.59271218  0.70210901  0.75533784  1
  O  O232  1  0.26859542  0.83053985  0.75298338  1
  O  O233  1  0.76969736  0.82870493  0.75356428  1
