# generated using pymatgen
data_Na12Ca5Nb(PO4)9
_symmetry_space_group_name_H-M   'P 1'
_cell_length_a   9.42063671
_cell_length_b   9.42063637
_cell_length_c   22.88867273
_cell_angle_alpha   90.00000000
_cell_angle_beta   90.00000000
_cell_angle_gamma   120.00000124
_symmetry_Int_Tables_number   1
_chemical_formula_structural   Na12Ca5Nb(PO4)9
_chemical_formula_sum   'Na24 Ca10 Nb2 P18 O72'
_cell_volume   1759.18588809
_cell_formula_units_Z   2
loop_
 _symmetry_equiv_pos_site_id
 _symmetry_equiv_pos_as_xyz
  1  'x, y, z'
loop_
 _atom_site_type_symbol
 _atom_site_label
 _atom_site_symmetry_multiplicity
 _atom_site_fract_x
 _atom_site_fract_y
 _atom_site_fract_z
 _atom_site_occupancy
  Na  Na0  1  0.63466254  0.00001612  0.25036909  1
  Na  Na1  1  0.36535358  0.36533746  0.25036909  1
  Na  Na2  1  0.99998388  0.63464642  0.25036909  1
  Na  Na3  1  0.63466254  0.63464642  0.75036909  1
  Na  Na4  1  0.99998388  0.36533746  0.75036909  1
  Na  Na5  1  0.36535358  0.00001612  0.75036909  1
  Na  Na6  1  0.29515819  0.33688217  0.58679904  1
  Na  Na7  1  0.04172498  0.70484181  0.58679904  1
  Na  Na8  1  0.66311783  0.95827502  0.58679904  1
  Na  Na9  1  0.29515819  0.95827502  0.08679904  1
  Na  Na10  1  0.66311783  0.70484181  0.08679904  1
  Na  Na11  1  0.04172498  0.33688217  0.08679904  1
  Na  Na12  1  0.98378073  0.67945578  0.90591731  1
  Na  Na13  1  0.69567405  0.01621927  0.90591731  1
  Na  Na14  1  0.32054422  0.30432595  0.90591731  1
  Na  Na15  1  0.98378073  0.30432595  0.40591731  1
  Na  Na16  1  0.32054422  0.01621927  0.40591731  1
  Na  Na17  1  0.69567405  0.67945578  0.40591731  1
  Na  Na18  1  0.00000000  0.00000000  0.49919764  1
  Na  Na19  1  0.00000000  0.00000000  0.99919764  1
  Na  Na20  1  0.66666700  0.33333300  0.82066599  1
  Na  Na21  1  0.66666700  0.33333300  0.32066599  1
  Na  Na22  1  0.33333300  0.66666700  0.17652129  1
  Na  Na23  1  0.33333300  0.66666700  0.67652129  1
  Ca  Ca24  1  0.00000000  0.00000000  0.34564513  1
  Ca  Ca25  1  0.00000000  0.00000000  0.84564513  1
  Ca  Ca26  1  0.00000000  0.00000000  0.65075412  1
  Ca  Ca27  1  0.00000000  0.00000000  0.15075412  1
  Ca  Ca28  1  0.66666700  0.33333300  0.68262575  1
  Ca  Ca29  1  0.66666700  0.33333300  0.18262575  1
  Ca  Ca30  1  0.33333300  0.66666700  0.01340610  1
  Ca  Ca31  1  0.33333300  0.66666700  0.51340610  1
  Ca  Ca32  1  0.33333300  0.66666700  0.32206123  1
  Ca  Ca33  1  0.33333300  0.66666700  0.82206123  1
  Nb  Nb34  1  0.66666700  0.33333300  0.98417207  1
  Nb  Nb35  1  0.66666700  0.33333300  0.48417207  1
  P  P36  1  0.30592499  0.99648336  0.25005780  1
  P  P37  1  0.69055836  0.69407501  0.25005780  1
  P  P38  1  0.00351664  0.30944164  0.25005780  1
  P  P39  1  0.30592499  0.30944164  0.75005780  1
  P  P40  1  0.00351664  0.69407501  0.75005780  1
  P  P41  1  0.69055836  0.99648336  0.75005780  1
  P  P42  1  0.96103689  0.33237950  0.58225817  1
  P  P43  1  0.37134361  0.03896311  0.58225817  1
  P  P44  1  0.66762050  0.62865639  0.58225817  1
  P  P45  1  0.96103689  0.62865639  0.08225817  1
  P  P46  1  0.66762050  0.03896311  0.08225817  1
  P  P47  1  0.37134361  0.33237950  0.08225817  1
  P  P48  1  0.64173696  0.65901312  0.92050394  1
  P  P49  1  0.01727516  0.35826304  0.92050394  1
  P  P50  1  0.34098688  0.98272484  0.92050394  1
  P  P51  1  0.64173696  0.98272484  0.42050394  1
  P  P52  1  0.34098688  0.35826304  0.42050394  1
  P  P53  1  0.01727516  0.65901312  0.42050394  1
  O  O54  1  0.22022655  0.00925547  0.30578695  1
  O  O55  1  0.78902892  0.77977345  0.30578695  1
  O  O56  1  0.99074453  0.21097108  0.30578695  1
  O  O57  1  0.22022655  0.21097108  0.80578695  1
  O  O58  1  0.99074453  0.77977345  0.80578695  1
  O  O59  1  0.78902892  0.00925547  0.80578695  1
  O  O60  1  0.77655373  0.98233447  0.69430305  1
  O  O61  1  0.20578074  0.22344627  0.69430305  1
  O  O62  1  0.01766553  0.79421926  0.69430305  1
  O  O63  1  0.77655373  0.79421926  0.19430305  1
  O  O64  1  0.01766553  0.22344627  0.19430305  1
  O  O65  1  0.20578074  0.98233447  0.19430305  1
  O  O66  1  0.88563291  0.34945729  0.63857177  1
  O  O67  1  0.46382538  0.11436709  0.63857177  1
  O  O68  1  0.65054271  0.53617462  0.63857177  1
  O  O69  1  0.88563291  0.53617462  0.13857177  1
  O  O70  1  0.65054271  0.11436709  0.13857177  1
  O  O71  1  0.46382538  0.34945729  0.13857177  1
  O  O72  1  0.48589068  0.33006435  0.02958252  1
  O  O73  1  0.84417467  0.51410932  0.02958252  1
  O  O74  1  0.66993565  0.15582533  0.02958252  1
  O  O75  1  0.48589068  0.15582533  0.52958252  1
  O  O76  1  0.66993565  0.51410932  0.52958252  1
  O  O77  1  0.84417467  0.33006435  0.52958252  1
  O  O78  1  0.56180142  0.68477072  0.97456713  1
  O  O79  1  0.12296830  0.43819858  0.97456713  1
  O  O80  1  0.31522928  0.87703170  0.97456713  1
  O  O81  1  0.56180142  0.87703170  0.47456713  1
  O  O82  1  0.31522928  0.43819858  0.47456713  1
  O  O83  1  0.12296830  0.68477072  0.47456713  1
  O  O84  1  0.08630279  0.61856282  0.36603393  1
  O  O85  1  0.53225904  0.91369721  0.36603393  1
  O  O86  1  0.38143718  0.46774096  0.36603393  1
  O  O87  1  0.08630279  0.46774096  0.86603393  1
  O  O88  1  0.38143718  0.91369721  0.86603393  1
  O  O89  1  0.53225904  0.61856282  0.86603393  1
  O  O90  1  0.98781740  0.80490199  0.41455415  1
  O  O91  1  0.81708459  0.01218260  0.41455415  1
  O  O92  1  0.19509801  0.18291541  0.41455415  1
  O  O93  1  0.98781740  0.18291541  0.91455415  1
  O  O94  1  0.19509801  0.01218260  0.91455415  1
  O  O95  1  0.81708459  0.80490199  0.91455415  1
  O  O96  1  0.96220973  0.16981381  0.57632243  1
  O  O97  1  0.20760407  0.03779027  0.57632243  1
  O  O98  1  0.83018619  0.79239593  0.57632243  1
  O  O99  1  0.96220973  0.79239593  0.07632243  1
  O  O100  1  0.83018619  0.03779027  0.07632243  1
  O  O101  1  0.20760407  0.16981381  0.07632243  1
  O  O102  1  0.67261612  0.15205754  0.74941542  1
  O  O103  1  0.47944242  0.32738388  0.74941542  1
  O  O104  1  0.84794246  0.52055758  0.74941542  1
  O  O105  1  0.67261612  0.52055758  0.24941542  1
  O  O106  1  0.84794246  0.32738388  0.24941542  1
  O  O107  1  0.47944242  0.15205754  0.24941542  1
  O  O108  1  0.66049276  0.49914245  0.92887909  1
  O  O109  1  0.83865069  0.33950724  0.92887909  1
  O  O110  1  0.50085755  0.16134931  0.92887909  1
  O  O111  1  0.66049276  0.16134931  0.42887909  1
  O  O112  1  0.50085755  0.33950724  0.42887909  1
  O  O113  1  0.83865069  0.49914245  0.42887909  1
  O  O114  1  0.35014459  0.48310329  0.07561506  1
  O  O115  1  0.13295770  0.64985541  0.07561506  1
  O  O116  1  0.51689671  0.86704230  0.07561506  1
  O  O117  1  0.35014459  0.86704230  0.57561506  1
  O  O118  1  0.51689671  0.64985541  0.57561506  1
  O  O119  1  0.13295770  0.48310329  0.57561506  1
  O  O120  1  0.32325742  0.84053584  0.25211338  1
  O  O121  1  0.51727741  0.67674258  0.25211338  1
  O  O122  1  0.15946416  0.48272259  0.25211338  1
  O  O123  1  0.32325742  0.48272259  0.75211338  1
  O  O124  1  0.15946416  0.67674258  0.75211338  1
  O  O125  1  0.51727741  0.84053584  0.75211338  1
