# generated using pymatgen
data_Na3Ta4Zn8P3(S5O24)3
_symmetry_space_group_name_H-M   'P 1'
_cell_length_a   8.72049827
_cell_length_b   8.71045637
_cell_length_c   22.69506510
_cell_angle_alpha   90.04665959
_cell_angle_beta   89.98839997
_cell_angle_gamma   120.03320499
_symmetry_Int_Tables_number   1
_chemical_formula_structural   Na3Ta4Zn8P3(S5O24)3
_chemical_formula_sum   'Na3 Ta4 Zn8 P3 S15 O72'
_cell_volume   1492.44628176
_cell_formula_units_Z   1
loop_
 _symmetry_equiv_pos_site_id
 _symmetry_equiv_pos_as_xyz
  1  'x, y, z'
loop_
 _atom_site_type_symbol
 _atom_site_label
 _atom_site_symmetry_multiplicity
 _atom_site_fract_x
 _atom_site_fract_y
 _atom_site_fract_z
 _atom_site_occupancy
  Na  Na0  1  0.99149874  0.99346408  0.00287835  1
  Na  Na1  1  0.66777447  0.33314793  0.83420350  1
  Na  Na2  1  0.66368511  0.33366412  0.34011855  1
  Ta  Ta3  1  0.00481431  0.00014179  0.64793961  1
  Ta  Ta4  1  0.67220875  0.33158659  0.18536340  1
  Ta  Ta5  1  0.33267949  0.67073214  0.02361323  1
  Ta  Ta6  1  0.33354369  0.67137855  0.51845875  1
  Zn  Zn7  1  0.00225882  0.00005865  0.35428768  1
  Zn  Zn8  1  0.99695584  0.99966769  0.85415089  1
  Zn  Zn9  1  0.99125991  0.99030256  0.14909186  1
  Zn  Zn10  1  0.65980243  0.32247676  0.68282103  1
  Zn  Zn11  1  0.67625325  0.33618760  0.98310025  1
  Zn  Zn12  1  0.65556812  0.32618003  0.48433417  1
  Zn  Zn13  1  0.33391548  0.66719672  0.31172681  1
  Zn  Zn14  1  0.33518530  0.66743901  0.81056239  1
  P  P15  1  0.37996717  0.04656960  0.58337838  1
  P  P16  1  0.95364721  0.62865282  0.08049118  1
  P  P17  1  0.67529184  0.04687676  0.08041105  1
  S  S18  1  0.29065808  -0.00031782  0.25001948  1
  S  S19  1  0.70571209  0.70667924  0.25079547  1
  S  S20  1  0.00369448  0.29133367  0.25037615  1
  S  S21  1  0.29352603  0.29195990  0.75247330  1
  S  S22  1  0.99592128  0.70414279  0.75180869  1
  S  S23  1  0.71027160  0.00238169  0.75176035  1
  S  S24  1  0.95937366  0.33369610  0.58324542  1
  S  S25  1  0.66659330  0.62575660  0.58334665  1
  S  S26  1  0.37549910  0.33082577  0.08151242  1
  S  S27  1  0.62200403  0.66400264  0.91596281  1
  S  S28  1  0.04444018  0.37708802  0.91517777  1
  S  S29  1  0.33401811  0.95877221  0.91559118  1
  S  S30  1  0.62629352  0.96003231  0.41423315  1
  S  S31  1  0.33466905  0.37649910  0.41465139  1
  S  S32  1  0.03762003  0.66291170  0.41479845  1
  O  O33  1  0.22377897  0.04320176  0.30329332  1
  O  O34  1  0.81770783  0.77357361  0.30365219  1
  O  O35  1  0.95868958  0.18040385  0.30329948  1
  O  O36  1  0.21167054  0.18002569  0.80402459  1
  O  O37  1  0.96682790  0.78572421  0.80371025  1
  O  O38  1  0.81950111  0.03007937  0.80406285  1
  O  O39  1  0.80811245  0.98607380  0.69725473  1
  O  O40  1  0.17804050  0.19291135  0.69750498  1
  O  O41  1  0.01359979  0.82143346  0.69708133  1
  O  O42  1  0.78356314  0.80904255  0.19735953  1
  O  O43  1  0.02483175  0.21231522  0.19671882  1
  O  O44  1  0.18902405  0.97793566  0.19660595  1
  O  O45  1  0.89319680  0.37620475  0.63603201  1
  O  O46  1  0.48940871  0.11137805  0.63861034  1
  O  O47  1  0.62875003  0.51856316  0.63622851  1
  O  O48  1  0.86286540  0.50445118  0.13631726  1
  O  O49  1  0.63866092  0.13435335  0.13659840  1
  O  O50  1  0.49106597  0.36385750  0.13518017  1
  O  O51  1  0.45198279  0.30335281  0.02868505  1
  O  O52  1  0.84362240  0.54971808  0.02634456  1
  O  O53  1  0.69655569  0.15229434  0.02592426  1
  O  O54  1  0.44454773  0.15614087  0.52830176  1
  O  O55  1  0.70899464  0.55949000  0.53076902  1
  O  O56  1  0.85215190  0.29554321  0.53058874  1
  O  O57  1  0.52581027  0.68174317  0.97029785  1
  O  O58  1  0.15627118  0.47284370  0.96973673  1
  O  O59  1  0.31663188  0.84372756  0.97033911  1
  O  O60  1  0.52740470  0.84533618  0.46944667  1
  O  O61  1  0.31923702  0.47409854  0.46962409  1
  O  O62  1  0.15435359  0.68050726  0.46979418  1
  O  O63  1  0.11946569  0.63397910  0.36331557  1
  O  O64  1  0.51407440  0.87773213  0.36311541  1
  O  O65  1  0.36148055  0.48617684  0.36291736  1
  O  O66  1  0.12754290  0.48144925  0.86222470  1
  O  O67  1  0.35706418  0.87620247  0.86292541  1
  O  O68  1  0.51924546  0.64346970  0.86265773  1
  O  O69  1  0.03371408  0.82829605  0.41395247  1
  O  O70  1  0.79508894  0.96335480  0.41343596  1
  O  O71  1  0.17069654  0.20543322  0.41362630  1
  O  O72  1  0.03614067  0.20296981  0.91583863  1
  O  O73  1  0.16741219  0.96424655  0.91615576  1
  O  O74  1  0.79616672  0.82974200  0.91633277  1
  O  O75  1  0.98513521  0.17679428  0.59477475  1
  O  O76  1  0.18714582  0.01363870  0.59713463  1
  O  O77  1  0.82087077  0.81065775  0.59481606  1
  O  O78  1  0.99312151  0.81553575  0.09104053  1
  O  O79  1  0.82943638  0.01823722  0.09090578  1
  O  O80  1  0.19760449  0.18319535  0.09146226  1
  O  O81  1  0.69661244  0.16334570  0.74395162  1
  O  O82  1  0.46894224  0.30988420  0.74350770  1
  O  O83  1  0.83695268  0.53049439  0.74128962  1
  O  O84  1  0.68532421  0.51962601  0.24063416  1
  O  O85  1  0.83345225  0.31058412  0.24149605  1
  O  O86  1  0.47723927  0.16831386  0.24041293  1
  O  O87  1  0.63784817  0.50452850  0.92254398  1
  O  O88  1  0.86776852  0.35881396  0.92063627  1
  O  O89  1  0.49107522  0.13480566  0.92306194  1
  O  O90  1  0.64440462  0.13603989  0.42323991  1
  O  O91  1  0.49552176  0.36244189  0.42259841  1
  O  O92  1  0.86368449  0.50404553  0.42530262  1
  O  O93  1  0.36683285  0.50013068  0.07502007  1
  O  O94  1  0.13670075  0.63154006  0.07297476  1
  O  O95  1  0.49845263  0.86024762  0.07340025  1
  O  O96  1  0.34705773  0.85376931  0.56958619  1
  O  O97  1  0.51022852  0.65182876  0.57200409  1
  O  O98  1  0.14404998  0.48761116  0.57191665  1
  O  O99  1  0.32157839  0.85091145  0.25731980  1
  O  O100  1  0.52701577  0.67757771  0.25810468  1
  O  O101  1  0.15054936  0.47179356  0.25733324  1
  O  O102  1  0.29659541  0.46065052  0.75264570  1
  O  O103  1  0.16085801  0.70039601  0.75244379  1
  O  O104  1  0.53971857  0.83836295  0.75253898  1
