# generated using pymatgen
data_Li2TiO3
_symmetry_space_group_name_H-M   'P 1'
_cell_length_a   5.05360598
_cell_length_b   5.05360598
_cell_length_c   9.68173310
_cell_angle_alpha   84.90878576
_cell_angle_beta   84.90878576
_cell_angle_gamma   120.10673446
_symmetry_Int_Tables_number   1
_chemical_formula_structural   Li2TiO3
_chemical_formula_sum   'Li8 Ti4 O12'
_cell_volume   210.49670190
_cell_formula_units_Z   4
loop_
 _symmetry_equiv_pos_site_id
 _symmetry_equiv_pos_as_xyz
  1  'x, y, z'
loop_
 _atom_site_type_symbol
 _atom_site_label
 _atom_site_symmetry_multiplicity
 _atom_site_fract_x
 _atom_site_fract_y
 _atom_site_fract_z
 _atom_site_occupancy
  Li  Li0  1  0.16007598  0.31991681  0.00035714  1
  Li  Li1  1  0.68008319  0.83992402  0.49964286  1
  Li  Li2  1  0.83992402  0.68008319  0.99964286  1
  Li  Li3  1  0.31991681  0.16007598  0.50035714  1
  Li  Li4  1  0.00000000  0.50000000  0.50000000  1
  Li  Li5  1  0.50000000  -0.00000000  -0.00000000  1
  Li  Li6  1  0.91545274  0.08454726  0.75000000  1
  Li  Li7  1  0.08454726  0.91545274  0.25000000  1
  Ti  Ti8  1  0.58244536  0.41755464  0.75000000  1
  Ti  Ti9  1  0.74988344  0.25011656  0.25000000  1
  Ti  Ti10  1  0.25011656  0.74988344  0.75000000  1
  Ti  Ti11  1  0.41755464  0.58244536  0.25000000  1
  O  O12  1  0.04491087  0.23150975  0.36633809  1
  O  O13  1  0.87672000  0.40208816  0.86412124  1
  O  O14  1  0.76849025  0.95508913  0.13366191  1
  O  O15  1  0.95508913  0.76849025  0.63366191  1
  O  O16  1  0.52214277  0.69097880  0.86398218  1
  O  O17  1  0.59791184  0.12328000  0.63587876  1
  O  O18  1  0.12328000  0.59791184  0.13587876  1
  O  O19  1  0.40208816  0.87672000  0.36412124  1
  O  O20  1  0.69097880  0.52214277  0.36398218  1
  O  O21  1  0.30902120  0.47785723  0.63601782  1
  O  O22  1  0.47785723  0.30902120  0.13601782  1
  O  O23  1  0.23150975  0.04491087  0.86633809  1
