# generated using pymatgen
data_MgCo(WO4)2
_symmetry_space_group_name_H-M   'P 1'
_cell_length_a   5.02019630
_cell_length_b   5.79519913
_cell_length_c   6.23600368
_cell_angle_alpha   82.43949899
_cell_angle_beta   86.68580909
_cell_angle_gamma   118.66096534
_symmetry_Int_Tables_number   1
_chemical_formula_structural   MgCo(WO4)2
_chemical_formula_sum   'Mg1 Co1 W2 O8'
_cell_volume   156.27878263
_cell_formula_units_Z   1
loop_
 _symmetry_equiv_pos_site_id
 _symmetry_equiv_pos_as_xyz
  1  'x, y, z'
loop_
 _atom_site_type_symbol
 _atom_site_label
 _atom_site_symmetry_multiplicity
 _atom_site_fract_x
 _atom_site_fract_y
 _atom_site_fract_z
 _atom_site_occupancy
  Mg  Mg0  1  0.50000000  -0.00000000  0.50000000  1
  Co  Co1  1  0.50000000  -0.00000000  0.00000000  1
  W  W2  1  0.24174317  0.42552507  0.70941381  1
  W  W3  1  0.75825783  0.57447593  0.29058619  1
  O  O4  1  0.65086293  0.72380463  0.52588088  1
  O  O5  1  0.17524976  0.76229915  0.30581304  1
  O  O6  1  0.26366793  0.73459225  0.79217385  1
  O  O7  1  0.30477888  0.24473553  0.93398144  1
  O  O8  1  0.34913707  0.27619537  0.47411812  1
  O  O9  1  0.82475124  0.23770185  0.69418696  1
  O  O10  1  0.69522212  0.75526547  0.06601756  1
  O  O11  1  0.73633307  0.26540875  0.20782615  1
