# generated using pymatgen
data_Na3HfScSi(PO6)2
_symmetry_space_group_name_H-M   'P 1'
_cell_length_a   9.08777461
_cell_length_b   9.08777430
_cell_length_c   22.48738638
_cell_angle_alpha   90.06958758
_cell_angle_beta   89.93041241
_cell_angle_gamma   120.01601386
_symmetry_Int_Tables_number   1
_chemical_formula_structural   Na3HfScSi(PO6)2
_chemical_formula_sum   'Na18 Hf6 Sc6 Si6 P12 O72'
_cell_volume   1608.10411611
_cell_formula_units_Z   6
loop_
 _symmetry_equiv_pos_site_id
 _symmetry_equiv_pos_as_xyz
  1  'x, y, z'
loop_
 _atom_site_type_symbol
 _atom_site_label
 _atom_site_symmetry_multiplicity
 _atom_site_fract_x
 _atom_site_fract_y
 _atom_site_fract_z
 _atom_site_occupancy
  Na  Na0  1  0.00372480  0.99265103  0.49576602  1
  Na  Na1  1  0.00734897  0.99627520  0.99576602  1
  Na  Na2  1  0.66643580  0.32334267  0.82955277  1
  Na  Na3  1  0.67665733  0.33356420  0.32955277  1
  Na  Na4  1  0.35307761  0.67526027  0.16202562  1
  Na  Na5  1  0.32473973  0.64692239  0.66202562  1
  Na  Na6  1  0.36137573  0.35986134  0.24589739  1
  Na  Na7  1  0.99306412  0.62876166  0.24690392  1
  Na  Na8  1  0.64013866  0.63862427  0.74589739  1
  Na  Na9  1  0.37123834  0.00693588  0.74690392  1
  Na  Na10  1  0.03984728  0.69953789  0.57867947  1
  Na  Na11  1  0.65160256  0.96361003  0.58489109  1
  Na  Na12  1  0.30046211  0.96015272  0.07867947  1
  Na  Na13  1  0.03638997  0.34839744  0.08489109  1
  Na  Na14  1  0.97601193  0.67635576  0.91915716  1
  Na  Na15  1  0.69621113  0.02563064  0.90993430  1
  Na  Na16  1  0.97436936  0.30378887  0.40993430  1
  Na  Na17  1  0.32364424  0.02398807  0.41915716  1
  Hf  Hf18  1  0.00473083  0.00789406  0.64759532  1
  Hf  Hf19  1  0.99210594  0.99526917  0.14759532  1
  Hf  Hf20  1  0.66215892  0.33753108  0.98107806  1
  Hf  Hf21  1  0.66246892  0.33784108  0.48107806  1
  Hf  Hf22  1  0.33325799  0.66830558  0.31435055  1
  Hf  Hf23  1  0.33169442  0.66674201  0.81435055  1
  Sc  Sc24  1  0.99027369  0.99343840  0.35187738  1
  Sc  Sc25  1  0.00656160  0.00972631  0.85187738  1
  Sc  Sc26  1  0.66732871  0.32432122  0.68534522  1
  Sc  Sc27  1  0.67567878  0.33267129  0.18534522  1
  Sc  Sc28  1  0.33344378  0.66790884  0.01811373  1
  Sc  Sc29  1  0.33209116  0.66655622  0.51811373  1
  Si  Si30  1  0.00048339  0.29716132  0.25201999  1
  Si  Si31  1  0.70283868  0.99951661  0.75201999  1
  Si  Si32  1  0.36697562  0.03394910  0.58345803  1
  Si  Si33  1  0.96605090  0.63302438  0.08345803  1
  Si  Si34  1  0.33303948  0.96532075  0.91788554  1
  Si  Si35  1  0.03467925  0.66696052  0.41788554  1
  P  P36  1  0.29228006  0.00010187  0.25136080  1
  P  P37  1  0.70310814  0.70432210  0.25026674  1
  P  P38  1  0.29567790  0.29689186  0.75026674  1
  P  P39  1  0.99989813  0.70771994  0.75136080  1
  P  P40  1  0.95833040  0.33190489  0.58196665  1
  P  P41  1  0.66733209  0.62817753  0.58756671  1
  P  P42  1  0.66809511  0.04166960  0.08196665  1
  P  P43  1  0.37182247  0.33266791  0.08756671  1
  P  P44  1  0.62537065  0.66454782  0.91513606  1
  P  P45  1  0.03723208  0.37173830  0.92007760  1
  P  P46  1  0.62826170  0.96276792  0.42007760  1
  P  P47  1  0.33545218  0.37462935  0.41513606  1
  O  O48  1  0.20583136  0.01956135  0.30703253  1
  O  O49  1  0.81678846  0.78698366  0.30435454  1
  O  O50  1  0.98805643  0.19103640  0.31151242  1
  O  O51  1  0.21301634  0.18321154  0.80435454  1
  O  O52  1  0.98043865  0.79416864  0.80703253  1
  O  O53  1  0.80896360  0.01194357  0.81151242  1
  O  O54  1  0.79790921  0.97509546  0.69291543  1
  O  O55  1  0.18740013  0.20691943  0.69393133  1
  O  O56  1  0.03001363  0.82473463  0.69587135  1
  O  O57  1  0.79308057  0.81259987  0.19393133  1
  O  O58  1  0.02490454  0.20209079  0.19291543  1
  O  O59  1  0.17526537  0.96998637  0.19587135  1
  O  O60  1  0.87119914  0.36057915  0.63528562  1
  O  O61  1  0.48378421  0.12706760  0.64171550  1
  O  O62  1  0.65260562  0.53264869  0.64508995  1
  O  O63  1  0.87293240  0.51621579  0.14171550  1
  O  O64  1  0.63942085  0.12880086  0.13528562  1
  O  O65  1  0.46735131  0.34739438  0.14508995  1
  O  O66  1  0.46603145  0.30586566  0.03373630  1
  O  O67  1  0.85254496  0.53762432  0.02367556  1
  O  O68  1  0.69318338  0.15129996  0.02491767  1
  O  O69  1  0.46237568  0.14745504  0.52367556  1
  O  O70  1  0.69413434  0.53396855  0.53373630  1
  O  O71  1  0.84870004  0.30681662  0.52491767  1
  O  O72  1  0.53127461  0.68411021  0.96820341  1
  O  O73  1  0.13368630  0.45036715  0.97798871  1
  O  O74  1  0.30932535  0.85000590  0.97682952  1
  O  O75  1  0.54963285  0.86631370  0.47798871  1
  O  O76  1  0.31588979  0.46872539  0.46820341  1
  O  O77  1  0.14999410  0.69067465  0.47682952  1
  O  O78  1  0.13191926  0.64071562  0.35943782  1
  O  O79  1  0.51205913  0.86561393  0.36654155  1
  O  O80  1  0.35720987  0.47735505  0.35707249  1
  O  O81  1  0.13438607  0.48794087  0.86654155  1
  O  O82  1  0.35928438  0.86808074  0.85943782  1
  O  O83  1  0.52264495  0.64279013  0.85707249  1
  O  O84  1  0.02418834  0.83972589  0.41274257  1
  O  O85  1  0.81159991  0.99744384  0.41427664  1
  O  O86  1  0.17678996  0.19538420  0.41256685  1
  O  O87  1  0.00255616  0.18840009  0.91427664  1
  O  O88  1  0.16027411  0.97581166  0.91274257  1
  O  O89  1  0.80461580  0.82321004  0.91256685  1
  O  O90  1  0.96274095  0.16278453  0.58782556  1
  O  O91  1  0.17346620  0.00594561  0.58645991  1
  O  O92  1  0.83436801  0.80765712  0.58835677  1
  O  O93  1  0.99405439  0.82653380  0.08645991  1
  O  O94  1  0.83721547  0.03725905  0.08782556  1
  O  O95  1  0.19234288  0.16563199  0.08835677  1
  O  O96  1  0.66851066  0.15920631  0.74847424  1
  O  O97  1  0.47707068  0.32377245  0.74474908  1
  O  O98  1  0.83796424  0.53369626  0.74483257  1
  O  O99  1  0.67622755  0.52292932  0.24474908  1
  O  O100  1  0.84079369  0.33148934  0.24847424  1
  O  O101  1  0.46630374  0.16203576  0.24483257  1
  O  O102  1  0.64839224  0.50552157  0.92025336  1
  O  O103  1  0.86000198  0.36430561  0.92051273  1
  O  O104  1  0.51168455  0.14920833  0.92101073  1
  O  O105  1  0.63569439  0.13999802  0.42051273  1
  O  O106  1  0.49447843  0.35160776  0.42025336  1
  O  O107  1  0.85079167  0.48831545  0.42101073  1
  O  O108  1  0.34341574  0.48379294  0.07979962  1
  O  O109  1  0.15552845  0.65122945  0.08149531  1
  O  O110  1  0.51384465  0.86270329  0.07684541  1
  O  O111  1  0.34877055  0.84447155  0.58149531  1
  O  O112  1  0.51620706  0.65658426  0.57979962  1
  O  O113  1  0.13729671  0.48615535  0.57684541  1
  O  O114  1  0.30867748  0.83762129  0.25519803  1
  O  O115  1  0.52626010  0.68953067  0.25455772  1
  O  O116  1  0.17892960  0.48690539  0.25302506  1
  O  O117  1  0.31046933  0.47373990  0.75455772  1
  O  O118  1  0.16237871  0.69132252  0.75519803  1
  O  O119  1  0.51309461  0.82107040  0.75302506  1
