# generated using pymatgen
data_SCl2O
_symmetry_space_group_name_H-M   'P 1'
_cell_length_a   5.84956509
_cell_length_b   7.68064687
_cell_length_c   8.97440838
_cell_angle_alpha   100.45184933
_cell_angle_beta   90.00000000
_cell_angle_gamma   90.00000000
_symmetry_Int_Tables_number   1
_chemical_formula_structural   SCl2O
_chemical_formula_sum   'S4 Cl8 O4'
_cell_volume   396.51608811
_cell_formula_units_Z   4
loop_
 _symmetry_equiv_pos_site_id
 _symmetry_equiv_pos_as_xyz
  1  'x, y, z'
loop_
 _atom_site_type_symbol
 _atom_site_label
 _atom_site_symmetry_multiplicity
 _atom_site_fract_x
 _atom_site_fract_y
 _atom_site_fract_z
 _atom_site_occupancy
  S  S0  1  0.93749596  0.75753630  0.16506970  1
  S  S1  1  0.43749596  0.74246370  0.83493030  1
  S  S2  1  0.06250404  0.24246370  0.83493030  1
  S  S3  1  0.56250404  0.25753630  0.16506970  1
  Cl  Cl4  1  0.79475860  0.73452746  0.37328352  1
  Cl  Cl5  1  0.29475860  0.76547254  0.62671648  1
  Cl  Cl6  1  0.20524140  0.26547254  0.62671648  1
  Cl  Cl7  1  0.70524140  0.23452746  0.37328352  1
  Cl  Cl8  1  0.22189216  0.90973986  0.24938791  1
  Cl  Cl9  1  0.72189216  0.59026014  0.75061209  1
  Cl  Cl10  1  0.77810784  0.09026014  0.75061209  1
  Cl  Cl11  1  0.27810784  0.40973986  0.24938791  1
  O  O12  1  0.78903183  0.86950170  0.09582275  1
  O  O13  1  0.28903183  0.63049830  0.90417725  1
  O  O14  1  0.21096817  0.13049830  0.90417725  1
  O  O15  1  0.71096817  0.36950170  0.09582275  1
