# generated using pymatgen
data_Y2Hf2SiS5O24
_symmetry_space_group_name_H-M   'P 1'
_cell_length_a   9.10420021
_cell_length_b   9.12874253
_cell_length_c   23.50729819
_cell_angle_alpha   90.16208514
_cell_angle_beta   90.09058254
_cell_angle_gamma   119.92232859
_symmetry_Int_Tables_number   1
_chemical_formula_structural   Y2Hf2SiS5O24
_chemical_formula_sum   'Y6 Hf6 Si3 S15 O72'
_cell_volume   1693.25028340
_cell_formula_units_Z   3
loop_
 _symmetry_equiv_pos_site_id
 _symmetry_equiv_pos_as_xyz
  1  'x, y, z'
loop_
 _atom_site_type_symbol
 _atom_site_label
 _atom_site_symmetry_multiplicity
 _atom_site_fract_x
 _atom_site_fract_y
 _atom_site_fract_z
 _atom_site_occupancy
  Y  Y0  1  0.99428867  0.00166929  0.36108977  1
  Y  Y1  1  0.00135956  0.00131541  0.85846764  1
  Y  Y2  1  0.67783871  0.33659182  0.68516887  1
  Y  Y3  1  0.65859560  0.33555524  0.18543037  1
  Y  Y4  1  0.65547880  0.33013483  0.98215231  1
  Y  Y5  1  0.33186233  0.66527706  0.80767956  1
  Hf  Hf6  1  0.99955746  0.00700775  0.64151077  1
  Hf  Hf7  1  0.00731999  0.00770240  0.14596067  1
  Hf  Hf8  1  0.67596197  0.32397568  0.47786283  1
  Hf  Hf9  1  0.33321287  0.66080607  0.02273165  1
  Hf  Hf10  1  0.33789124  0.66839479  0.52241745  1
  Hf  Hf11  1  0.34055271  0.67486999  0.31342456  1
  Si  Si12  1  0.96174938  0.33616009  0.58183294  1
  Si  Si13  1  0.36866488  0.33293768  0.08351552  1
  Si  Si14  1  0.61192254  0.95216990  0.41844288  1
  S  S15  1  0.28323107  0.99025957  0.25063799  1
  S  S16  1  0.70845887  0.71519720  0.25065119  1
  S  S17  1  0.00706210  0.29214707  0.25010668  1
  S  S18  1  0.28297585  0.28156579  0.74792858  1
  S  S19  1  0.99936453  0.71857552  0.74830213  1
  S  S20  1  0.71698691  0.99889046  0.74831368  1
  S  S21  1  0.37298809  0.04166830  0.58171073  1
  S  S22  1  0.66828985  0.62625931  0.58207680  1
  S  S23  1  0.96684654  0.63448136  0.08365452  1
  S  S24  1  0.66785525  0.03329227  0.08346631  1
  S  S25  1  0.61723529  0.66764815  0.91787290  1
  S  S26  1  0.04884351  0.38410322  0.91815726  1
  S  S27  1  0.33443433  0.94946451  0.91781319  1
  S  S28  1  0.34407892  0.39191431  0.41799956  1
  S  S29  1  0.04901695  0.65880772  0.41776305  1
  O  O30  1  0.20739531  0.01874421  0.30098501  1
  O  O31  1  0.81337010  0.79447063  0.30107095  1
  O  O32  1  0.98048541  0.18743442  0.30035653  1
  O  O33  1  0.20506326  0.18244765  0.79972661  1
  O  O34  1  0.97991594  0.79815705  0.80045623  1
  O  O35  1  0.81815588  0.02305321  0.80010224  1
  O  O36  1  0.80585594  0.97903433  0.69775348  1
  O  O37  1  0.17328503  0.19165438  0.69735031  1
  O  O38  1  0.01893626  0.82424599  0.69769222  1
  O  O39  1  0.78712534  0.82143317  0.19946715  1
  O  O40  1  0.03054650  0.20469069  0.19911237  1
  O  O41  1  0.17348862  0.96577140  0.19946361  1
  O  O42  1  0.88159808  0.36999289  0.63762632  1
  O  O43  1  0.47641628  0.11186136  0.63306005  1
  O  O44  1  0.63201720  0.52183824  0.63316700  1
  O  O45  1  0.89669506  0.52427347  0.13352885  1
  O  O46  1  0.63349456  0.10708505  0.13372491  1
  O  O47  1  0.48715646  0.37080865  0.13880226  1
  O  O48  1  0.44762796  0.29395546  0.02820241  1
  O  O49  1  0.85968018  0.56108002  0.03324531  1
  O  O50  1  0.70736564  0.14225724  0.03348741  1
  O  O51  1  0.45257628  0.15478079  0.53215251  1
  O  O52  1  0.69669341  0.54598588  0.53196227  1
  O  O53  1  0.83216358  0.30400121  0.52744314  1
  O  O54  1  0.52848671  0.68780910  0.96833363  1
  O  O55  1  0.15850258  0.47406369  0.96860539  1
  O  O56  1  0.31459011  0.84378924  0.96842406  1
  O  O57  1  0.51257402  0.83277872  0.47195982  1
  O  O58  1  0.31409867  0.47134624  0.46822528  1
  O  O59  1  0.15472078  0.68147665  0.46802284  1
  O  O60  1  0.12614249  0.62909300  0.36564203  1
  O  O61  1  0.49155213  0.85566164  0.36114299  1
  O  O62  1  0.36355723  0.49532491  0.36588514  1
  O  O63  1  0.12738710  0.48371845  0.86650324  1
  O  O64  1  0.35355061  0.86893825  0.86590524  1
  O  O65  1  0.51550527  0.64358662  0.86624730  1
  O  O66  1  0.03382879  0.80969361  0.41015765  1
  O  O67  1  0.79631690  0.97450160  0.41040049  1
  O  O68  1  0.19625943  0.22325538  0.41013365  1
  O  O69  1  0.03743225  0.21759647  0.91350226  1
  O  O70  1  0.18148463  0.96586742  0.91296746  1
  O  O71  1  0.78377324  0.82269507  0.91340517  1
  O  O72  1  0.98040604  0.16684471  0.59473789  1
  O  O73  1  0.20098462  0.02052432  0.59178463  1
  O  O74  1  0.82058263  0.79647413  0.59275234  1
  O  O75  1  0.98531127  0.80363615  0.09639522  1
  O  O76  1  0.81403486  0.00632958  0.09599983  1
  O  O77  1  0.17941639  0.16928462  0.09879143  1
  O  O78  1  0.69432844  0.14593165  0.74132243  1
  O  O79  1  0.45105774  0.30120964  0.73975803  1
  O  O80  1  0.84779436  0.55069598  0.74268491  1
  O  O81  1  0.68816221  0.54643520  0.24294262  1
  O  O82  1  0.86084024  0.31415021  0.23956460  1
  O  O83  1  0.45432200  0.13240952  0.24110728  1
  O  O84  1  0.63953626  0.52044287  0.92520715  1
  O  O85  1  0.88099690  0.36463206  0.92670468  1
  O  O86  1  0.48645864  0.11684967  0.92380093  1
  O  O87  1  0.62423026  0.13719225  0.42809703  1
  O  O88  1  0.49825098  0.38007677  0.42717661  1
  O  O89  1  0.87728617  0.50891168  0.42601530  1
  O  O90  1  0.34205705  0.49545859  0.06903761  1
  O  O91  1  0.14006937  0.66185754  0.07160688  1
  O  O92  1  0.51743932  0.86401163  0.07127651  1
  O  O93  1  0.34873240  0.87092297  0.57062285  1
  O  O94  1  0.52138346  0.65209899  0.57188994  1
  O  O95  1  0.14717310  0.49283219  0.56613405  1
  O  O96  1  0.29337233  0.83152275  0.25808459  1
  O  O97  1  0.53521174  0.69571027  0.25941537  1
  O  O98  1  0.16235959  0.46020156  0.25831052  1
  O  O99  1  0.29483221  0.44828671  0.75283099  1
  O  O100  1  0.15233988  0.70202006  0.75342999  1
  O  O101  1  0.55023356  0.84394953  0.75297261  1
