# generated using pymatgen
data_Na3YSn3(PO4)6
_symmetry_space_group_name_H-M   'P 1'
_cell_length_a   8.90569200
_cell_length_b   8.91810926
_cell_length_c   23.00513841
_cell_angle_alpha   89.84520821
_cell_angle_beta   90.13389085
_cell_angle_gamma   120.25930821
_symmetry_Int_Tables_number   1
_chemical_formula_structural   Na3YSn3(PO4)6
_chemical_formula_sum   'Na9 Y3 Sn9 P18 O72'
_cell_volume   1578.16840587
_cell_formula_units_Z   3
loop_
 _symmetry_equiv_pos_site_id
 _symmetry_equiv_pos_as_xyz
  1  'x, y, z'
loop_
 _atom_site_type_symbol
 _atom_site_label
 _atom_site_symmetry_multiplicity
 _atom_site_fract_x
 _atom_site_fract_y
 _atom_site_fract_z
 _atom_site_occupancy
  Na  Na0  1  0.36159346  0.35638706  0.24697291  1
  Na  Na1  1  0.63546436  0.63068945  0.74938973  1
  Na  Na2  1  0.96977098  0.29766808  0.41543418  1
  Na  Na3  1  0.00062329  0.98867467  0.50169797  1
  Na  Na4  1  0.99998882  0.00011123  0.00239151  1
  Na  Na5  1  0.66754738  0.32174724  0.83594922  1
  Na  Na6  1  0.66711779  0.33349532  0.32960764  1
  Na  Na7  1  0.33261627  0.67831819  0.16341309  1
  Na  Na8  1  0.32146683  0.66764010  0.66469005  1
  Y  Y9  1  0.99707267  0.98743214  0.35468097  1
  Y  Y10  1  0.66762390  0.32513527  0.68522891  1
  Y  Y11  1  0.67566636  0.33311983  0.18007960  1
  Sn  Sn12  1  0.00344573  0.00275871  0.85598547  1
  Sn  Sn13  1  0.00264853  0.00339904  0.64741741  1
  Sn  Sn14  1  0.99671922  0.99709791  0.14716441  1
  Sn  Sn15  1  0.66629040  0.33360265  0.98305152  1
  Sn  Sn16  1  0.66134343  0.33408775  0.48454511  1
  Sn  Sn17  1  0.33346183  0.66557363  0.01582034  1
  Sn  Sn18  1  0.33780332  0.66916410  0.51999520  1
  Sn  Sn19  1  0.33571429  0.67476574  0.31485956  1
  Sn  Sn20  1  0.32813775  0.66721659  0.81709255  1
  P  P21  1  0.29058604  0.99247767  0.24882777  1
  P  P22  1  0.69735825  0.70573570  0.24908239  1
  P  P23  1  0.00642727  0.29863981  0.25298714  1
  P  P24  1  0.28429147  0.29350692  0.75261371  1
  P  P25  1  0.00910723  0.71972552  0.75214748  1
  P  P26  1  0.71037686  0.99337461  0.75359034  1
  P  P27  1  0.96724181  0.33162984  0.58060295  1
  P  P28  1  0.36371532  0.03229249  0.58181257  1
  P  P29  1  0.66881061  0.63451740  0.58410407  1
  P  P30  1  0.97022875  0.63778007  0.07952162  1
  P  P31  1  0.66735218  0.03106113  0.07995892  1
  P  P32  1  0.36427113  0.33273434  0.08203036  1
  P  P33  1  0.62618145  0.66398315  0.91566400  1
  P  P34  1  0.03715131  0.37319032  0.91690905  1
  P  P35  1  0.33604355  0.96150275  0.91677670  1
  P  P36  1  0.61869658  0.96365891  0.41953492  1
  P  P37  1  0.34404455  0.38469118  0.41772904  1
  P  P38  1  0.04088214  0.65767213  0.42051974  1
  O  O39  1  0.21119798  0.02132061  0.30324646  1
  O  O40  1  0.80080133  0.78469017  0.30413574  1
  O  O41  1  0.98904127  0.20175382  0.30971703  1
  O  O42  1  0.20130356  0.18344379  0.80704503  1
  O  O43  1  0.97792161  0.80301911  0.80595347  1
  O  O44  1  0.81972292  0.01593271  0.80780748  1
  O  O45  1  0.78854422  0.95796154  0.69802411  1
  O  O46  1  0.17635568  0.21349817  0.69649403  1
  O  O47  1  0.03694473  0.82739812  0.69596151  1
  O  O48  1  0.78349771  0.81721525  0.19393872  1
  O  O49  1  0.03877202  0.20985125  0.19930366  1
  O  O50  1  0.17850796  0.96609824  0.19368962  1
  O  O51  1  0.88628349  0.36138930  0.63382984  1
  O  O52  1  0.47144197  0.10961994  0.63608533  1
  O  O53  1  0.63973173  0.53237321  0.64019916  1
  O  O54  1  0.89788588  0.53252083  0.13472004  1
  O  O55  1  0.63413552  0.10299608  0.13494484  1
  O  O56  1  0.46479093  0.36263950  0.13867856  1
  O  O57  1  0.45452787  0.30300562  0.02887869  1
  O  O58  1  0.85194235  0.55020132  0.02561420  1
  O  O59  1  0.69887604  0.14890993  0.02590545  1
  O  O60  1  0.44739837  0.14628597  0.52677907  1
  O  O61  1  0.69775011  0.54698262  0.53007837  1
  O  O62  1  0.85695430  0.30328423  0.52424432  1
  O  O63  1  0.53972934  0.69509895  0.96795920  1
  O  O64  1  0.15260898  0.45587666  0.97025952  1
  O  O65  1  0.30334625  0.84625770  0.97007617  1
  O  O66  1  0.53545036  0.85283950  0.47351260  1
  O  O67  1  0.31486663  0.47319206  0.47013862  1
  O  O68  1  0.15098704  0.67974514  0.47415545  1
  O  O69  1  0.11954534  0.62359057  0.36480287  1
  O  O70  1  0.51154721  0.88295053  0.36340767  1
  O  O71  1  0.36895686  0.48829974  0.36027178  1
  O  O72  1  0.11625254  0.48400083  0.86119078  1
  O  O73  1  0.36810432  0.88339324  0.86115718  1
  O  O74  1  0.51936088  0.63488566  0.85855079  1
  O  O75  1  0.01723542  0.81397314  0.41848988  1
  O  O76  1  0.80372086  0.99333007  0.41706227  1
  O  O77  1  0.17875076  0.20587588  0.41590287  1
  O  O78  1  0.01985334  0.19138334  0.91192319  1
  O  O79  1  0.17144710  0.97909071  0.91163952  1
  O  O80  1  0.80943617  0.82859287  0.91147420  1
  O  O81  1  0.98260080  0.16601321  0.58640464  1
  O  O82  1  0.18161647  0.01496760  0.58663068  1
  O  O83  1  0.83351297  0.81801548  0.58756555  1
  O  O84  1  0.98603182  0.81895977  0.08499563  1
  O  O85  1  0.83322319  0.01549870  0.08581995  1
  O  O86  1  0.18063319  0.16748623  0.08633137  1
  O  O87  1  0.68705632  0.14990388  0.74976563  1
  O  O88  1  0.46942168  0.32335428  0.74856610  1
  O  O89  1  0.84371138  0.54081130  0.74799075  1
  O  O90  1  0.66385754  0.51984057  0.24419444  1
  O  O91  1  0.85197897  0.32512561  0.24700317  1
  O  O92  1  0.47048058  0.15523862  0.24362380  1
  O  O93  1  0.64232377  0.49970989  0.92241738  1
  O  O94  1  0.85537875  0.35450319  0.92300472  1
  O  O95  1  0.49915887  0.14416678  0.92303389  1
  O  O96  1  0.63624562  0.14669561  0.42398658  1
  O  O97  1  0.51005074  0.37126009  0.42375465  1
  O  O98  1  0.86078094  0.48591528  0.42484735  1
  O  O99  1  0.34527841  0.49458715  0.07286530  1
  O  O100  1  0.15219347  0.65803649  0.07176536  1
  O  O101  1  0.50653429  0.84806596  0.07188798  1
  O  O102  1  0.34151229  0.84936668  0.57557457  1
  O  O103  1  0.50695052  0.65476557  0.57638415  1
  O  O104  1  0.15179711  0.49202679  0.57519189  1
  O  O105  1  0.30375976  0.82546774  0.25396736  1
  O  O106  1  0.51421997  0.69024505  0.25339799  1
  O  O107  1  0.18089807  0.47849007  0.25541239  1
  O  O108  1  0.30259893  0.47754694  0.75736654  1
  O  O109  1  0.17400962  0.70339104  0.75756291  1
  O  O110  1  0.52980488  0.82088488  0.75822488  1
