# generated using pymatgen
data_MgFe6(OF)6
_symmetry_space_group_name_H-M   'P 1'
_cell_length_a   7.94858510
_cell_length_b   5.94513195
_cell_length_c   5.87838686
_cell_angle_alpha   68.38995239
_cell_angle_beta   68.68413770
_cell_angle_gamma   65.99298605
_symmetry_Int_Tables_number   1
_chemical_formula_structural   MgFe6(OF)6
_chemical_formula_sum   'Mg1 Fe6 O6 F6'
_cell_volume   228.33120310
_cell_formula_units_Z   1
loop_
 _symmetry_equiv_pos_site_id
 _symmetry_equiv_pos_as_xyz
  1  'x, y, z'
loop_
 _atom_site_type_symbol
 _atom_site_label
 _atom_site_symmetry_multiplicity
 _atom_site_fract_x
 _atom_site_fract_y
 _atom_site_fract_z
 _atom_site_occupancy
  Mg  Mg0  1  0.49628900  0.49652100  0.99341400  1
  Fe  Fe1  1  0.85814700  0.67076500  0.67456300  1
  Fe  Fe2  1  0.68600700  0.31637900  0.36732000  1
  Fe  Fe3  1  0.32072800  0.66927500  0.55269900  1
  Fe  Fe4  1  0.14983300  0.32588800  0.38378100  1
  Fe  Fe5  1  0.51971200  0.97186700  0.99247700  1
  Fe  Fe6  1  0.01087800  0.99193100  0.02090100  1
  O  O7  1  0.67282100  0.01182800  0.65108300  1
  O  O8  1  0.37152900  0.43939200  0.37091900  1
  O  O9  1  0.33840300  0.98457900  0.32953400  1
  O  O10  1  0.67950700  0.61632200  0.03746900  1
  O  O11  1  0.00384800  0.30280200  0.72422900  1
  O  O12  1  0.99329800  0.68819400  0.31907000  1
  F  F13  1  0.33406700  0.37445900  0.91395400  1
  F  F14  1  0.32646800  0.85973700  0.91126700  1
  F  F15  1  0.98285900  0.22811100  0.25935400  1
  F  F16  1  0.59487600  0.56550600  0.61091000  1
  F  F17  1  0.05305900  0.77017400  0.74657900  1
  F  F18  1  0.67433900  0.13293700  0.06904800  1
