# generated using pymatgen
data_Na10Ca6Si3Sn2(S3O16)3
_symmetry_space_group_name_H-M   'P 1'
_cell_length_a   18.55785256
_cell_length_b   9.31606549
_cell_length_c   23.51673955
_cell_angle_alpha   90.09832191
_cell_angle_beta   89.98378910
_cell_angle_gamma   120.24448602
_symmetry_Int_Tables_number   1
_chemical_formula_structural   Na10Ca6Si3Sn2(S3O16)3
_chemical_formula_sum   'Na30 Ca18 Si9 Sn6 S27 O144'
_cell_volume   3512.30357886
_cell_formula_units_Z   3
loop_
 _symmetry_equiv_pos_site_id
 _symmetry_equiv_pos_as_xyz
  1  'x, y, z'
loop_
 _atom_site_type_symbol
 _atom_site_label
 _atom_site_symmetry_multiplicity
 _atom_site_fract_x
 _atom_site_fract_y
 _atom_site_fract_z
 _atom_site_occupancy
  Na  Na0  1  0.31256891  0.99855078  0.24534710  1
  Na  Na1  1  0.18886552  0.35469698  0.25016456  1
  Na  Na2  1  0.49254265  0.63713305  0.25396274  1
  Na  Na3  1  0.30654676  0.60806314  0.73775406  1
  Na  Na4  1  0.81204275  0.62795318  0.74492053  1
  Na  Na5  1  0.99986073  0.34167799  0.75250906  1
  Na  Na6  1  0.18333534  0.02526330  0.75521116  1
  Na  Na7  1  0.68941838  0.02388646  0.75016218  1
  Na  Na8  1  0.16724877  0.35731749  0.59222441  1
  Na  Na9  1  0.83455472  0.69958619  0.08449252  1
  Na  Na10  1  0.48457785  0.65001398  0.91583013  1
  Na  Na11  1  0.35711201  0.05105190  0.91689723  1
  Na  Na12  1  0.85472598  0.03730239  0.92039377  1
  Na  Na13  1  0.65621896  0.30293476  0.91623415  1
  Na  Na14  1  0.98316488  0.31697744  0.41419790  1
  Na  Na15  1  0.15550337  0.00966559  0.41413463  1
  Na  Na16  1  0.35483708  0.67047661  0.42158577  1
  Na  Na17  1  0.85641168  0.66364736  0.41496456  1
  Na  Na18  1  0.99477101  0.96408053  0.49956339  1
  Na  Na19  1  0.50341460  0.99838488  0.50608608  1
  Na  Na20  1  0.00986485  0.02410591  0.00455039  1
  Na  Na21  1  0.50101587  0.02472313  0.00159705  1
  Na  Na22  1  0.32900787  0.32997754  0.83469633  1
  Na  Na23  1  0.83179691  0.32673943  0.82683007  1
  Na  Na24  1  0.33122604  0.33359864  0.32657973  1
  Na  Na25  1  0.83351989  0.33899855  0.33515262  1
  Na  Na26  1  0.16131478  0.67209686  0.16454378  1
  Na  Na27  1  0.68097706  0.69937818  0.16046281  1
  Na  Na28  1  0.17668841  0.66189970  0.66104371  1
  Na  Na29  1  0.66203388  0.64999848  0.66389924  1
  Ca  Ca30  1  0.00028092  0.99235435  0.34631102  1
  Ca  Ca31  1  0.50397352  0.00734398  0.35184327  1
  Ca  Ca32  1  0.00531818  0.00795363  0.85105828  1
  Ca  Ca33  1  0.50185992  0.01056982  0.84696807  1
  Ca  Ca34  1  0.33728945  0.34189485  0.67844517  1
  Ca  Ca35  1  0.83130512  0.32704582  0.67926456  1
  Ca  Ca36  1  0.33029570  0.33337930  0.17944808  1
  Ca  Ca37  1  0.83368107  0.32030875  0.18076891  1
  Ca  Ca38  1  0.33284869  0.33257056  0.98601027  1
  Ca  Ca39  1  0.83811085  0.31575218  0.99473669  1
  Ca  Ca40  1  0.34208303  0.35581989  0.49301709  1
  Ca  Ca41  1  0.83258105  0.33471240  0.48652494  1
  Ca  Ca42  1  0.16370789  0.66016783  0.01740684  1
  Ca  Ca43  1  0.66486622  0.66747720  0.02028772  1
  Ca  Ca44  1  0.16855663  0.67861276  0.52021291  1
  Ca  Ca45  1  0.66380571  0.66750089  0.51743691  1
  Ca  Ca46  1  0.67107846  0.66986576  0.31603521  1
  Ca  Ca47  1  0.16486088  0.65292384  0.81713030  1
  Si  Si48  1  0.14874020  -0.00016354  0.25088876  1
  Si  Si49  1  0.34790925  0.70360136  0.25647539  1
  Si  Si50  1  0.14998370  0.29574976  0.74598691  1
  Si  Si51  1  0.64860991  0.29774575  0.75043647  1
  Si  Si52  1  0.84592236  0.99042472  0.75705359  1
  Si  Si53  1  0.33778894  0.65410742  0.58719462  1
  Si  Si54  1  0.83844667  0.02245645  0.08536339  1
  Si  Si55  1  0.51799312  0.37237745  0.91542550  1
  Si  Si56  1  0.01761081  0.66382008  0.41524969  1
  Sn  Sn57  1  0.99073411  0.00101739  0.65649888  1
  Sn  Sn58  1  0.50188767  0.00945888  0.64940076  1
  Sn  Sn59  1  0.00224681  0.00045043  0.15237031  1
  Sn  Sn60  1  0.49219721  0.98992166  0.15379222  1
  Sn  Sn61  1  0.16069890  0.67576964  0.31133855  1
  Sn  Sn62  1  0.66120863  0.64609928  0.81213547  1
  S  S63  1  0.64464606  0.99659503  0.24787647  1
  S  S64  1  0.84897075  0.69917024  0.24705509  1
  S  S65  1  0.00371923  0.30128729  0.25253058  1
  S  S66  1  0.50216207  0.29609060  0.24680820  1
  S  S67  1  0.00121504  0.71078974  0.74730184  1
  S  S68  1  0.50379667  0.70931398  0.75171251  1
  S  S69  1  0.34993066  0.99618502  0.74884879  1
  S  S70  1  0.48798509  0.32634608  0.58585517  1
  S  S71  1  0.98430821  0.31678791  0.58510785  1
  S  S72  1  0.17267433  0.03031012  0.58702859  1
  S  S73  1  0.67666646  0.02672741  0.58645308  1
  S  S74  1  0.84075299  0.65541649  0.58671549  1
  S  S75  1  0.48456249  0.65109267  0.08711625  1
  S  S76  1  0.98502533  0.64480548  0.08684104  1
  S  S77  1  0.33894051  0.02627735  0.08553616  1
  S  S78  1  0.17720428  0.32792239  0.08681693  1
  S  S79  1  0.67561256  0.31872208  0.08562856  1
  S  S80  1  0.31844306  0.66785083  0.91626027  1
  S  S81  1  0.81218998  0.66110931  0.91501175  1
  S  S82  1  0.01201825  0.36246852  0.91587076  1
  S  S83  1  0.16794886  0.96355420  0.91661986  1
  S  S84  1  0.66739794  0.95918846  0.91251132  1
  S  S85  1  0.31268382  0.96294226  0.41296310  1
  S  S86  1  0.81722935  0.96738437  0.41755707  1
  S  S87  1  0.16739210  0.37521201  0.41422984  1
  S  S88  1  0.66818556  0.37245825  0.41800640  1
  S  S89  1  0.51442673  0.66464488  0.41377186  1
  O  O90  1  0.11590612  0.03635371  0.30922785  1
  O  O91  1  0.60485020  0.01402260  0.29890011  1
  O  O92  1  0.40316449  0.78505881  0.31203757  1
  O  O93  1  0.89451131  0.78076912  0.29983562  1
  O  O94  1  0.49226146  0.19643084  0.29729114  1
  O  O95  1  0.99381731  0.21106119  0.30564376  1
  O  O96  1  0.10366307  0.16740628  0.79650146  1
  O  O97  1  0.61590463  0.19491676  0.80864145  1
  O  O98  1  0.49110228  0.77774252  0.80479944  1
  O  O99  1  0.98547253  0.78174292  0.79791581  1
  O  O100  1  0.39381315  0.01109913  0.80255685  1
  O  O101  1  0.89913546  0.01783664  0.81340443  1
  O  O102  1  0.39533401  0.97396417  0.69969329  1
  O  O103  1  0.88553036  0.93686232  0.70049795  1
  O  O104  1  0.08891970  0.20792787  0.68630127  1
  O  O105  1  0.58584471  0.19470506  0.69548030  1
  O  O106  1  0.01338116  0.81744006  0.69537167  1
  O  O107  1  0.51548030  0.82046783  0.70227820  1
  O  O108  1  0.39000236  0.83679268  0.19974388  1
  O  O109  1  0.89515647  0.80522340  0.19565783  1
  O  O110  1  0.01496061  0.21250776  0.20262001  1
  O  O111  1  0.51393350  0.21526495  0.19419166  1
  O  O112  1  0.08705238  0.98047846  0.19588926  1
  O  O113  1  0.58970747  0.97431670  0.19545289  1
  O  O114  1  0.44640980  0.33708385  0.63720688  1
  O  O115  1  0.94426438  0.33173438  0.63718689  1
  O  O116  1  0.22261043  0.11533233  0.63810914  1
  O  O117  1  0.72273711  0.10043310  0.63984880  1
  O  O118  1  0.32731034  0.54217792  0.64295383  1
  O  O119  1  0.83421084  0.55862598  0.63797210  1
  O  O120  1  0.44216520  0.55447803  0.13844481  1
  O  O121  1  0.94340085  0.54686963  0.13728752  1
  O  O122  1  0.33326003  0.10956463  0.13720449  1
  O  O123  1  0.82937190  0.12378576  0.13670538  1
  O  O124  1  0.22362149  0.34707678  0.13987887  1
  O  O125  1  0.73022843  0.33825512  0.13378122  1
  O  O126  1  0.21925733  0.30771877  0.03690490  1
  O  O127  1  0.71037917  0.29630301  0.03135706  1
  O  O128  1  0.43573268  0.57351517  0.03488446  1
  O  O129  1  0.93320050  0.57027217  0.03516924  1
  O  O130  1  0.34841523  0.12358452  0.03357639  1
  O  O131  1  0.85518221  0.11356394  0.02317782  1
  O  O132  1  0.21375567  0.13173579  0.53517923  1
  O  O133  1  0.71972350  0.13134516  0.53687673  1
  O  O134  1  0.35343733  0.58427604  0.52681464  1
  O  O135  1  0.85170267  0.57959214  0.53445542  1
  O  O136  1  0.43831017  0.30447254  0.53423596  1
  O  O137  1  0.93578749  0.30083965  0.53354155  1
  O  O138  1  0.27373041  0.68668166  0.96469605  1
  O  O139  1  0.77239410  0.68368358  0.96562019  1
  O  O140  1  0.06278435  0.45866429  0.96465145  1
  O  O141  1  0.58075589  0.46099696  0.96719725  1
  O  O142  1  0.16467252  0.86128186  0.96528688  1
  O  O143  1  0.66107028  0.86032085  0.96241996  1
  O  O144  1  0.27266460  0.85540353  0.46200676  1
  O  O145  1  0.77549427  0.86350746  0.46756154  1
  O  O146  1  0.16130229  0.45829923  0.46554644  1
  O  O147  1  0.66200996  0.45743224  0.46902299  1
  O  O148  1  0.08010567  0.70085307  0.46710172  1
  O  O149  1  0.56381334  0.67016720  0.46341837  1
  O  O150  1  0.06291742  0.62447430  0.35784161  1
  O  O151  1  0.55484016  0.65877391  0.35979335  1
  O  O152  1  0.26243433  0.88089301  0.35869462  1
  O  O153  1  0.77013993  0.88848575  0.36508477  1
  O  O154  1  0.17992528  0.47883039  0.36163320  1
  O  O155  1  0.67634228  0.47061509  0.36609455  1
  O  O156  1  0.05109601  0.44603478  0.86125100  1
  O  O157  1  0.56271793  0.50174392  0.85795374  1
  O  O158  1  0.17531893  0.88808933  0.86211637  1
  O  O159  1  0.67942537  0.88288174  0.85901919  1
  O  O160  1  0.27447900  0.65375360  0.86201518  1
  O  O161  1  0.76061539  0.64393277  0.86155958  1
  O  O162  1  0.00341639  0.82443155  0.41158358  1
  O  O163  1  0.50480241  0.81486526  0.41574475  1
  O  O164  1  0.39674788  0.98382345  0.40781821  1
  O  O165  1  0.90278935  0.98633713  0.41458511  1
  O  O166  1  0.08876036  0.21108044  0.41000490  1
  O  O167  1  0.59462093  0.20384331  0.41534284  1
  O  O168  1  0.00283320  0.19365551  0.91831977  1
  O  O169  1  0.50332821  0.18300713  0.91178337  1
  O  O170  1  0.09353850  0.98179410  0.91747287  1
  O  O171  1  0.58893160  0.96611774  0.90942838  1
  O  O172  1  0.40413306  0.81957424  0.91503199  1
  O  O173  1  0.89577076  0.80973362  0.90980124  1
  O  O174  1  0.49689674  0.17265719  0.58830502  1
  O  O175  1  0.99015451  0.15884683  0.58833373  1
  O  O176  1  0.08869664  0.02355702  0.59023143  1
  O  O177  1  0.59228076  0.01564012  0.58936749  1
  O  O178  1  0.42556104  0.84290217  0.59440495  1
  O  O179  1  0.92145839  0.82612942  0.59068367  1
  O  O180  1  0.49083913  0.82274548  0.09116500  1
  O  O181  1  0.99134977  0.81431160  0.09112003  1
  O  O182  1  0.41956481  0.01652339  0.08838860  1
  O  O183  1  0.92573390  0.00234594  0.09473995  1
  O  O184  1  0.09245864  0.17013965  0.09020330  1
  O  O185  1  0.58858753  0.16305972  0.09228950  1
  O  O186  1  0.33926309  0.14165332  0.74211214  1
  O  O187  1  0.83796800  0.15412431  0.74512471  1
  O  O188  1  0.24418297  0.32087478  0.74439822  1
  O  O189  1  0.74347836  0.33388614  0.74105967  1
  O  O190  1  0.43276430  0.54066386  0.74425052  1
  O  O191  1  0.92885302  0.54058026  0.73923942  1
  O  O192  1  0.33861024  0.52200049  0.24576519  1
  O  O193  1  0.84149710  0.53496268  0.24247522  1
  O  O194  1  0.42458276  0.30661523  0.24102585  1
  O  O195  1  0.93515470  0.33339192  0.24554720  1
  O  O196  1  0.24359514  0.15390260  0.24188019  1
  O  O197  1  0.72835912  0.14126504  0.24256160  1
  O  O198  1  0.32874253  0.51997057  0.92168634  1
  O  O199  1  0.81439199  0.50409679  0.91772886  1
  O  O200  1  0.42561117  0.35834579  0.91598564  1
  O  O201  1  0.92679242  0.34334775  0.91752746  1
  O  O202  1  0.24685696  0.12993000  0.92052700  1
  O  O203  1  0.74088806  0.13139597  0.91612726  1
  O  O204  1  0.31479959  0.12399933  0.41731358  1
  O  O205  1  0.82838917  0.13684332  0.42229753  1
  O  O206  1  0.24069664  0.34928734  0.41698396  1
  O  O207  1  0.74734625  0.36505477  0.42070939  1
  O  O208  1  0.42853897  0.51331096  0.41516766  1
  O  O209  1  0.92520132  0.49308272  0.41544822  1
  O  O210  1  0.16499038  0.47236676  0.08132645  1
  O  O211  1  0.66813789  0.46943631  0.08275144  1
  O  O212  1  0.06995962  0.66954939  0.08162261  1
  O  O213  1  0.56883028  0.67478915  0.08388599  1
  O  O214  1  0.26602591  0.85690233  0.08187708  1
  O  O215  1  0.76175656  0.82897442  0.08473725  1
  O  O216  1  0.16003013  0.86211357  0.58386138  1
  O  O217  1  0.66409033  0.85756570  0.58085242  1
  O  O218  1  0.25103463  0.65918993  0.58467172  1
  O  O219  1  0.76824842  0.67931677  0.58281239  1
  O  O220  1  0.07057715  0.45913776  0.58139458  1
  O  O221  1  0.57259225  0.47516126  0.58245654  1
  O  O222  1  0.15670843  0.82719981  0.25052213  1
  O  O223  1  0.64603407  0.83757308  0.24919301  1
  O  O224  1  0.25155684  0.68131795  0.25988266  1
  O  O225  1  0.76613508  0.68731450  0.24653581  1
  O  O226  1  0.08778169  0.46398638  0.25330719  1
  O  O227  1  0.57398437  0.46733825  0.24998008  1
  O  O228  1  0.15453476  0.47730664  0.74678097  1
  O  O229  1  0.65622401  0.48590517  0.75098665  1
  O  O230  1  0.07908868  0.70270755  0.75137844  1
  O  O231  1  0.58556625  0.70973967  0.75404206  1
  O  O232  1  0.26570930  0.84166891  0.74939227  1
  O  O233  1  0.74906963  0.82028019  0.75984129  1
