# generated using pymatgen
data_ZrIN
_symmetry_space_group_name_H-M   'P 1'
_cell_length_a   3.75514487
_cell_length_b   4.11848974
_cell_length_c   9.70430948
_cell_angle_alpha   90.00000000
_cell_angle_beta   90.00000000
_cell_angle_gamma   90.00000000
_symmetry_Int_Tables_number   1
_chemical_formula_structural   ZrIN
_chemical_formula_sum   'Zr2 I2 N2'
_cell_volume   150.08224688
_cell_formula_units_Z   2
loop_
 _symmetry_equiv_pos_site_id
 _symmetry_equiv_pos_as_xyz
  1  'x, y, z'
loop_
 _atom_site_type_symbol
 _atom_site_label
 _atom_site_symmetry_multiplicity
 _atom_site_fract_x
 _atom_site_fract_y
 _atom_site_fract_z
 _atom_site_occupancy
  Zr  Zr0  1  0.25000000  0.75000000  0.91195349  1
  Zr  Zr1  1  0.75000000  0.25000000  0.08804651  1
  I  I2  1  0.75000000  0.75000000  0.67394335  1
  I  I3  1  0.25000000  0.25000000  0.32605665  1
  N  N4  1  0.25000000  0.25000000  0.97602174  1
  N  N5  1  0.75000000  0.75000000  0.02397826  1
