# generated using pymatgen
data_MgV4O7F5
_symmetry_space_group_name_H-M   'P 1'
_cell_length_a   5.17067961
_cell_length_b   5.46180692
_cell_length_c   8.89089645
_cell_angle_alpha   72.88864961
_cell_angle_beta   89.46465131
_cell_angle_gamma   60.93907063
_symmetry_Int_Tables_number   1
_chemical_formula_structural   MgV4O7F5
_chemical_formula_sum   'Mg1 V4 O7 F5'
_cell_volume   207.06475405
_cell_formula_units_Z   1
loop_
 _symmetry_equiv_pos_site_id
 _symmetry_equiv_pos_as_xyz
  1  'x, y, z'
loop_
 _atom_site_type_symbol
 _atom_site_label
 _atom_site_symmetry_multiplicity
 _atom_site_fract_x
 _atom_site_fract_y
 _atom_site_fract_z
 _atom_site_occupancy
  Mg  Mg0  1  0.44679400  0.08755500  0.15480600  1
  V  V1  1  0.75269200  0.44914400  0.24421600  1
  V  V2  1  0.44696400  0.06911100  0.50443700  1
  V  V3  1  0.25129900  0.54862700  0.73564900  1
  V  V4  1  0.03092400  0.97293800  0.98971100  1
  O  O5  1  0.99301400  0.24939300  0.13020900  1
  O  O6  1  0.43219100  0.76942000  0.08109000  1
  O  O7  1  0.42749200  0.74127900  0.66562000  1
  O  O8  1  0.54788200  0.24097100  0.31403900  1
  O  O9  1  0.45868000  0.25397100  0.62382200  1
  O  O10  1  0.02468700  0.77868100  0.87224200  1
  O  O11  1  0.07648800  0.23756600  0.43159300  1
  F  F12  1  0.90957700  0.76292200  0.57153200  1
  F  F13  1  0.90660600  0.77248600  0.17543200  1
  F  F14  1  0.53704500  0.75160100  0.36437500  1
  F  F15  1  0.55777200  0.26416200  0.94396200  1
  F  F16  1  0.08114400  0.27517400  0.82940800  1
