# generated using pymatgen
data_Na4YTa(SiO4)3
_symmetry_space_group_name_H-M   'P 1'
_cell_length_a   9.34853905
_cell_length_b   9.34853871
_cell_length_c   22.57341506
_cell_angle_alpha   90.00000000
_cell_angle_beta   90.00000000
_cell_angle_gamma   120.00000124
_symmetry_Int_Tables_number   1
_chemical_formula_structural   Na4YTa(SiO4)3
_chemical_formula_sum   'Na24 Y6 Ta6 Si18 O72'
_cell_volume   1708.50152391
_cell_formula_units_Z   6
loop_
 _symmetry_equiv_pos_site_id
 _symmetry_equiv_pos_as_xyz
  1  'x, y, z'
loop_
 _atom_site_type_symbol
 _atom_site_label
 _atom_site_symmetry_multiplicity
 _atom_site_fract_x
 _atom_site_fract_y
 _atom_site_fract_z
 _atom_site_occupancy
  Na  Na0  1  0.64173229  0.01408105  0.24694478  1
  Na  Na1  1  0.37234876  0.35826771  0.24694478  1
  Na  Na2  1  0.98591895  0.62765124  0.24694478  1
  Na  Na3  1  0.64173229  0.62765124  0.74694478  1
  Na  Na4  1  0.98591895  0.35826771  0.74694478  1
  Na  Na5  1  0.37234876  0.01408105  0.74694478  1
  Na  Na6  1  0.30839929  0.34741405  0.58027778  1
  Na  Na7  1  0.03901576  0.69160071  0.58027778  1
  Na  Na8  1  0.65258595  0.96098424  0.58027778  1
  Na  Na9  1  0.30839929  0.96098424  0.08027778  1
  Na  Na10  1  0.65258595  0.69160071  0.08027778  1
  Na  Na11  1  0.03901576  0.34741405  0.08027778  1
  Na  Na12  1  0.97506529  0.68074805  0.91361178  1
  Na  Na13  1  0.70568176  0.02493471  0.91361178  1
  Na  Na14  1  0.31925195  0.29431824  0.91361178  1
  Na  Na15  1  0.97506529  0.29431824  0.41361178  1
  Na  Na16  1  0.31925195  0.02493471  0.41361178  1
  Na  Na17  1  0.70568176  0.68074805  0.41361178  1
  Na  Na18  1  0.00000000  -0.00000000  0.49567254  1
  Na  Na19  1  0.00000000  -0.00000000  0.99567254  1
  Na  Na20  1  0.66666700  0.33333300  0.82900554  1
  Na  Na21  1  0.66666700  0.33333300  0.32900554  1
  Na  Na22  1  0.33333300  0.66666700  0.16233954  1
  Na  Na23  1  0.33333300  0.66666700  0.66233954  1
  Y  Y24  1  0.00000000  -0.00000000  0.34906071  1
  Y  Y25  1  0.00000000  -0.00000000  0.84906071  1
  Y  Y26  1  0.66666700  0.33333300  0.68239371  1
  Y  Y27  1  0.66666700  0.33333300  0.18239371  1
  Y  Y28  1  0.33333300  0.66666700  0.01572771  1
  Y  Y29  1  0.33333300  0.66666700  0.51572771  1
  Ta  Ta30  1  0.00000000  -0.00000000  0.64729450  1
  Ta  Ta31  1  0.00000000  -0.00000000  0.14729450  1
  Ta  Ta32  1  0.66666700  0.33333300  0.98062750  1
  Ta  Ta33  1  0.66666700  0.33333300  0.48062750  1
  Ta  Ta34  1  0.33333300  0.66666700  0.31396150  1
  Ta  Ta35  1  0.33333300  0.66666700  0.81396150  1
  Si  Si36  1  0.29329285  0.99048130  0.25091342  1
  Si  Si37  1  0.69718845  0.70670715  0.25091342  1
  Si  Si38  1  0.00951870  0.30281155  0.25091342  1
  Si  Si39  1  0.29329285  0.30281155  0.75091342  1
  Si  Si40  1  0.00951870  0.70670715  0.75091342  1
  Si  Si41  1  0.69718845  0.99048130  0.75091342  1
  Si  Si42  1  0.95995985  0.32381430  0.58424642  1
  Si  Si43  1  0.36385545  0.04004015  0.58424642  1
  Si  Si44  1  0.67618570  0.63614455  0.58424642  1
  Si  Si45  1  0.95995985  0.63614455  0.08424642  1
  Si  Si46  1  0.67618570  0.04004015  0.08424642  1
  Si  Si47  1  0.36385545  0.32381430  0.08424642  1
  Si  Si48  1  0.62662585  0.65714830  0.91758042  1
  Si  Si49  1  0.03052145  0.37337415  0.91758042  1
  Si  Si50  1  0.34285170  0.96947855  0.91758042  1
  Si  Si51  1  0.62662585  0.96947855  0.41758042  1
  Si  Si52  1  0.34285170  0.37337415  0.41758042  1
  Si  Si53  1  0.03052145  0.65714830  0.41758042  1
  O  O54  1  0.22086176  0.02276461  0.31043862  1
  O  O55  1  0.80190285  0.77913824  0.31043862  1
  O  O56  1  0.97723539  0.19809715  0.31043862  1
  O  O57  1  0.22086176  0.19809715  0.81043862  1
  O  O58  1  0.97723539  0.77913824  0.81043862  1
  O  O59  1  0.80190285  0.02276461  0.81043862  1
  O  O60  1  0.80490823  0.96938822  0.69372000  1
  O  O61  1  0.16447999  0.19509177  0.69372000  1
  O  O62  1  0.03061178  0.83552001  0.69372000  1
  O  O63  1  0.80490823  0.83552001  0.19372000  1
  O  O64  1  0.03061178  0.19509177  0.19372000  1
  O  O65  1  0.16447999  0.96938822  0.19372000  1
  O  O66  1  0.88752876  0.35609761  0.64377162  1
  O  O67  1  0.46856985  0.11247124  0.64377162  1
  O  O68  1  0.64390239  0.53143015  0.64377162  1
  O  O69  1  0.88752876  0.53143015  0.14377162  1
  O  O70  1  0.64390239  0.11247124  0.14377162  1
  O  O71  1  0.46856985  0.35609761  0.14377162  1
  O  O72  1  0.47157523  0.30272122  0.02705300  1
  O  O73  1  0.83114699  0.52842477  0.02705300  1
  O  O74  1  0.69727878  0.16885301  0.02705300  1
  O  O75  1  0.47157523  0.16885301  0.52705300  1
  O  O76  1  0.69727878  0.52842477  0.52705300  1
  O  O77  1  0.83114699  0.30272122  0.52705300  1
  O  O78  1  0.55419476  0.68943161  0.97710562  1
  O  O79  1  0.13523585  0.44580524  0.97710562  1
  O  O80  1  0.31056839  0.86476415  0.97710562  1
  O  O81  1  0.55419476  0.86476415  0.47710562  1
  O  O82  1  0.31056839  0.44580524  0.47710562  1
  O  O83  1  0.13523585  0.68943161  0.47710562  1
  O  O84  1  0.13824123  0.63605522  0.36038700  1
  O  O85  1  0.49781299  0.86175877  0.36038700  1
  O  O86  1  0.36394478  0.50218701  0.36038700  1
  O  O87  1  0.13824123  0.50218701  0.86038700  1
  O  O88  1  0.36394478  0.86175877  0.86038700  1
  O  O89  1  0.49781299  0.63605522  0.86038700  1
  O  O90  1  0.99733356  0.81093443  0.41229231  1
  O  O91  1  0.81360088  0.00266644  0.41229231  1
  O  O92  1  0.18906557  0.18639912  0.41229231  1
  O  O93  1  0.99733356  0.18639912  0.91229231  1
  O  O94  1  0.18906557  0.00266644  0.91229231  1
  O  O95  1  0.81360088  0.81093443  0.91229231  1
  O  O96  1  0.96040714  0.14513727  0.58834829  1
  O  O97  1  0.18473013  0.03959286  0.58834829  1
  O  O98  1  0.85486273  0.81526987  0.58834829  1
  O  O99  1  0.96040714  0.81526987  0.08834829  1
  O  O100  1  0.85486273  0.03959286  0.08834829  1
  O  O101  1  0.18473013  0.14513727  0.08834829  1
  O  O102  1  0.66400056  0.14426743  0.74562531  1
  O  O103  1  0.48026788  0.33599944  0.74562531  1
  O  O104  1  0.85573257  0.51973212  0.74562531  1
  O  O105  1  0.66400056  0.51973212  0.24562531  1
  O  O106  1  0.85573257  0.33599944  0.24562531  1
  O  O107  1  0.48026788  0.14426743  0.24562531  1
  O  O108  1  0.62707414  0.47847027  0.92168129  1
  O  O109  1  0.85139713  0.37292586  0.92168129  1
  O  O110  1  0.52152973  0.14860287  0.92168129  1
  O  O111  1  0.62707414  0.14860287  0.42168129  1
  O  O112  1  0.52152973  0.37292586  0.42168129  1
  O  O113  1  0.85139713  0.47847027  0.42168129  1
  O  O114  1  0.33066656  0.47760143  0.07895931  1
  O  O115  1  0.14693388  0.66933344  0.07895931  1
  O  O116  1  0.52239857  0.85306612  0.07895931  1
  O  O117  1  0.33066656  0.85306612  0.57895931  1
  O  O118  1  0.52239857  0.66933344  0.57895931  1
  O  O119  1  0.14693388  0.47760143  0.57895931  1
  O  O120  1  0.29374014  0.81180427  0.25501529  1
  O  O121  1  0.51806313  0.70625986  0.25501529  1
  O  O122  1  0.18819573  0.48193687  0.25501529  1
  O  O123  1  0.29374014  0.48193687  0.75501529  1
  O  O124  1  0.18819573  0.70625986  0.75501529  1
  O  O125  1  0.51806313  0.81180427  0.75501529  1
