# generated using pymatgen
data_NaNbGa(PO4)3
_symmetry_space_group_name_H-M   'P 1'
_cell_length_a   8.66469743
_cell_length_b   8.66469716
_cell_length_c   22.54657176
_cell_angle_alpha   90.00000000
_cell_angle_beta   90.00000000
_cell_angle_gamma   120.00000106
_symmetry_Int_Tables_number   1
_chemical_formula_structural   NaNbGa(PO4)3
_chemical_formula_sum   'Na6 Nb6 Ga6 P18 O72'
_cell_volume   1465.94586719
_cell_formula_units_Z   6
loop_
 _symmetry_equiv_pos_site_id
 _symmetry_equiv_pos_as_xyz
  1  'x, y, z'
loop_
 _atom_site_type_symbol
 _atom_site_label
 _atom_site_symmetry_multiplicity
 _atom_site_fract_x
 _atom_site_fract_y
 _atom_site_fract_z
 _atom_site_occupancy
  Na  Na0  1  -0.00000000  0.00000000  0.49636548  1
  Na  Na1  1  -0.00000000  0.00000000  0.99636548  1
  Na  Na2  1  0.66666700  0.33333300  0.82969848  1
  Na  Na3  1  0.66666700  0.33333300  0.32969848  1
  Na  Na4  1  0.33333300  0.66666700  0.16303248  1
  Na  Na5  1  0.33333300  0.66666700  0.66303248  1
  Nb  Nb6  1  -0.00000000  0.00000000  0.64496159  1
  Nb  Nb7  1  -0.00000000  0.00000000  0.14496159  1
  Nb  Nb8  1  0.66666700  0.33333300  0.97829459  1
  Nb  Nb9  1  0.66666700  0.33333300  0.47829459  1
  Nb  Nb10  1  0.33333300  0.66666700  0.31162859  1
  Nb  Nb11  1  0.33333300  0.66666700  0.81162859  1
  Ga  Ga12  1  -0.00000000  0.00000000  0.35208207  1
  Ga  Ga13  1  -0.00000000  0.00000000  0.85208207  1
  Ga  Ga14  1  0.66666700  0.33333300  0.68541507  1
  Ga  Ga15  1  0.66666700  0.33333300  0.18541507  1
  Ga  Ga16  1  0.33333300  0.66666700  0.01874907  1
  Ga  Ga17  1  0.33333300  0.66666700  0.51874907  1
  P  P18  1  0.29267283  0.00859743  0.25129128  1
  P  P19  1  0.71592459  0.70732717  0.25129128  1
  P  P20  1  0.99140257  0.28407541  0.25129128  1
  P  P21  1  0.29267283  0.28407541  0.75129128  1
  P  P22  1  0.99140257  0.70732717  0.75129128  1
  P  P23  1  0.71592459  0.00859743  0.75129128  1
  P  P24  1  0.95933983  0.34193043  0.58462428  1
  P  P25  1  0.38259159  0.04066017  0.58462428  1
  P  P26  1  0.65806957  0.61740841  0.58462428  1
  P  P27  1  0.95933983  0.61740841  0.08462428  1
  P  P28  1  0.65806957  0.04066017  0.08462428  1
  P  P29  1  0.38259159  0.34193043  0.08462428  1
  P  P30  1  0.62600583  0.67526443  0.91795828  1
  P  P31  1  0.04925759  0.37399417  0.91795828  1
  P  P32  1  0.32473557  0.95074241  0.91795828  1
  P  P33  1  0.62600583  0.95074241  0.41795828  1
  P  P34  1  0.32473557  0.37399417  0.41795828  1
  P  P35  1  0.04925759  0.67526443  0.41795828  1
  O  O36  1  0.20645899  0.03332134  0.30628684  1
  O  O37  1  0.82686235  0.79354101  0.30628684  1
  O  O38  1  0.96667866  0.17313765  0.30628684  1
  O  O39  1  0.20645899  0.17313765  0.80628684  1
  O  O40  1  0.96667866  0.79354101  0.80628684  1
  O  O41  1  0.82686235  0.03332134  0.80628684  1
  O  O42  1  0.79812329  0.96982594  0.69488008  1
  O  O43  1  0.17170265  0.20187671  0.69488008  1
  O  O44  1  0.03017406  0.82829735  0.69488008  1
  O  O45  1  0.79812329  0.82829735  0.19488008  1
  O  O46  1  0.03017406  0.20187671  0.19488008  1
  O  O47  1  0.17170265  0.96982594  0.19488008  1
  O  O48  1  0.87312599  0.36665434  0.63961984  1
  O  O49  1  0.49352935  0.12687401  0.63961984  1
  O  O50  1  0.63334566  0.50647065  0.63961984  1
  O  O51  1  0.87312599  0.50647065  0.13961984  1
  O  O52  1  0.63334566  0.12687401  0.13961984  1
  O  O53  1  0.49352935  0.36665434  0.13961984  1
  O  O54  1  0.46479029  0.30315894  0.02821308  1
  O  O55  1  0.83836965  0.53520971  0.02821308  1
  O  O56  1  0.69684106  0.16163035  0.02821308  1
  O  O57  1  0.46479029  0.16163035  0.52821308  1
  O  O58  1  0.69684106  0.53520971  0.52821308  1
  O  O59  1  0.83836965  0.30315894  0.52821308  1
  O  O60  1  0.53979199  0.69998834  0.97295384  1
  O  O61  1  0.16019535  0.46020801  0.97295384  1
  O  O62  1  0.30001166  0.83980465  0.97295384  1
  O  O63  1  0.53979199  0.83980465  0.47295384  1
  O  O64  1  0.30001166  0.46020801  0.47295384  1
  O  O65  1  0.16019535  0.69998834  0.47295384  1
  O  O66  1  0.13145629  0.63649294  0.36154708  1
  O  O67  1  0.50503565  0.86854371  0.36154708  1
  O  O68  1  0.36350706  0.49496435  0.36154708  1
  O  O69  1  0.13145629  0.49496435  0.86154708  1
  O  O70  1  0.36350706  0.86854371  0.86154708  1
  O  O71  1  0.50503565  0.63649294  0.86154708  1
  O  O72  1  0.02351631  0.83444116  0.40924356  1
  O  O73  1  0.81092486  0.97648369  0.40924356  1
  O  O74  1  0.16555884  0.18907514  0.40924356  1
  O  O75  1  0.02351631  0.18907514  0.90924356  1
  O  O76  1  0.16555884  0.97648369  0.90924356  1
  O  O77  1  0.81092486  0.83444116  0.90924356  1
  O  O78  1  0.97349681  0.16799565  0.59049519  1
  O  O79  1  0.19449883  0.02650319  0.59049519  1
  O  O80  1  0.83200435  0.80550117  0.59049519  1
  O  O81  1  0.97349681  0.80550117  0.09049519  1
  O  O82  1  0.83200435  0.02650319  0.09049519  1
  O  O83  1  0.19449883  0.16799565  0.09049519  1
  O  O84  1  0.69018331  0.16777416  0.74257656  1
  O  O85  1  0.47759186  0.30981669  0.74257656  1
  O  O86  1  0.83222584  0.52240814  0.74257656  1
  O  O87  1  0.69018331  0.52240814  0.24257656  1
  O  O88  1  0.83222584  0.30981669  0.24257656  1
  O  O89  1  0.47759186  0.16777416  0.24257656  1
  O  O90  1  0.64016381  0.50132865  0.92382819  1
  O  O91  1  0.86116583  0.35983619  0.92382819  1
  O  O92  1  0.49867135  0.13883417  0.92382819  1
  O  O93  1  0.64016381  0.13883417  0.42382819  1
  O  O94  1  0.49867135  0.35983619  0.42382819  1
  O  O95  1  0.86116583  0.50132865  0.42382819  1
  O  O96  1  0.35684931  0.50110816  0.07591056  1
  O  O97  1  0.14425786  0.64315069  0.07591056  1
  O  O98  1  0.49889184  0.85574214  0.07591056  1
  O  O99  1  0.35684931  0.85574214  0.57591056  1
  O  O100  1  0.49889184  0.64315069  0.57591056  1
  O  O101  1  0.14425786  0.50110816  0.57591056  1
  O  O102  1  0.30682981  0.83466265  0.25716219  1
  O  O103  1  0.52783183  0.69317019  0.25716219  1
  O  O104  1  0.16533735  0.47216817  0.25716219  1
  O  O105  1  0.30682981  0.47216817  0.75716219  1
  O  O106  1  0.16533735  0.69317019  0.75716219  1
  O  O107  1  0.52783183  0.83466265  0.75716219  1
