# generated using pymatgen
data_Na2Ta5Ga3(PO4)12
_symmetry_space_group_name_H-M   'P 1'
_cell_length_a   17.31401903
_cell_length_b   8.65851392
_cell_length_c   22.44463958
_cell_angle_alpha   89.97887982
_cell_angle_beta   89.99342419
_cell_angle_gamma   119.99588128
_symmetry_Int_Tables_number   1
_chemical_formula_structural   Na2Ta5Ga3(PO4)12
_chemical_formula_sum   'Na6 Ta15 Ga9 P36 O144'
_cell_volume   2914.08681043
_cell_formula_units_Z   3
loop_
 _symmetry_equiv_pos_site_id
 _symmetry_equiv_pos_as_xyz
  1  'x, y, z'
loop_
 _atom_site_type_symbol
 _atom_site_label
 _atom_site_symmetry_multiplicity
 _atom_site_fract_x
 _atom_site_fract_y
 _atom_site_fract_z
 _atom_site_occupancy
  Na  Na0  1  0.33186253  0.33092726  0.82769909  1
  Na  Na1  1  0.83483020  0.33587874  0.82852146  1
  Na  Na2  1  0.33139301  0.33014193  0.32821688  1
  Na  Na3  1  0.83498964  0.33657479  0.32725034  1
  Na  Na4  1  0.66816961  0.66710374  0.16812900  1
  Na  Na5  1  0.16640152  0.66639192  0.66558472  1
  Ta  Ta6  1  0.50052140  0.00195531  0.35578422  1
  Ta  Ta7  1  0.00106650  0.99922369  0.85541811  1
  Ta  Ta8  1  0.49900496  0.00068362  0.85592539  1
  Ta  Ta9  1  0.00261011  0.00261531  0.64207150  1
  Ta  Ta10  1  0.49738269  0.99759455  0.64179242  1
  Ta  Ta11  1  0.99715490  0.99736257  0.14614194  1
  Ta  Ta12  1  0.50264496  0.00188682  0.14385703  1
  Ta  Ta13  1  0.33435464  0.33620225  0.97980554  1
  Ta  Ta14  1  0.83229431  0.33020464  0.98021166  1
  Ta  Ta15  1  0.33023473  0.33362486  0.47785622  1
  Ta  Ta16  1  0.83650962  0.33324279  0.47707516  1
  Ta  Ta17  1  0.16619089  0.66564114  0.02445276  1
  Ta  Ta18  1  0.66844958  0.67050551  0.52277334  1
  Ta  Ta19  1  0.16383870  0.66337488  0.30857478  1
  Ta  Ta20  1  0.66715668  0.66684827  0.80814112  1
  Ga  Ga21  1  0.99947491  0.99800924  0.35450840  1
  Ga  Ga22  1  0.33119715  0.33054902  0.68572484  1
  Ga  Ga23  1  0.83564781  0.33631837  0.68596715  1
  Ga  Ga24  1  0.33363469  0.33242559  0.18796456  1
  Ga  Ga25  1  0.83289200  0.33454942  0.18792301  1
  Ga  Ga26  1  0.66720968  0.66776809  0.02147228  1
  Ga  Ga27  1  0.16527836  0.66327726  0.51825379  1
  Ga  Ga28  1  0.66997667  0.67016987  0.31128026  1
  Ga  Ga29  1  0.16609430  0.66625449  0.81104900  1
  P  P30  1  0.14528699  0.00924207  0.25133384  1
  P  P31  1  0.64765171  0.99961172  0.25033882  1
  P  P32  1  0.35674664  0.70712344  0.24932850  1
  P  P33  1  0.85389186  0.70644312  0.25276195  1
  P  P34  1  0.99461969  0.28029737  0.25173183  1
  P  P35  1  0.50046511  0.29548190  0.24969603  1
  P  P36  1  0.14741817  0.29502554  0.74965950  1
  P  P37  1  0.64633110  0.28397967  0.74864729  1
  P  P38  1  0.00007244  0.70575190  0.74925605  1
  P  P39  1  0.49575211  0.70693738  0.74903564  1
  P  P40  1  0.35239108  0.00006924  0.74953274  1
  P  P41  1  0.85826391  0.00901367  0.74882108  1
  P  P42  1  0.47463272  0.33681834  0.58476561  1
  P  P43  1  0.97991487  0.34314239  0.58523971  1
  P  P44  1  0.19243255  0.03954474  0.58466840  1
  P  P45  1  0.69311002  0.05243117  0.58549683  1
  P  P46  1  0.32741818  0.61402384  0.58504339  1
  P  P47  1  0.83305779  0.61448864  0.58517944  1
  P  P48  1  0.47973500  0.61743799  0.08594465  1
  P  P49  1  0.97439649  0.61779444  0.08574031  1
  P  P50  1  0.33400225  0.05040064  0.08578587  1
  P  P51  1  0.82921705  0.04065062  0.08600801  1
  P  P52  1  0.19072436  0.33066014  0.08631621  1
  P  P53  1  0.69161798  0.34270274  0.08532396  1
  P  P54  1  0.30692464  0.66502838  0.91468471  1
  P  P55  1  0.80803104  0.66607794  0.91821627  1
  P  P56  1  0.02490450  0.38442929  0.91462624  1
  P  P57  1  0.52575565  0.38561836  0.91818510  1
  P  P58  1  0.16809351  0.95003938  0.91486651  1
  P  P59  1  0.66636211  0.94863021  0.91796568  1
  P  P60  1  0.30734964  0.94820072  0.41782614  1
  P  P61  1  0.81203060  0.94899091  0.41325205  1
  P  P62  1  0.16091849  0.37558838  0.41694899  1
  P  P63  1  0.66777534  0.38538485  0.41483539  1
  P  P64  1  0.02626508  0.67763009  0.41749129  1
  P  P65  1  0.52542267  0.66542198  0.41428161  1
  O  O66  1  0.10309812  0.03625016  0.30614892  1
  O  O67  1  0.59937048  0.02683494  0.30515143  1
  O  O68  1  0.41532019  0.80001415  0.30500472  1
  O  O69  1  0.91315091  0.79354739  0.30637741  1
  O  O70  1  0.48669671  0.17233217  0.30496656  1
  O  O71  1  0.98211452  0.16995921  0.30666193  1
  O  O72  1  0.09956755  0.17237379  0.80524322  1
  O  O73  1  0.59991595  0.16990337  0.80499334  1
  O  O74  1  0.48528683  0.80042633  0.80524574  1
  O  O75  1  0.98677750  0.80093773  0.80512137  1
  O  O76  1  0.41379483  0.02594109  0.80500447  1
  O  O77  1  0.91485615  0.03037850  0.80531261  1
  O  O78  1  0.40077270  0.97321017  0.69481595  1
  O  O79  1  0.89964662  0.97125819  0.69455135  1
  O  O80  1  0.08616190  0.19926171  0.69498405  1
  O  O81  1  0.58583338  0.19980939  0.69433031  1
  O  O82  1  0.01303742  0.82767066  0.69458949  1
  O  O83  1  0.51462385  0.82885022  0.69473460  1
  O  O84  1  0.40027119  0.82805712  0.19448353  1
  O  O85  1  0.90033582  0.82756254  0.19515804  1
  O  O86  1  0.01403449  0.20008953  0.19486054  1
  O  O87  1  0.51288284  0.19820189  0.19447660  1
  O  O88  1  0.08626883  0.97291269  0.19442295  1
  O  O89  1  0.58630239  0.97351935  0.19491698  1
  O  O90  1  0.43638211  0.37002905  0.64028633  1
  O  O91  1  0.93680363  0.36978267  0.64031238  1
  O  O92  1  0.24818357  0.12580309  0.63995625  1
  O  O93  1  0.74868776  0.12781431  0.64082708  1
  O  O94  1  0.31585399  0.50432043  0.64054419  1
  O  O95  1  0.81410377  0.50153165  0.64024252  1
  O  O96  1  0.43534974  0.50113956  0.13970763  1
  O  O97  1  0.93604860  0.50161930  0.13934458  1
  O  O98  1  0.31441273  0.12794468  0.13934690  1
  O  O99  1  0.81541966  0.12908933  0.13975323  1
  O  O100  1  0.24971173  0.37144489  0.13975843  1
  O  O101  1  0.74883657  0.36890298  0.13923849  1
  O  O102  1  0.23372060  0.30347942  0.02856657  1
  O  O103  1  0.73362442  0.30599346  0.02816340  1
  O  O104  1  0.41932842  0.53206651  0.02869851  1
  O  O105  1  0.91813081  0.53353455  0.02797323  1
  O  O106  1  0.34845276  0.16375636  0.02816858  1
  O  O107  1  0.84662609  0.16107592  0.02858544  1
  O  O108  1  0.23374847  0.16200956  0.52865587  1
  O  O109  1  0.73345368  0.16532795  0.52884418  1
  O  O110  1  0.34758335  0.53300334  0.52892638  1
  O  O111  1  0.84862546  0.53193970  0.52862556  1
  O  O112  1  0.41733079  0.30230451  0.52831514  1
  O  O113  1  0.91913156  0.30493438  0.52918348  1
  O  O114  1  0.26653595  0.69526163  0.97155291  1
  O  O115  1  0.76906726  0.69949143  0.97306452  1
  O  O116  1  0.08119046  0.46722019  0.97137776  1
  O  O117  1  0.58075598  0.46229100  0.97332370  1
  O  O118  1  0.15279702  0.83760008  0.97157300  1
  O  O119  1  0.64967398  0.83826301  0.97306200  1
  O  O120  1  0.27020134  0.84079514  0.47368835  1
  O  O121  1  0.76502739  0.83670802  0.47092749  1
  O  O122  1  0.15155843  0.46130060  0.47311684  1
  O  O123  1  0.65223576  0.46690560  0.47184604  1
  O  O124  1  0.07994084  0.69837679  0.47311581  1
  O  O125  1  0.58076913  0.69485271  0.47167050  1
  O  O126  1  0.06661298  0.63395480  0.36175309  1
  O  O127  1  0.56396413  0.62851140  0.35960515  1
  O  O128  1  0.25089957  0.86875730  0.36118459  1
  O  O129  1  0.74980799  0.87433671  0.36029472  1
  O  O130  1  0.18344717  0.50063188  0.36143224  1
  O  O131  1  0.68534676  0.49738353  0.35985730  1
  O  O132  1  0.06355053  0.49827166  0.85980058  1
  O  O133  1  0.56642974  0.49885258  0.86122841  1
  O  O134  1  0.18611722  0.87349537  0.85979653  1
  O  O135  1  0.68258076  0.86629897  0.86125269  1
  O  O136  1  0.25088834  0.62892142  0.85955180  1
  O  O137  1  0.75048966  0.63438440  0.86141454  1
  O  O138  1  0.01170587  0.83180662  0.40706762  1
  O  O139  1  0.51319108  0.82972380  0.40734143  1
  O  O140  1  0.40168951  0.97488005  0.40606956  1
  O  O141  1  0.90381627  0.97408290  0.40887166  1
  O  O142  1  0.08410413  0.19176295  0.40670894  1
  O  O143  1  0.58502298  0.19685086  0.40777723  1
  O  O144  1  0.01314907  0.19628564  0.90728578  1
  O  O145  1  0.51264477  0.19760052  0.90634783  1
  O  O146  1  0.08545664  0.97317669  0.90768843  1
  O  O147  1  0.58575901  0.97538672  0.90582830  1
  O  O148  1  0.40153386  0.82925862  0.90752912  1
  O  O149  1  0.90146197  0.82830217  0.90591751  1
  O  O150  1  0.48673861  0.17139554  0.59252296  1
  O  O151  1  0.98579628  0.16948931  0.59340883  1
  O  O152  1  0.09960434  0.02808338  0.59259339  1
  O  O153  1  0.59834038  0.02732967  0.59329674  1
  O  O154  1  0.41466814  0.80111340  0.59292164  1
  O  O155  1  0.91513291  0.80285930  0.59301964  1
  O  O156  1  0.48573945  0.80219137  0.09266722  1
  O  O157  1  0.98730992  0.80549213  0.09146377  1
  O  O158  1  0.41563028  0.02659785  0.09201642  1
  O  O159  1  0.91543899  0.02814351  0.09226002  1
  O  O160  1  0.09743823  0.16825502  0.09211219  1
  O  O161  1  0.59887818  0.17003119  0.09203442  1
  O  O162  1  0.34814905  0.17057099  0.74417176  1
  O  O163  1  0.84597610  0.16959610  0.74419682  1
  O  O164  1  0.23760364  0.30546565  0.74444181  1
  O  O165  1  0.73854768  0.30714053  0.74390952  1
  O  O166  1  0.41498030  0.52307791  0.74401348  1
  O  O167  1  0.91497849  0.52515502  0.74437124  1
  O  O168  1  0.34710506  0.52410277  0.24395865  1
  O  O169  1  0.84600316  0.52395354  0.24263754  1
  O  O170  1  0.41509892  0.30442397  0.24405935  1
  O  O171  1  0.91562181  0.30873061  0.24271089  1
  O  O172  1  0.23876573  0.16857241  0.24254955  1
  O  O173  1  0.73721084  0.16914538  0.24429770  1
  O  O174  1  0.32092047  0.50231016  0.92469186  1
  O  O175  1  0.82029835  0.50013045  0.92356689  1
  O  O176  1  0.43006302  0.35942204  0.92359104  1
  O  O177  1  0.92999091  0.35823218  0.92493308  1
  O  O178  1  0.24927412  0.14067488  0.92511212  1
  O  O179  1  0.74955205  0.13929215  0.92332016  1
  O  O180  1  0.32103573  0.14054745  0.42415738  1
  O  O181  1  0.81959944  0.13681838  0.42589612  1
  O  O182  1  0.24940736  0.36135118  0.42438704  1
  O  O183  1  0.74891168  0.35770568  0.42537629  1
  O  O184  1  0.43034252  0.50209646  0.42515588  1
  O  O185  1  0.93125321  0.50110412  0.42451226  1
  O  O186  1  0.17993641  0.49532776  0.07260181  1
  O  O187  1  0.67859587  0.50129963  0.07577650  1
  O  O188  1  0.06797106  0.64067679  0.07250427  1
  O  O189  1  0.57173110  0.64208927  0.07606000  1
  O  O190  1  0.25237939  0.86350892  0.07256814  1
  O  O191  1  0.74917696  0.85655963  0.07601883  1
  O  O192  1  0.17861410  0.85440026  0.57586597  1
  O  O193  1  0.67924398  0.86395065  0.57366351  1
  O  O194  1  0.24907516  0.64320841  0.57636416  1
  O  O195  1  0.75233081  0.64115613  0.57325170  1
  O  O196  1  0.07242442  0.50143728  0.57655652  1
  O  O197  1  0.56876779  0.49652589  0.57274396  1
  O  O198  1  0.15310403  0.83726480  0.25918218  1
  O  O199  1  0.65129428  0.82888496  0.25567065  1
  O  O200  1  0.26578964  0.69512208  0.25923856  1
  O  O201  1  0.76233101  0.69469644  0.25485390  1
  O  O202  1  0.08127079  0.46791396  0.25862146  1
  O  O203  1  0.58489392  0.47457475  0.25592262  1
  O  O204  1  0.15226178  0.47439087  0.75612121  1
  O  O205  1  0.65237028  0.46741318  0.75962414  1
  O  O206  1  0.08472573  0.69534837  0.75598652  1
  O  O207  1  0.58146583  0.69475519  0.75970091  1
  O  O208  1  0.26291789  0.83038150  0.75601156  1
  O  O209  1  0.76604334  0.83762481  0.75965520  1
