# generated using pymatgen
data_Na3YSc(PO4)3
_symmetry_space_group_name_H-M   'P 1'
_cell_length_a   16.01594252
_cell_length_b   9.18878659
_cell_length_c   9.28916918
_cell_angle_alpha   90.16610181
_cell_angle_beta   125.08922128
_cell_angle_gamma   89.87352259
_symmetry_Int_Tables_number   1
_chemical_formula_structural   Na3YSc(PO4)3
_chemical_formula_sum   'Na12 Y4 Sc4 P12 O48'
_cell_volume   1118.60257084
_cell_formula_units_Z   4
loop_
 _symmetry_equiv_pos_site_id
 _symmetry_equiv_pos_as_xyz
  1  'x, y, z'
loop_
 _atom_site_type_symbol
 _atom_site_label
 _atom_site_symmetry_multiplicity
 _atom_site_fract_x
 _atom_site_fract_y
 _atom_site_fract_z
 _atom_site_occupancy
  Na  Na0  1  0.24362875  0.76927672  0.99671700  1
  Na  Na1  1  0.74735539  0.72897031  0.50607103  1
  Na  Na2  1  0.74797546  0.26872659  0.00680111  1
  Na  Na3  1  0.24355635  0.22937406  0.49792362  1
  Na  Na4  1  0.50361574  0.09218244  0.75377443  1
  Na  Na5  1  0.50145503  0.91581703  0.24063002  1
  Na  Na6  1  0.00427866  0.58992276  0.75193851  1
  Na  Na7  1  0.00053733  0.40167479  0.24178123  1
  Na  Na8  1  0.81662410  0.92528991  0.20263493  1
  Na  Na9  1  0.81587769  0.07694498  0.70439415  1
  Na  Na10  1  0.30866136  0.42400467  0.19104881  1
  Na  Na11  1  0.31517766  0.57216737  0.70819792  1
  Y  Y12  1  0.10350844  0.76077010  0.55423077  1
  Y  Y13  1  0.60283334  0.26042292  0.55510576  1
  Y  Y14  1  0.39733353  0.74899341  0.44136033  1
  Y  Y15  1  0.60457481  0.73990608  0.05561914  1
  Sc  Sc16  1  0.89913554  0.75103104  0.94501304  1
  Sc  Sc17  1  0.89980792  0.24884567  0.44527514  1
  Sc  Sc18  1  0.10174226  0.24168635  0.05270807  1
  Sc  Sc19  1  0.39799341  0.25113435  0.94408635  1
  P  P20  1  0.99748996  0.95514038  0.74981831  1
  P  P21  1  0.99621993  0.05366993  0.24011382  1
  P  P22  1  0.49432865  0.43999545  0.74716985  1
  P  P23  1  0.49463393  0.55122974  0.23861324  1
  P  P24  1  0.35490949  0.90408080  0.76333584  1
  P  P25  1  0.65678302  0.89802420  0.75078670  1
  P  P26  1  0.65295120  0.10578986  0.24781422  1
  P  P27  1  0.35103022  0.10482300  0.24844517  1
  P  P28  1  0.85997019  0.39969324  0.75733282  1
  P  P29  1  0.14969028  0.39196680  0.75065008  1
  P  P30  1  0.14775926  0.59695744  0.24138398  1
  P  P31  1  0.85728880  0.59815676  0.25646480  1
  O  O32  1  0.15509073  0.56162138  0.74607773  1
  O  O33  1  0.85444439  0.56906635  0.75845130  1
  O  O34  1  0.85248683  0.42904702  0.25561163  1
  O  O35  1  0.15112307  0.42792070  0.23102818  1
  O  O36  1  0.66346237  0.06661253  0.74718973  1
  O  O37  1  0.34825781  0.07237778  0.76140053  1
  O  O38  1  0.34519136  0.93629999  0.23955948  1
  O  O39  1  0.65972955  0.93666269  0.24254954  1
  O  O40  1  0.43120084  0.53328953  0.57815880  1
  O  O41  1  0.55189589  0.54137334  0.90718655  1
  O  O42  1  0.55024463  0.45745315  0.40482999  1
  O  O43  1  0.43778910  0.45093088  0.07375767  1
  O  O44  1  0.93326432  0.04947044  0.58038146  1
  O  O45  1  0.05474372  0.05935717  0.90964139  1
  O  O46  1  0.06035457  0.96014316  0.40650606  1
  O  O47  1  0.93123230  0.95167281  0.07801882  1
  O  O48  1  0.26726928  0.82579135  0.75586860  1
  O  O49  1  0.74748614  0.82999129  0.75650208  1
  O  O50  1  0.74458840  0.17164963  0.25463326  1
  O  O51  1  0.25829084  0.17714062  0.23266729  1
  O  O52  1  0.77048897  0.32622540  0.74943425  1
  O  O53  1  0.24263996  0.32944111  0.75916102  1
  O  O54  1  0.23598936  0.66104505  0.23810475  1
  O  O55  1  0.76787619  0.67226389  0.24829909  1
  O  O56  1  0.35682158  0.85895806  0.60441945  1
  O  O57  1  0.66071032  0.86238573  0.91753994  1
  O  O58  1  0.65873421  0.13907856  0.41731207  1
  O  O59  1  0.35986650  0.15821831  0.09945957  1
  O  O60  1  0.86134125  0.35388101  0.59741021  1
  O  O61  1  0.15187737  0.35507461  0.91609410  1
  O  O62  1  0.15926939  0.63092649  0.41608771  1
  O  O63  1  0.86073779  0.64680249  0.09995027  1
  O  O64  1  0.45538388  0.85352788  0.93429034  1
  O  O65  1  0.55468613  0.84437257  0.58376918  1
  O  O66  1  0.54957102  0.16057222  0.08411407  1
  O  O67  1  0.44869424  0.15296194  0.42693461  1
  O  O68  1  0.96042241  0.34609542  0.92708283  1
  O  O69  1  0.04787881  0.33579781  0.58278581  1
  O  O70  1  0.04416003  0.65764158  0.08304247  1
  O  O71  1  0.95562056  0.65042080  0.42985036  1
  O  O72  1  0.07318650  0.85063928  0.75011043  1
  O  O73  1  0.92042350  0.86056319  0.76156207  1
  O  O74  1  0.91914026  0.14791094  0.25316384  1
  O  O75  1  0.06760017  0.15876173  0.22774076  1
  O  O76  1  0.57174395  0.33509400  0.75227926  1
  O  O77  1  0.41514421  0.34661760  0.75368673  1
  O  O78  1  0.41061672  0.64342994  0.23187067  1
  O  O79  1  0.57250085  0.65675141  0.24718387  1
