# generated using pymatgen
data_MgV5O12
_symmetry_space_group_name_H-M   'P 1'
_cell_length_a   5.12681602
_cell_length_b   5.08211072
_cell_length_c   9.18469393
_cell_angle_alpha   88.36462259
_cell_angle_beta   94.70293407
_cell_angle_gamma   66.53173786
_symmetry_Int_Tables_number   1
_chemical_formula_structural   MgV5O12
_chemical_formula_sum   'Mg1 V5 O12'
_cell_volume   218.28262209
_cell_formula_units_Z   1
loop_
 _symmetry_equiv_pos_site_id
 _symmetry_equiv_pos_as_xyz
  1  'x, y, z'
loop_
 _atom_site_type_symbol
 _atom_site_label
 _atom_site_symmetry_multiplicity
 _atom_site_fract_x
 _atom_site_fract_y
 _atom_site_fract_z
 _atom_site_occupancy
  Mg  Mg0  1  0.63433000  0.84815800  0.11794400  1
  V  V1  1  0.02777900  0.08448300  0.27402200  1
  V  V2  1  0.08267200  0.47024200  0.95413200  1
  V  V3  1  0.47804500  0.02104400  0.53503800  1
  V  V4  1  0.38458800  0.45865500  0.25994000  1
  V  V5  1  0.62787700  0.55875500  0.74053400  1
  O  O6  1  0.97096500  0.25673100  0.84437200  1
  O  O7  1  0.28906100  0.91865600  0.65015500  1
  O  O8  1  0.18681700  0.31129400  0.38990700  1
  O  O9  1  0.27040700  0.19837900  0.11882100  1
  O  O10  1  0.34203600  0.52578200  0.87324300  1
  O  O11  1  0.55745200  0.27788000  0.62377800  1
  O  O12  1  0.36978700  0.78758500  0.36429700  1
  O  O13  1  0.69097200  0.43937100  0.16549100  1
  O  O14  1  0.73402200  0.76084400  0.90925500  1
  O  O15  1  0.78986100  0.68293300  0.60472600  1
  O  O16  1  0.72774900  0.06513700  0.35075600  1
  O  O17  1  0.06415900  0.75015200  0.14501900  1
