# generated using pymatgen
data_Ba4Ga2S7
_symmetry_space_group_name_H-M   'P 1'
_cell_length_a   7.18347878
_cell_length_b   9.09843962
_cell_length_c   11.93748345
_cell_angle_alpha   71.05997056
_cell_angle_beta   90.00000000
_cell_angle_gamma   90.00000000
_symmetry_Int_Tables_number   1
_chemical_formula_structural   Ba4Ga2S7
_chemical_formula_sum   'Ba8 Ga4 S14'
_cell_volume   737.97361205
_cell_formula_units_Z   2
loop_
 _symmetry_equiv_pos_site_id
 _symmetry_equiv_pos_as_xyz
  1  'x, y, z'
loop_
 _atom_site_type_symbol
 _atom_site_label
 _atom_site_symmetry_multiplicity
 _atom_site_fract_x
 _atom_site_fract_y
 _atom_site_fract_z
 _atom_site_occupancy
  Ba  Ba0  1  0.75000000  0.99078882  0.38714704  1
  Ba  Ba1  1  0.25000000  0.00921118  0.61285296  1
  Ba  Ba2  1  0.75000000  0.92307433  0.93322454  1
  Ba  Ba3  1  0.25000000  0.07692567  0.06677546  1
  Ba  Ba4  1  0.75000000  0.46866419  0.18194389  1
  Ba  Ba5  1  0.25000000  0.53133581  0.81805611  1
  Ba  Ba6  1  0.75000000  0.37023543  0.60857700  1
  Ba  Ba7  1  0.25000000  0.62976457  0.39142300  1
  Ga  Ga8  1  0.75000000  0.73231607  0.68769842  1
  Ga  Ga9  1  0.25000000  0.26768393  0.31230158  1
  Ga  Ga10  1  0.75000000  0.31268855  0.91917818  1
  Ga  Ga11  1  0.25000000  0.68731145  0.08082182  1
  S  S12  1  0.75000000  0.98953539  0.65765358  1
  S  S13  1  0.25000000  0.01046461  0.34234642  1
  S  S14  1  0.75000000  0.16430299  0.11143948  1
  S  S15  1  0.25000000  0.83569701  0.88856052  1
  S  S16  1  0.75000000  0.58185873  0.88775994  1
  S  S17  1  0.25000000  0.41814127  0.11224006  1
  S  S18  1  0.49951076  0.31391429  0.41106126  1
  S  S19  1  -0.00048924  0.68608571  0.58893874  1
  S  S20  1  0.50048924  0.68608571  0.58893874  1
  S  S21  1  0.00048924  0.31391429  0.41106126  1
  S  S22  1  0.50222133  0.75807962  0.16552281  1
  S  S23  1  0.00222133  0.24192038  0.83447719  1
  S  S24  1  0.99777867  0.75807962  0.16552281  1
  S  S25  1  0.49777867  0.24192038  0.83447719  1
