# generated using pymatgen
data_Na3Al2In2P3(SO8)3
_symmetry_space_group_name_H-M   'P 1'
_cell_length_a   8.67678723
_cell_length_b   8.67053866
_cell_length_c   22.39368790
_cell_angle_alpha   88.85263257
_cell_angle_beta   91.04605146
_cell_angle_gamma   120.03065814
_symmetry_Int_Tables_number   1
_chemical_formula_structural   Na3Al2In2P3(SO8)3
_chemical_formula_sum   'Na9 Al6 In6 P9 S9 O72'
_cell_volume   1458.21073269
_cell_formula_units_Z   3
loop_
 _symmetry_equiv_pos_site_id
 _symmetry_equiv_pos_as_xyz
  1  'x, y, z'
loop_
 _atom_site_type_symbol
 _atom_site_label
 _atom_site_symmetry_multiplicity
 _atom_site_fract_x
 _atom_site_fract_y
 _atom_site_fract_z
 _atom_site_occupancy
  Na  Na0  1  0.36372639  0.36323763  0.25165633  1
  Na  Na1  1  0.68521616  0.01429600  0.91878336  1
  Na  Na2  1  0.97882879  0.30854907  0.41602560  1
  Na  Na3  1  0.00947723  0.99165085  0.49406688  1
  Na  Na4  1  0.00715074  0.98559235  0.00410485  1
  Na  Na5  1  0.65507301  0.33938014  0.83591604  1
  Na  Na6  1  0.66697341  0.33384153  0.33198902  1
  Na  Na7  1  0.33347201  0.69471155  0.17001181  1
  Na  Na8  1  0.33126014  0.66649286  0.66542311  1
  Al  Al9  1  0.01801833  0.00642846  0.34488276  1
  Al  Al10  1  0.00190839  0.00954071  0.15195436  1
  Al  Al11  1  0.66894064  0.31159482  0.18731251  1
  Al  Al12  1  0.66444630  0.32773867  0.98791994  1
  Al  Al13  1  0.66887726  0.34781051  0.47709717  1
  Al  Al14  1  0.30853016  0.65915296  0.31554812  1
  In  In15  1  0.00069927  0.99452046  0.85152924  1
  In  In16  1  0.99252660  0.00863259  0.64283014  1
  In  In17  1  0.67138099  0.32559531  0.68292103  1
  In  In18  1  0.34084679  0.67638210  0.02507005  1
  In  In19  1  0.32079515  0.66136546  0.50979341  1
  In  In20  1  0.34783939  0.67682002  0.82166516  1
  P  P21  1  0.28671935  0.99433247  0.24781288  1
  P  P22  1  0.99800221  0.28779326  0.25085264  1
  P  P23  1  0.69678751  0.99696526  0.75189236  1
  P  P24  1  0.95514806  0.33490652  0.57547147  1
  P  P25  1  0.68387213  0.05277135  0.08754293  1
  P  P26  1  0.63232652  0.65069170  0.92274936  1
  P  P27  1  0.34040814  0.97857855  0.92269610  1
  P  P28  1  0.33576009  0.36852877  0.41046648  1
  P  P29  1  0.03093086  0.67387583  0.41174371  1
  S  S30  1  0.71431335  0.71719324  0.24854774  1
  S  S31  1  0.30134915  0.30402040  0.74861138  1
  S  S32  1  0.00314628  0.70117213  0.74824360  1
  S  S33  1  0.37746183  0.04434384  0.57728716  1
  S  S34  1  0.66625707  0.62220338  0.57825956  1
  S  S35  1  0.93974488  0.61572325  0.08916665  1
  S  S36  1  0.37841796  0.32030840  0.08923016  1
  S  S37  1  0.02979257  0.37405908  0.92150167  1
  S  S38  1  0.62759556  0.95872288  0.41179798  1
  O  O39  1  0.21014791  0.04376681  0.30102278  1
  O  O40  1  0.82660440  0.80301663  0.30142234  1
  O  O41  1  0.96828972  0.17258087  0.30772668  1
  O  O42  1  0.22086808  0.19662888  0.80299291  1
  O  O43  1  0.99315907  0.78525077  0.80333484  1
  O  O44  1  0.79174576  0.00894219  0.81224902  1
  O  O45  1  0.79303973  0.98528508  0.69709793  1
  O  O46  1  0.20429968  0.21782194  0.69304888  1
  O  O47  1  0.02428242  0.80774298  0.69335445  1
  O  O48  1  0.79631184  0.82461769  0.19371413  1
  O  O49  1  0.04153457  0.20400289  0.19788418  1
  O  O50  1  0.16604657  0.96154120  0.19248733  1
  O  O51  1  0.87852750  0.34858016  0.63471184  1
  O  O52  1  0.45986816  0.11488810  0.63607571  1
  O  O53  1  0.64456187  0.52806648  0.63581243  1
  O  O54  1  0.84940031  0.51060211  0.14330755  1
  O  O55  1  0.65816686  0.14597669  0.14038889  1
  O  O56  1  0.48716923  0.34518918  0.14411086  1
  O  O57  1  0.46464477  0.30430153  0.03536528  1
  O  O58  1  0.83766420  0.52939258  0.03414986  1
  O  O59  1  0.70099307  0.15717806  0.02847417  1
  O  O60  1  0.47825549  0.15925615  0.52607138  1
  O  O61  1  0.66958757  0.52154464  0.52641466  1
  O  O62  1  0.84512133  0.33082396  0.51943781  1
  O  O63  1  0.54542740  0.69795614  0.97295054  1
  O  O64  1  0.14305255  0.45361654  0.97419311  1
  O  O65  1  0.29112158  0.85197395  0.97663862  1
  O  O66  1  0.56429598  0.85869962  0.46887784  1
  O  O67  1  0.27963318  0.43404067  0.46518360  1
  O  O68  1  0.14196963  0.72704808  0.46969889  1
  O  O69  1  0.12425068  0.62479626  0.36306852  1
  O  O70  1  0.50501462  0.86455807  0.36149656  1
  O  O71  1  0.36766056  0.49470882  0.35569472  1
  O  O72  1  0.10477241  0.47582002  0.86542943  1
  O  O73  1  0.38242467  0.90434388  0.86663889  1
  O  O74  1  0.52377079  0.60904436  0.86378016  1
  O  O75  1  0.00253067  0.83007791  0.39567321  1
  O  O76  1  0.80974849  0.98671751  0.40357451  1
  O  O77  1  0.17008377  0.18045332  0.40028664  1
  O  O78  1  0.00018199  0.18976177  0.91715464  1
  O  O79  1  0.18799889  0.01807998  0.91441652  1
  O  O80  1  0.81732295  0.82226659  0.91691907  1
  O  O81  1  0.96343160  0.15985120  0.57354631  1
  O  O82  1  0.19719284  0.02611372  0.57638079  1
  O  O83  1  0.83841783  0.79358125  0.57799054  1
  O  O84  1  0.95913541  0.79556732  0.09184998  1
  O  O85  1  0.85522475  0.03855687  0.09542451  1
  O  O86  1  0.20072080  0.15557846  0.09376523  1
  O  O87  1  0.67758952  0.16443598  0.75108349  1
  O  O88  1  0.48471826  0.33319194  0.74658338  1
  O  O89  1  0.83600537  0.52759631  0.74653519  1
  O  O90  1  0.68913856  0.53289594  0.24461322  1
  O  O91  1  0.83337071  0.31048876  0.24185189  1
  O  O92  1  0.47688705  0.16458792  0.23924383  1
  O  O93  1  0.65502708  0.49039709  0.93664086  1
  O  O94  1  0.85183867  0.35718610  0.92813829  1
  O  O95  1  0.51530469  0.15608029  0.93349290  1
  O  O96  1  0.64561005  0.13983469  0.41682968  1
  O  O97  1  0.50316007  0.35280241  0.42264880  1
  O  O98  1  0.84733041  0.49877664  0.42086022  1
  O  O99  1  0.35365515  0.47817802  0.08583249  1
  O  O100  1  0.11853698  0.62940483  0.08760795  1
  O  O101  1  0.51616445  0.86384185  0.08712785  1
  O  O102  1  0.36471875  0.86825978  0.57421704  1
  O  O103  1  0.51499727  0.65466246  0.57374215  1
  O  O104  1  0.14483475  0.49794509  0.57547717  1
  O  O105  1  0.30633357  0.82863700  0.26077325  1
  O  O106  1  0.53314788  0.69578307  0.25406719  1
  O  O107  1  0.16896601  0.47613033  0.25939921  1
  O  O108  1  0.30644118  0.47614646  0.75199595  1
  O  O109  1  0.15724727  0.67265860  0.75196577  1
  O  O110  1  0.51124747  0.82897820  0.75094278  1
