# generated using pymatgen
data_Rb2CoBr4
_symmetry_space_group_name_H-M   'P 1'
_cell_length_a   7.59291564
_cell_length_b   9.77298551
_cell_length_c   13.33554150
_cell_angle_alpha   90.00000000
_cell_angle_beta   90.00000000
_cell_angle_gamma   90.00000000
_symmetry_Int_Tables_number   1
_chemical_formula_structural   Rb2CoBr4
_chemical_formula_sum   'Rb8 Co4 Br16'
_cell_volume   989.56991839
_cell_formula_units_Z   4
loop_
 _symmetry_equiv_pos_site_id
 _symmetry_equiv_pos_as_xyz
  1  'x, y, z'
loop_
 _atom_site_type_symbol
 _atom_site_label
 _atom_site_symmetry_multiplicity
 _atom_site_fract_x
 _atom_site_fract_y
 _atom_site_fract_z
 _atom_site_occupancy
  Rb  Rb0  1  0.25000000  0.62436594  0.58377601  1
  Rb  Rb1  1  0.75000000  0.37563406  0.41622399  1
  Rb  Rb2  1  0.25000000  0.12436594  0.91622399  1
  Rb  Rb3  1  0.75000000  0.87563406  0.08377601  1
  Rb  Rb4  1  0.25000000  0.98264880  0.32733929  1
  Rb  Rb5  1  0.75000000  0.01735120  0.67266071  1
  Rb  Rb6  1  0.25000000  0.48264880  0.17266071  1
  Rb  Rb7  1  0.75000000  0.51735120  0.82733929  1
  Co  Co8  1  0.25000000  0.72639177  0.92374790  1
  Co  Co9  1  0.25000000  0.22639177  0.57625210  1
  Co  Co10  1  0.75000000  0.77360823  0.42374790  1
  Co  Co11  1  0.75000000  0.27360823  0.07625210  1
  Br  Br12  1  0.99455197  0.32123386  0.65381775  1
  Br  Br13  1  0.49455197  0.67876614  0.34618225  1
  Br  Br14  1  0.50544803  0.82123386  0.84618225  1
  Br  Br15  1  0.00544803  0.17876614  0.15381775  1
  Br  Br16  1  0.99455197  0.82123386  0.84618225  1
  Br  Br17  1  0.00544803  0.67876614  0.34618225  1
  Br  Br18  1  0.49455197  0.17876614  0.15381775  1
  Br  Br19  1  0.50544803  0.32123386  0.65381775  1
  Br  Br20  1  0.75000000  0.51725450  0.09030634  1
  Br  Br21  1  0.25000000  0.48274550  0.90969366  1
  Br  Br22  1  0.75000000  0.01725450  0.40969366  1
  Br  Br23  1  0.25000000  0.98274550  0.59030634  1
  Br  Br24  1  0.75000000  0.18423554  0.90877219  1
  Br  Br25  1  0.25000000  0.81576446  0.09122781  1
  Br  Br26  1  0.75000000  0.68423554  0.59122781  1
  Br  Br27  1  0.25000000  0.31576446  0.40877219  1
