# generated using pymatgen
data_NaSc2Ga2PS5O24
_symmetry_space_group_name_H-M   'P 1'
_cell_length_a   8.64206609
_cell_length_b   8.63663995
_cell_length_c   22.58699956
_cell_angle_alpha   89.98898201
_cell_angle_beta   90.07787902
_cell_angle_gamma   119.88647184
_symmetry_Int_Tables_number   1
_chemical_formula_structural   NaSc2Ga2PS5O24
_chemical_formula_sum   'Na3 Sc6 Ga6 P3 S15 O72'
_cell_volume   1461.66145423
_cell_formula_units_Z   3
loop_
 _symmetry_equiv_pos_site_id
 _symmetry_equiv_pos_as_xyz
  1  'x, y, z'
loop_
 _atom_site_type_symbol
 _atom_site_label
 _atom_site_symmetry_multiplicity
 _atom_site_fract_x
 _atom_site_fract_y
 _atom_site_fract_z
 _atom_site_occupancy
  Na  Na0  1  0.99922611  0.99209644  0.99776680  1
  Na  Na1  1  0.65889258  0.33209508  0.83545086  1
  Na  Na2  1  0.67264212  0.33210577  0.33354553  1
  Sc  Sc3  1  0.99943037  0.99375053  0.85311813  1
  Sc  Sc4  1  0.00225857  0.00762927  0.15142903  1
  Sc  Sc5  1  0.67328553  0.33410099  0.18858820  1
  Sc  Sc6  1  0.66121545  0.33361490  0.97823652  1
  Sc  Sc7  1  0.33838785  0.67317687  0.01888902  1
  Sc  Sc8  1  0.34104452  0.67269629  0.81189883  1
  Ga  Ga9  1  0.99760956  0.00508444  0.35276339  1
  Ga  Ga10  1  0.00063623  0.00015206  0.64630781  1
  Ga  Ga11  1  0.66578583  0.33325807  0.68136291  1
  Ga  Ga12  1  0.66664680  0.33337686  0.48401764  1
  Ga  Ga13  1  0.33259973  0.66682681  0.51882847  1
  Ga  Ga14  1  0.32781967  0.66009489  0.31420894  1
  P  P15  1  0.00594752  0.29497636  0.25576987  1
  P  P16  1  0.62561457  0.66762611  0.91570364  1
  P  P17  1  0.33367526  0.95865801  0.91570002  1
  S  S18  1  0.28861158  0.99409053  0.25528429  1
  S  S19  1  0.70558329  0.71213332  0.25520994  1
  S  S20  1  0.29436135  0.28706717  0.74518577  1
  S  S21  1  0.99162081  0.70295099  0.74483316  1
  S  S22  1  0.71427115  0.00948042  0.74491301  1
  S  S23  1  0.95819651  0.33401917  0.58241864  1
  S  S24  1  0.37559090  0.04168830  0.58244730  1
  S  S25  1  0.66607159  0.62459276  0.58249135  1
  S  S26  1  0.95967331  0.62800534  0.08382936  1
  S  S27  1  0.66904000  0.04172155  0.08378402  1
  S  S28  1  0.37263178  0.33188647  0.08446626  1
  S  S29  1  0.04269459  0.37566145  0.91554757  1
  S  S30  1  0.62099578  0.95502913  0.41732795  1
  S  S31  1  0.33544263  0.37684437  0.41799057  1
  S  S32  1  0.04200322  0.66763708  0.41740716  1
  O  O33  1  0.20614466  0.02653831  0.30798029  1
  O  O34  1  0.82334288  0.79031006  0.30779162  1
  O  O35  1  0.96690004  0.17269208  0.31029046  1
  O  O36  1  0.21625977  0.17647149  0.79837487  1
  O  O37  1  0.95872683  0.78105391  0.79817668  1
  O  O38  1  0.82373058  0.04106972  0.79837972  1
  O  O39  1  0.79801699  0.98123055  0.69177127  1
  O  O40  1  0.18322473  0.20314542  0.69173583  1
  O  O41  1  0.02077405  0.81599546  0.69184041  1
  O  O42  1  0.78641272  0.81658231  0.20117618  1
  O  O43  1  0.03192712  0.20953600  0.19983077  1
  O  O44  1  0.18173825  0.96528182  0.20129410  1
  O  O45  1  0.87929344  0.37160080  0.63512216  1
  O  O46  1  0.49201779  0.12042519  0.63527302  1
  O  O47  1  0.62855608  0.50815282  0.63527551  1
  O  O48  1  0.87239965  0.52141839  0.13736568  1
  O  O49  1  0.65002034  0.12867872  0.13728896  1
  O  O50  1  0.47929392  0.35154610  0.13771730  1
  O  O51  1  0.45556346  0.30491081  0.03125388  1
  O  O52  1  0.84905859  0.54491909  0.03085471  1
  O  O53  1  0.69596878  0.15118894  0.03078785  1
  O  O54  1  0.45456300  0.15848729  0.52947741  1
  O  O55  1  0.70394514  0.54535663  0.52954925  1
  O  O56  1  0.84125479  0.29611129  0.52927627  1
  O  O57  1  0.53870165  0.68852302  0.97169941  1
  O  O58  1  0.14716364  0.45597650  0.96961407  1
  O  O59  1  0.30549406  0.84784803  0.97160807  1
  O  O60  1  0.54024301  0.84505446  0.47114518  1
  O  O61  1  0.30368034  0.45731478  0.47143827  1
  O  O62  1  0.15315624  0.69876583  0.47118530  1
  O  O63  1  0.12025227  0.62983447  0.36483298  1
  O  O64  1  0.50591541  0.87639644  0.36444286  1
  O  O65  1  0.37365533  0.49236355  0.36523419  1
  O  O66  1  0.12522767  0.48165576  0.86212679  1
  O  O67  1  0.35311579  0.86904585  0.85992054  1
  O  O68  1  0.51363912  0.64083827  0.85997073  1
  O  O69  1  0.02230503  0.82627599  0.40852548  1
  O  O70  1  0.79840431  0.97205514  0.40984860  1
  O  O71  1  0.17799719  0.19829955  0.40975428  1
  O  O72  1  0.02385537  0.19689031  0.91024674  1
  O  O73  1  0.16976324  0.98342053  0.91028373  1
  O  O74  1  0.80934922  0.83729144  0.91022719  1
  O  O75  1  0.97731933  0.17479347  0.59150071  1
  O  O76  1  0.19751886  0.02281440  0.59156755  1
  O  O77  1  0.82513378  0.80250832  0.59173256  1
  O  O78  1  0.97840962  0.80725908  0.08977453  1
  O  O79  1  0.82894306  0.02113340  0.08902783  1
  O  O80  1  0.19429164  0.16857603  0.08906952  1
  O  O81  1  0.69709086  0.17326492  0.73801211  1
  O  O82  1  0.47533216  0.30386023  0.73832374  1
  O  O83  1  0.82676699  0.52354197  0.73787987  1
  O  O84  1  0.68069494  0.53028488  0.24876672  1
  O  O85  1  0.83925324  0.31601622  0.24860424  1
  O  O86  1  0.46680994  0.15534166  0.24864249  1
  O  O87  1  0.65081523  0.50407107  0.92015752  1
  O  O88  1  0.86407859  0.35656739  0.92052550  1
  O  O89  1  0.50296035  0.14245766  0.92042294  1
  O  O90  1  0.64073954  0.13782978  0.42474347  1
  O  O91  1  0.49912398  0.35850903  0.42576666  1
  O  O92  1  0.86039222  0.50412098  0.42514750  1
  O  O93  1  0.35243380  0.48888662  0.07844309  1
  O  O94  1  0.13436508  0.64192378  0.07841510  1
  O  O95  1  0.50910888  0.86601025  0.07923395  1
  O  O96  1  0.35813470  0.86361479  0.57305853  1
  O  O97  1  0.50574197  0.64238500  0.57299640  1
  O  O98  1  0.13597416  0.49426718  0.57287972  1
  O  O99  1  0.30869977  0.83572807  0.26297070  1
  O  O100  1  0.53159326  0.70142927  0.26322221  1
  O  O101  1  0.17389519  0.47799993  0.26365040  1
  O  O102  1  0.31292580  0.46333640  0.75202550  1
  O  O103  1  0.14707437  0.68112415  0.75221701  1
  O  O104  1  0.53715343  0.85232919  0.75117733  1
