# generated using pymatgen
data_Na10Ti4Zn4Si5S7O48
_symmetry_space_group_name_H-M   'P 1'
_cell_length_a   17.81150612
_cell_length_b   8.96281405
_cell_length_c   22.18760183
_cell_angle_alpha   89.72958205
_cell_angle_beta   89.48533917
_cell_angle_gamma   120.17580274
_symmetry_Int_Tables_number   1
_chemical_formula_structural   Na10Ti4Zn4Si5S7O48
_chemical_formula_sum   'Na30 Ti12 Zn12 Si15 S21 O144'
_cell_volume   3061.76348016
_cell_formula_units_Z   3
loop_
 _symmetry_equiv_pos_site_id
 _symmetry_equiv_pos_as_xyz
  1  'x, y, z'
loop_
 _atom_site_type_symbol
 _atom_site_label
 _atom_site_symmetry_multiplicity
 _atom_site_fract_x
 _atom_site_fract_y
 _atom_site_fract_z
 _atom_site_occupancy
  Na  Na0  1  0.32559064  0.02310896  0.24904698  1
  Na  Na1  1  0.67985765  0.35433642  0.25356870  1
  Na  Na2  1  0.99599710  0.62806594  0.24429406  1
  Na  Na3  1  0.49671302  0.62494666  0.24262632  1
  Na  Na4  1  0.32305723  0.62457110  0.75162335  1
  Na  Na5  1  0.82317757  0.62459104  0.75049726  1
  Na  Na6  1  0.99556507  0.36709794  0.74242623  1
  Na  Na7  1  0.49573283  0.36709418  0.74293362  1
  Na  Na8  1  0.17948168  0.00757658  0.75236706  1
  Na  Na9  1  0.68028494  0.00812140  0.75166196  1
  Na  Na10  1  0.33271452  0.96390065  0.57702194  1
  Na  Na11  1  0.83258260  0.96458534  0.57586530  1
  Na  Na12  1  0.33316805  0.70172820  0.07706464  1
  Na  Na13  1  0.83065966  0.69949653  0.07625885  1
  Na  Na14  1  0.48549981  0.68177441  0.91084658  1
  Na  Na15  1  0.98590357  0.68196899  0.91012196  1
  Na  Na16  1  0.48789275  0.29197314  0.40861392  1
  Na  Na17  1  0.16329699  0.03104579  0.41118787  1
  Na  Na18  1  0.99096622  0.00045776  0.49539203  1
  Na  Na19  1  0.50225912  0.99447840  0.49525134  1
  Na  Na20  1  0.99973695  0.01096663  0.99346636  1
  Na  Na21  1  0.49858668  0.00554689  0.99619893  1
  Na  Na22  1  0.32713316  0.33313469  0.83106573  1
  Na  Na23  1  0.82752806  0.33319706  0.83000671  1
  Na  Na24  1  0.32851606  0.33473253  0.32553473  1
  Na  Na25  1  0.82488519  0.30534655  0.33232179  1
  Na  Na26  1  0.15717375  0.65655142  0.15916406  1
  Na  Na27  1  0.65703293  0.67117176  0.16076881  1
  Na  Na28  1  0.15298974  0.64461261  0.65906023  1
  Na  Na29  1  0.65496036  0.64698048  0.65807183  1
  Ti  Ti30  1  0.01096396  0.01702506  0.64804904  1
  Ti  Ti31  1  0.51250254  0.01871856  0.64818528  1
  Ti  Ti32  1  0.00730038  0.98985875  0.14560705  1
  Ti  Ti33  1  0.51118156  0.00458912  0.14926001  1
  Ti  Ti34  1  0.33582527  0.35552133  0.98171341  1
  Ti  Ti35  1  0.83554458  0.35430152  0.98062612  1
  Ti  Ti36  1  0.34072278  0.32691329  0.48131109  1
  Ti  Ti37  1  0.83843276  0.31400163  0.47939511  1
  Ti  Ti38  1  0.17045319  0.68369368  0.31592302  1
  Ti  Ti39  1  0.67079648  0.68834784  0.31158625  1
  Ti  Ti40  1  0.16646238  0.65151218  0.81340529  1
  Ti  Ti41  1  0.66637866  0.65132487  0.81334863  1
  Zn  Zn42  1  0.99618267  0.00777830  0.35076470  1
  Zn  Zn43  1  0.50136490  0.00957447  0.34844184  1
  Zn  Zn44  1  0.99879143  0.98898271  0.84931192  1
  Zn  Zn45  1  0.49852703  0.98904773  0.84981015  1
  Zn  Zn46  1  0.34102746  0.35415325  0.68264654  1
  Zn  Zn47  1  0.84127042  0.35527428  0.68165735  1
  Zn  Zn48  1  0.33810282  0.32832416  0.18367835  1
  Zn  Zn49  1  0.83550931  0.31926115  0.18169075  1
  Zn  Zn50  1  0.16567746  0.67348449  0.01685258  1
  Zn  Zn51  1  0.66430830  0.67200991  0.01690377  1
  Zn  Zn52  1  0.16271340  0.65090372  0.51654693  1
  Zn  Zn53  1  0.66706255  0.65812775  0.51583608  1
  Si  Si54  1  0.14637291  0.00543889  0.25493852  1
  Si  Si55  1  0.65108403  0.00948383  0.25232190  1
  Si  Si56  1  0.50190583  0.29607187  0.25213426  1
  Si  Si57  1  0.14677070  0.28925478  0.75233842  1
  Si  Si58  1  0.64712458  0.28961779  0.75267161  1
  Si  Si59  1  0.00129569  0.70813357  0.75220043  1
  Si  Si60  1  0.50147414  0.70848683  0.75225228  1
  Si  Si61  1  0.48584265  0.33585712  0.58631345  1
  Si  Si62  1  0.98436020  0.33483947  0.58638160  1
  Si  Si63  1  0.48475055  0.63424532  0.08639853  1
  Si  Si64  1  0.98300008  0.62255124  0.08666312  1
  Si  Si65  1  0.31310194  0.67434698  0.92090922  1
  Si  Si66  1  0.81290681  0.67548733  0.92100123  1
  Si  Si67  1  0.31508639  0.95456418  0.42233351  1
  Si  Si68  1  0.81435409  0.95250842  0.42020075  1
  S  S69  1  0.35105189  0.70798510  0.25097884  1
  S  S70  1  0.85418199  0.71316098  0.24990447  1
  S  S71  1  0.00265310  0.29259541  0.24970119  1
  S  S72  1  0.35281785  0.99512199  0.75011986  1
  S  S73  1  0.85281029  0.99520407  0.75051405  1
  S  S74  1  0.18696978  0.04496013  0.58416141  1
  S  S75  1  0.68740962  0.04499187  0.58475132  1
  S  S76  1  0.33501659  0.62666225  0.58307896  1
  S  S77  1  0.83516389  0.62815697  0.58339981  1
  S  S78  1  0.33485245  0.04344711  0.08348441  1
  S  S79  1  0.83599885  0.04452268  0.08320305  1
  S  S80  1  0.18684903  0.32824476  0.08542526  1
  S  S81  1  0.68651079  0.32953361  0.08443564  1
  S  S82  1  0.01896333  0.37158625  0.91793679  1
  S  S83  1  0.51890581  0.37107568  0.91767303  1
  S  S84  1  0.17095307  0.96438872  0.91674569  1
  S  S85  1  0.67138925  0.96524197  0.91674079  1
  S  S86  1  0.16903411  0.37875027  0.41656177  1
  S  S87  1  0.67145060  0.37713273  0.41668759  1
  S  S88  1  0.01841082  0.66093326  0.41735639  1
  S  S89  1  0.52005771  0.66776618  0.41727767  1
  O  O90  1  0.09981130  0.01588478  0.31471998  1
  O  O91  1  0.60401180  0.03456225  0.30889870  1
  O  O92  1  0.40397948  0.78530423  0.30397339  1
  O  O93  1  0.90843617  0.79290195  0.30179817  1
  O  O94  1  0.47790240  0.17856545  0.31182716  1
  O  O95  1  0.98965474  0.19384219  0.30477857  1
  O  O96  1  0.10103397  0.17071888  0.80938546  1
  O  O97  1  0.60053426  0.17018228  0.80926594  1
  O  O98  1  0.47843303  0.77701434  0.81202521  1
  O  O99  1  0.97847174  0.77663251  0.81211980  1
  O  O100  1  0.40603307  0.02686761  0.80300287  1
  O  O101  1  0.90596122  0.02665676  0.80345521  1
  O  O102  1  0.39226147  0.96647146  0.69477185  1
  O  O103  1  0.89228920  0.96648139  0.69524374  1
  O  O104  1  0.08172690  0.20365082  0.69209532  1
  O  O105  1  0.58222305  0.20478919  0.69208503  1
  O  O106  1  0.01705909  0.84605222  0.69473668  1
  O  O107  1  0.51690492  0.84625086  0.69467968  1
  O  O108  1  0.39013003  0.81813459  0.19538290  1
  O  O109  1  0.89376230  0.81820749  0.19323066  1
  O  O110  1  0.01240802  0.20592760  0.19578648  1
  O  O111  1  0.51610652  0.18573976  0.19505291  1
  O  O112  1  0.07870507  0.96529502  0.19549815  1
  O  O113  1  0.58411170  0.96397587  0.19211735  1
  O  O114  1  0.43772111  0.34693961  0.64537245  1
  O  O115  1  0.93863396  0.34684220  0.64681444  1
  O  O116  1  0.23758221  0.12554709  0.63819709  1
  O  O117  1  0.73629299  0.12211302  0.63991035  1
  O  O118  1  0.32143271  0.53078243  0.64013882  1
  O  O119  1  0.82173883  0.53269496  0.64080299  1
  O  O120  1  0.43711344  0.52672703  0.14565797  1
  O  O121  1  0.93605377  0.52161610  0.14728085  1
  O  O122  1  0.32205156  0.11346470  0.14005704  1
  O  O123  1  0.82204822  0.11561602  0.13839406  1
  O  O124  1  0.23886023  0.34999784  0.13828641  1
  O  O125  1  0.73692588  0.35306834  0.13895858  1
  O  O126  1  0.22773250  0.30183187  0.02953597  1
  O  O127  1  0.73195021  0.30732273  0.03021667  1
  O  O128  1  0.41510169  0.52812637  0.02651843  1
  O  O129  1  0.91503022  0.52814071  0.02713412  1
  O  O130  1  0.34228290  0.15323250  0.03065861  1
  O  O131  1  0.84575916  0.15288842  0.02962988  1
  O  O132  1  0.23045760  0.15373478  0.52836707  1
  O  O133  1  0.73150483  0.15595313  0.53047933  1
  O  O134  1  0.34265093  0.53062264  0.53093055  1
  O  O135  1  0.84374439  0.53600481  0.53134294  1
  O  O136  1  0.41648901  0.30463552  0.52624930  1
  O  O137  1  0.91427667  0.30095139  0.52813577  1
  O  O138  1  0.26719012  0.68371255  0.98132685  1
  O  O139  1  0.76689948  0.68422405  0.98139911  1
  O  O140  1  0.07034000  0.45456417  0.97045236  1
  O  O141  1  0.57063311  0.45426326  0.97001935  1
  O  O142  1  0.15426674  0.85198337  0.96923555  1
  O  O143  1  0.65529399  0.85330140  0.96913210  1
  O  O144  1  0.26441446  0.84943987  0.48094564  1
  O  O145  1  0.77073690  0.85325740  0.48180474  1
  O  O146  1  0.15616220  0.45181033  0.47123419  1
  O  O147  1  0.65430488  0.45583644  0.46884775  1
  O  O148  1  0.07304134  0.68704175  0.46900812  1
  O  O149  1  0.57060914  0.68656707  0.47036408  1
  O  O150  1  0.05981701  0.63499056  0.36063833  1
  O  O151  1  0.55848865  0.63271481  0.36150463  1
  O  O152  1  0.24853354  0.86010363  0.36126992  1
  O  O153  1  0.74720746  0.85137886  0.36153392  1
  O  O154  1  0.17793808  0.48764723  0.36253340  1
  O  O155  1  0.68067816  0.47919910  0.36022164  1
  O  O156  1  0.05968207  0.48483448  0.86151213  1
  O  O157  1  0.55991614  0.48513408  0.86122225  1
  O  O158  1  0.18002539  0.88009673  0.86050299  1
  O  O159  1  0.68121926  0.88243468  0.86045274  1
  O  O160  1  0.24955799  0.64396104  0.86005137  1
  O  O161  1  0.74954757  0.64381305  0.86018949  1
  O  O162  1  0.00958303  0.81379040  0.41084773  1
  O  O163  1  0.50563756  0.81218114  0.40981339  1
  O  O164  1  0.41217456  0.99197488  0.41576716  1
  O  O165  1  0.91033776  0.98540579  0.41064841  1
  O  O166  1  0.09508897  0.20070604  0.41187080  1
  O  O167  1  0.59460581  0.20193916  0.41323088  1
  O  O168  1  0.00616831  0.19998952  0.91021924  1
  O  O169  1  0.50641691  0.19976266  0.90987487  1
  O  O170  1  0.09431644  0.98623226  0.91303074  1
  O  O171  1  0.59488724  0.98714541  0.91294323  1
  O  O172  1  0.41133252  0.83131237  0.91502508  1
  O  O173  1  0.91142654  0.83138741  0.91530820  1
  O  O174  1  0.48328449  0.14534795  0.58882176  1
  O  O175  1  0.98330482  0.14561827  0.58936163  1
  O  O176  1  0.09993987  0.03192085  0.58602095  1
  O  O177  1  0.59991610  0.03185837  0.58668955  1
  O  O178  1  0.41581265  0.80013446  0.58489862  1
  O  O179  1  0.91563690  0.80364181  0.58634824  1
  O  O180  1  0.48343750  0.82121700  0.08929014  1
  O  O181  1  0.98422842  0.81629833  0.09132032  1
  O  O182  1  0.41534233  0.02992856  0.08543071  1
  O  O183  1  0.91743191  0.03107172  0.08707375  1
  O  O184  1  0.09815625  0.16818056  0.08953382  1
  O  O185  1  0.60013068  0.16819624  0.08632055  1
  O  O186  1  0.33625941  0.13965685  0.74378141  1
  O  O187  1  0.83624347  0.13954082  0.74423444  1
  O  O188  1  0.24202556  0.31483183  0.74235980  1
  O  O189  1  0.74227591  0.31516196  0.74260228  1
  O  O190  1  0.42074920  0.51387922  0.74633610  1
  O  O191  1  0.92049655  0.51367148  0.74641996  1
  O  O192  1  0.33716273  0.53404361  0.24419740  1
  O  O193  1  0.84159129  0.53794963  0.24469707  1
  O  O194  1  0.42100124  0.32877951  0.24606437  1
  O  O195  1  0.92813419  0.32266625  0.24559008  1
  O  O196  1  0.24322991  0.15818489  0.24414683  1
  O  O197  1  0.74401558  0.18039768  0.24245454  1
  O  O198  1  0.32068436  0.48890868  0.92499614  1
  O  O199  1  0.82106160  0.48988595  0.92543073  1
  O  O200  1  0.43203582  0.36447060  0.92139829  1
  O  O201  1  0.93204937  0.36516885  0.92168521  1
  O  O202  1  0.25182483  0.13478236  0.92180299  1
  O  O203  1  0.75233384  0.13659280  0.92223269  1
  O  O204  1  0.31845290  0.15130365  0.42498654  1
  O  O205  1  0.81923099  0.14933823  0.42491692  1
  O  O206  1  0.25019446  0.36535828  0.41941525  1
  O  O207  1  0.75215330  0.36778732  0.42257849  1
  O  O208  1  0.43151905  0.49990715  0.42248957  1
  O  O209  1  0.93124866  0.50197652  0.42186403  1
  O  O210  1  0.17657105  0.47973515  0.07910775  1
  O  O211  1  0.67680665  0.48123801  0.07787046  1
  O  O212  1  0.07790414  0.65282861  0.07650799  1
  O  O213  1  0.57820781  0.65554308  0.07590128  1
  O  O214  1  0.25990980  0.86532786  0.07958775  1
  O  O215  1  0.76221457  0.86630561  0.07916618  1
  O  O216  1  0.17755009  0.87357266  0.57885983  1
  O  O217  1  0.67704544  0.87276551  0.57912640  1
  O  O218  1  0.26046215  0.65531582  0.57845700  1
  O  O219  1  0.76025609  0.65658176  0.57982527  1
  O  O220  1  0.07773142  0.50068621  0.57661742  1
  O  O221  1  0.57867391  0.50170429  0.57530001  1
  O  O222  1  0.15034135  0.81666524  0.25922228  1
  O  O223  1  0.65347798  0.82507315  0.25723820  1
  O  O224  1  0.26363628  0.69926294  0.25695553  1
  O  O225  1  0.76578400  0.69397462  0.25467467  1
  O  O226  1  0.08322721  0.47017435  0.25335201  1
  O  O227  1  0.59338344  0.48551768  0.25716647  1
  O  O228  1  0.15427857  0.48408252  0.75748382  1
  O  O229  1  0.65431035  0.48417691  0.75761111  1
  O  O230  1  0.09302313  0.70064245  0.75798814  1
  O  O231  1  0.59315701  0.70111144  0.75795836  1
  O  O232  1  0.26533019  0.83177842  0.75543747  1
  O  O233  1  0.76537784  0.83163741  0.75573286  1
