# generated using pymatgen
data_Na6TaGa3Si2(PO6)4
_symmetry_space_group_name_H-M   'P 1'
_cell_length_a   15.29561752
_cell_length_b   8.87884066
_cell_length_c   8.85015488
_cell_angle_alpha   90.21198845
_cell_angle_beta   124.79459711
_cell_angle_gamma   90.08832985
_symmetry_Int_Tables_number   1
_chemical_formula_structural   Na6TaGa3Si2(PO6)4
_chemical_formula_sum   'Na12 Ta2 Ga6 Si4 P8 O48'
_cell_volume   987.00060313
_cell_formula_units_Z   2
loop_
 _symmetry_equiv_pos_site_id
 _symmetry_equiv_pos_as_xyz
  1  'x, y, z'
loop_
 _atom_site_type_symbol
 _atom_site_label
 _atom_site_symmetry_multiplicity
 _atom_site_fract_x
 _atom_site_fract_y
 _atom_site_fract_z
 _atom_site_occupancy
  Na  Na0  1  0.25028510  0.75001515  0.99816589  1
  Na  Na1  1  0.74520744  0.75134509  0.48471553  1
  Na  Na2  1  0.75028510  0.25001515  0.99816589  1
  Na  Na3  1  0.24520744  0.25134509  0.48471553  1
  Na  Na4  1  0.49750707  0.09379631  0.73724234  1
  Na  Na5  1  0.50453164  0.89125355  0.25700563  1
  Na  Na6  1  0.99750707  0.59379631  0.73724234  1
  Na  Na7  1  0.00453164  0.39125355  0.25700563  1
  Na  Na8  1  0.18944656  0.92788957  0.28882398  1
  Na  Na9  1  0.81020764  0.07749728  0.70655465  1
  Na  Na10  1  0.68944656  0.42788957  0.28882398  1
  Na  Na11  1  0.31020764  0.57749728  0.70655465  1
  Ta  Ta12  1  0.89523866  0.74948000  0.93664325  1
  Ta  Ta13  1  0.39523866  0.24948000  0.93664325  1
  Ga  Ga14  1  0.10504169  0.75372031  0.56060949  1
  Ga  Ga15  1  0.89470291  0.24504217  0.43790519  1
  Ga  Ga16  1  0.10149256  0.25411795  0.05627191  1
  Ga  Ga17  1  0.60504169  0.25372031  0.56060949  1
  Ga  Ga18  1  0.39470291  0.74504217  0.43790519  1
  Ga  Ga19  1  0.60149256  0.75411795  0.05627191  1
  Si  Si20  1  0.35227829  0.89110440  0.75084657  1
  Si  Si21  1  0.65233898  0.09888877  0.25382895  1
  Si  Si22  1  0.85227829  0.39110440  0.75084657  1
  Si  Si23  1  0.15233898  0.59888877  0.25382895  1
  P  P24  1  0.00564038  0.96237299  0.75394379  1
  P  P25  1  0.99942327  0.04404361  0.25515833  1
  P  P26  1  0.50564038  0.46237299  0.75394379  1
  P  P27  1  0.49942327  0.54404361  0.25515833  1
  P  P28  1  0.64189979  0.89259917  0.74252181  1
  P  P29  1  0.35461772  0.10759647  0.26015223  1
  P  P30  1  0.14189979  0.39259917  0.74252181  1
  P  P31  1  0.85461772  0.60759647  0.26015223  1
  O  O32  1  0.15039455  0.56692359  0.74104875  1
  O  O33  1  0.84739384  0.57999106  0.76391037  1
  O  O34  1  0.85108591  0.43349105  0.24985528  1
  O  O35  1  0.15175821  0.41709288  0.23757068  1
  O  O36  1  0.65039455  0.06692359  0.74104875  1
  O  O37  1  0.34739384  0.07999106  0.76391037  1
  O  O38  1  0.35108591  0.93349105  0.24985528  1
  O  O39  1  0.65175821  0.91709288  0.23757068  1
  O  O40  1  0.43255186  0.56104103  0.58448612  1
  O  O41  1  0.57388264  0.55256076  0.93394894  1
  O  O42  1  0.56469781  0.43937298  0.42064126  1
  O  O43  1  0.43152944  0.44530178  0.07537401  1
  O  O44  1  0.93255186  0.06104103  0.58448612  1
  O  O45  1  0.07388264  0.05256076  0.93394894  1
  O  O46  1  0.06469781  0.93937298  0.42064126  1
  O  O47  1  0.93152944  0.94530178  0.07537401  1
  O  O48  1  0.25188705  0.81518177  0.73785415  1
  O  O49  1  0.74346261  0.83029685  0.75798893  1
  O  O50  1  0.74550525  0.18896201  0.25600306  1
  O  O51  1  0.25528363  0.16850990  0.24204415  1
  O  O52  1  0.75188705  0.31518177  0.73785415  1
  O  O53  1  0.24346261  0.33029685  0.75798893  1
  O  O54  1  0.24550525  0.68896201  0.25600306  1
  O  O55  1  0.75528363  0.66850990  0.24204415  1
  O  O56  1  0.35576285  0.87094442  0.57021901  1
  O  O57  1  0.64323743  0.85376548  0.91198136  1
  O  O58  1  0.64689285  0.13434700  0.42882673  1
  O  O59  1  0.35822070  0.15752763  0.09192828  1
  O  O60  1  0.85576285  0.37094442  0.57021901  1
  O  O61  1  0.14323743  0.35376548  0.91198136  1
  O  O62  1  0.14689285  0.63434700  0.42882673  1
  O  O63  1  0.85822070  0.65752763  0.09192828  1
  O  O64  1  0.45846066  0.82581973  0.93614323  1
  O  O65  1  0.54411929  0.82978356  0.56151088  1
  O  O66  1  0.53814544  0.17367454  0.07167906  1
  O  O67  1  0.45599648  0.16743255  0.43786497  1
  O  O68  1  0.95846066  0.32581973  0.93614323  1
  O  O69  1  0.04411929  0.32978356  0.56151088  1
  O  O70  1  0.03814544  0.67367454  0.07167906  1
  O  O71  1  0.95599648  0.66743255  0.43786497  1
  O  O72  1  0.07517002  0.84537892  0.74045595  1
  O  O73  1  0.92065205  0.86301448  0.76370240  1
  O  O74  1  0.92199003  0.15136869  0.25925012  1
  O  O75  1  0.08205967  0.13745453  0.24532276  1
  O  O76  1  0.57517002  0.34537892  0.74045595  1
  O  O77  1  0.42065205  0.36301448  0.76370240  1
  O  O78  1  0.42199003  0.65136869  0.25925012  1
  O  O79  1  0.58205967  0.63745453  0.24532276  1
