# generated using pymatgen
data_RbPb
_symmetry_space_group_name_H-M   'P 1'
_cell_length_a   12.01764391
_cell_length_b   12.01764314
_cell_length_c   12.98434568
_cell_angle_alpha   117.56627642
_cell_angle_beta   117.56628025
_cell_angle_gamma   89.99999655
_symmetry_Int_Tables_number   1
_chemical_formula_structural   RbPb
_chemical_formula_sum   'Rb16 Pb16'
_cell_volume   1417.86577682
_cell_formula_units_Z   16
loop_
 _symmetry_equiv_pos_site_id
 _symmetry_equiv_pos_as_xyz
  1  'x, y, z'
loop_
 _atom_site_type_symbol
 _atom_site_label
 _atom_site_symmetry_multiplicity
 _atom_site_fract_x
 _atom_site_fract_y
 _atom_site_fract_z
 _atom_site_occupancy
  Rb  Rb0  1  0.11383270  0.25000000  0.50000000  1
  Rb  Rb1  1  0.75000000  0.11383270  -0.00000000  1
  Rb  Rb2  1  0.25000000  0.38616730  0.00000000  1
  Rb  Rb3  1  0.38616730  0.75000000  0.50000000  1
  Rb  Rb4  1  0.88616730  0.75000000  0.50000000  1
  Rb  Rb5  1  0.25000000  0.88616730  0.00000000  1
  Rb  Rb6  1  0.75000000  0.61383270  -0.00000000  1
  Rb  Rb7  1  0.61383270  0.25000000  0.50000000  1
  Rb  Rb8  1  0.50374674  0.75374674  0.25000000  1
  Rb  Rb9  1  0.99625326  0.50374674  0.75000000  1
  Rb  Rb10  1  0.75374674  0.74625326  0.75000000  1
  Rb  Rb11  1  0.74625326  0.99625326  0.25000000  1
  Rb  Rb12  1  0.49625326  0.24625326  0.75000000  1
  Rb  Rb13  1  0.00374674  0.49625326  0.25000000  1
  Rb  Rb14  1  0.24625326  0.25374674  0.25000000  1
  Rb  Rb15  1  0.25374674  0.00374674  0.75000000  1
  Pb  Pb16  1  0.99249542  0.06761316  0.86302333  1
  Pb  Pb17  1  0.29541117  0.99249542  0.36302333  1
  Pb  Pb18  1  0.06761316  0.87052891  0.36302333  1
  Pb  Pb19  1  0.62947109  0.43238684  0.13697667  1
  Pb  Pb20  1  0.50750458  0.20458883  0.13697667  1
  Pb  Pb21  1  0.20458883  0.62947109  0.63697667  1
  Pb  Pb22  1  0.43238684  0.50750458  0.63697667  1
  Pb  Pb23  1  0.87052891  0.29541117  0.86302333  1
  Pb  Pb24  1  0.00750458  0.93238684  0.13697667  1
  Pb  Pb25  1  0.70458883  0.00750458  0.63697667  1
  Pb  Pb26  1  0.93238684  0.12947109  0.63697667  1
  Pb  Pb27  1  0.37052891  0.56761316  0.86302333  1
  Pb  Pb28  1  0.49249542  0.79541117  0.86302333  1
  Pb  Pb29  1  0.79541117  0.37052891  0.36302333  1
  Pb  Pb30  1  0.56761316  0.49249542  0.36302333  1
  Pb  Pb31  1  0.12947109  0.70458883  0.13697667  1
