# generated using pymatgen
data_Na9Ca2Ta4Si6(PO12)3
_symmetry_space_group_name_H-M   'P 1'
_cell_length_a   15.90380732
_cell_length_b   27.38134731
_cell_length_c   9.12015382
_cell_angle_alpha   90.17463717
_cell_angle_beta   125.08963399
_cell_angle_gamma   89.81061954
_symmetry_Int_Tables_number   1
_chemical_formula_structural   Na9Ca2Ta4Si6(PO12)3
_chemical_formula_sum   'Na36 Ca8 Ta16 Si24 P12 O144'
_cell_volume   3249.70006452
_cell_formula_units_Z   4
loop_
 _symmetry_equiv_pos_site_id
 _symmetry_equiv_pos_as_xyz
  1  'x, y, z'
loop_
 _atom_site_type_symbol
 _atom_site_label
 _atom_site_symmetry_multiplicity
 _atom_site_fract_x
 _atom_site_fract_y
 _atom_site_fract_z
 _atom_site_occupancy
  Na  Na0  1  0.25010659  0.24540068  0.01641909  1
  Na  Na1  1  0.24055335  0.59444247  0.00897740  1
  Na  Na2  1  0.25946564  0.91376026  0.00727171  1
  Na  Na3  1  0.74987149  0.25258090  0.50459454  1
  Na  Na4  1  0.74239046  0.58053910  0.50363609  1
  Na  Na5  1  0.74823815  0.91636762  0.50850642  1
  Na  Na6  1  0.74055335  0.09444247  0.00897740  1
  Na  Na7  1  0.75946564  0.41376026  0.00727171  1
  Na  Na8  1  0.75010659  0.74540068  0.01641909  1
  Na  Na9  1  0.24239046  0.08053910  0.50363609  1
  Na  Na10  1  0.24823815  0.41636762  0.50850642  1
  Na  Na11  1  0.24987149  0.75258090  0.50459454  1
  Na  Na12  1  0.47940758  0.02797218  0.70236876  1
  Na  Na13  1  0.49103304  0.36857838  0.75210683  1
  Na  Na14  1  0.48303812  0.69729053  0.72373994  1
  Na  Na15  1  0.49197316  0.29480253  0.25492363  1
  Na  Na16  1  0.49795946  0.62782492  0.25852377  1
  Na  Na17  1  0.50079651  0.95707058  0.27965268  1
  Na  Na18  1  0.98303812  0.19729053  0.72373994  1
  Na  Na19  1  0.97940758  0.52797218  0.70236876  1
  Na  Na20  1  0.99103304  0.86857838  0.75210683  1
  Na  Na21  1  0.99795946  0.12782492  0.25852377  1
  Na  Na22  1  0.00079651  0.45707058  0.27965268  1
  Na  Na23  1  0.99197316  0.79480253  0.25492363  1
  Na  Na24  1  0.81869804  0.98250648  0.21330578  1
  Na  Na25  1  0.20987083  0.30785889  0.29993616  1
  Na  Na26  1  0.19881313  0.97530295  0.26755608  1
  Na  Na27  1  0.19856795  0.35797105  0.78923889  1
  Na  Na28  1  0.82829646  0.02015643  0.73781674  1
  Na  Na29  1  0.81296859  0.69325195  0.68335462  1
  Na  Na30  1  0.31869804  0.48250648  0.21330578  1
  Na  Na31  1  0.69881313  0.47530295  0.26755608  1
  Na  Na32  1  0.70987083  0.80785889  0.29993616  1
  Na  Na33  1  0.69856795  0.85797105  0.78923889  1
  Na  Na34  1  0.31296859  0.19325195  0.68335462  1
  Na  Na35  1  0.32829646  0.52015643  0.73781674  1
  Ca  Ca36  1  0.89640149  0.91652633  0.93759910  1
  Ca  Ca37  1  0.89312199  0.08917512  0.43430566  1
  Ca  Ca38  1  0.89370820  0.41215620  0.44391429  1
  Ca  Ca39  1  0.90003994  0.74394429  0.43441564  1
  Ca  Ca40  1  0.39640149  0.41652633  0.93759910  1
  Ca  Ca41  1  0.40003994  0.24394429  0.43441564  1
  Ca  Ca42  1  0.39312199  0.58917512  0.43430566  1
  Ca  Ca43  1  0.39370820  0.91215620  0.44391429  1
  Ta  Ta44  1  0.10457120  0.24943924  0.57727712  1
  Ta  Ta45  1  0.10675906  0.58439366  0.56659253  1
  Ta  Ta46  1  0.10430815  0.91623737  0.56152663  1
  Ta  Ta47  1  0.89139429  0.25078026  0.93933883  1
  Ta  Ta48  1  0.89617538  0.58211608  0.94440443  1
  Ta  Ta49  1  0.10770112  0.08512726  0.06092113  1
  Ta  Ta50  1  0.10399940  0.41755126  0.05821799  1
  Ta  Ta51  1  0.10570259  0.74948729  0.05863044  1
  Ta  Ta52  1  0.60675906  0.08439366  0.56659253  1
  Ta  Ta53  1  0.60430815  0.41623737  0.56152663  1
  Ta  Ta54  1  0.60457120  0.74943924  0.57727712  1
  Ta  Ta55  1  0.39617538  0.08211608  0.94440443  1
  Ta  Ta56  1  0.39139429  0.75078026  0.93933883  1
  Ta  Ta57  1  0.60570259  0.24948729  0.05863044  1
  Ta  Ta58  1  0.60770112  0.58512726  0.06092113  1
  Ta  Ta59  1  0.60399940  0.91755126  0.05821799  1
  Si  Si60  1  0.99937741  0.31669014  0.75701191  1
  Si  Si61  1  0.49937741  0.81669014  0.75701191  1
  Si  Si62  1  0.35081454  0.29510291  0.75441736  1
  Si  Si63  1  0.35278418  0.63332010  0.76406358  1
  Si  Si64  1  0.34865507  0.96529753  0.74665830  1
  Si  Si65  1  0.64543948  0.29973917  0.73660408  1
  Si  Si66  1  0.65006195  0.63283679  0.74203034  1
  Si  Si67  1  0.64514468  0.96986471  0.74132797  1
  Si  Si68  1  0.64146241  0.03133387  0.24878821  1
  Si  Si69  1  0.63674210  0.69953271  0.24470401  1
  Si  Si70  1  0.35293584  0.03894946  0.25234567  1
  Si  Si71  1  0.34689535  0.37283194  0.24934353  1
  Si  Si72  1  0.35288134  0.70844063  0.25439725  1
  Si  Si73  1  0.85278418  0.13332010  0.76406358  1
  Si  Si74  1  0.84865507  0.46529753  0.74665830  1
  Si  Si75  1  0.85081454  0.79510291  0.75441736  1
  Si  Si76  1  0.15006195  0.13283679  0.74203034  1
  Si  Si77  1  0.14514468  0.46986471  0.74132797  1
  Si  Si78  1  0.14543948  0.79973917  0.73660408  1
  Si  Si79  1  0.13674210  0.19953271  0.24470401  1
  Si  Si80  1  0.14146241  0.53133387  0.24878821  1
  Si  Si81  1  0.85288134  0.20844063  0.25439725  1
  Si  Si82  1  0.85293584  0.53894946  0.25234567  1
  Si  Si83  1  0.84689535  0.87283194  0.24934353  1
  P  P84  1  0.00254365  0.64932360  0.75425557  1
  P  P85  1  0.00797034  0.98643255  0.74510200  1
  P  P86  1  0.00766566  0.01453486  0.24234840  1
  P  P87  1  0.00857524  0.34464971  0.25085109  1
  P  P88  1  0.00878624  0.67895850  0.24267873  1
  P  P89  1  0.50254365  0.14932360  0.75425557  1
  P  P90  1  0.50797034  0.48643255  0.74510200  1
  P  P91  1  0.50878624  0.17895850  0.24267873  1
  P  P92  1  0.50766566  0.51453486  0.24234840  1
  P  P93  1  0.50857524  0.84464971  0.25085109  1
  P  P94  1  0.63677670  0.36275934  0.23691235  1
  P  P95  1  0.13677670  0.86275934  0.23691235  1
  O  O96  1  0.14560036  0.19371125  0.74818285  1
  O  O97  1  0.14354506  0.53156533  0.74619162  1
  O  O98  1  0.13954060  0.86121544  0.73375431  1
  O  O99  1  0.83665923  0.19059252  0.79846953  1
  O  O100  1  0.84189783  0.52381541  0.79474116  1
  O  O101  1  0.83425751  0.85338111  0.74084452  1
  O  O102  1  0.84856708  0.15058744  0.22782941  1
  O  O103  1  0.84085925  0.48072204  0.22761049  1
  O  O104  1  0.84215556  0.81418261  0.25607810  1
  O  O105  1  0.14340646  0.13853669  0.23720695  1
  O  O106  1  0.13388199  0.47081013  0.24208358  1
  O  O107  1  0.15065951  0.80520421  0.25162486  1
  O  O108  1  0.64354506  0.03156533  0.74619162  1
  O  O109  1  0.63954060  0.36121544  0.73375431  1
  O  O110  1  0.64560036  0.69371125  0.74818285  1
  O  O111  1  0.34189783  0.02381541  0.79474116  1
  O  O112  1  0.33425751  0.35338111  0.74084452  1
  O  O113  1  0.33665923  0.69059252  0.79846953  1
  O  O114  1  0.34215556  0.31418261  0.25607810  1
  O  O115  1  0.34856708  0.65058744  0.22782941  1
  O  O116  1  0.34085925  0.98072204  0.22761049  1
  O  O117  1  0.65065951  0.30520421  0.25162486  1
  O  O118  1  0.64340646  0.63853669  0.23720695  1
  O  O119  1  0.63388199  0.97081013  0.24208358  1
  O  O120  1  0.41829526  0.17412464  0.58390801  1
  O  O121  1  0.43745585  0.51714191  0.58100798  1
  O  O122  1  0.41940678  0.84419254  0.57806646  1
  O  O123  1  0.55954506  0.18627985  0.91630528  1
  O  O124  1  0.56951046  0.52020361  0.92016047  1
  O  O125  1  0.57018775  0.85562197  0.93260135  1
  O  O126  1  0.56422397  0.14514789  0.41370751  1
  O  O127  1  0.56695919  0.47623651  0.40288780  1
  O  O128  1  0.56936934  0.81110169  0.42338680  1
  O  O129  1  0.45901854  0.14510001  0.07715138  1
  O  O130  1  0.44930313  0.48840348  0.06444194  1
  O  O131  1  0.46217731  0.81154509  0.08546338  1
  O  O132  1  0.93745585  0.01714191  0.58100798  1
  O  O133  1  0.91940678  0.34419254  0.57806646  1
  O  O134  1  0.91829526  0.67412464  0.58390801  1
  O  O135  1  0.06951046  0.02020361  0.92016047  1
  O  O136  1  0.07018775  0.35562197  0.93260135  1
  O  O137  1  0.05954506  0.68627985  0.91630528  1
  O  O138  1  0.06936934  0.31110169  0.42338680  1
  O  O139  1  0.06422397  0.64514789  0.41370751  1
  O  O140  1  0.06695919  0.97623651  0.40288780  1
  O  O141  1  0.96217731  0.31154509  0.08546338  1
  O  O142  1  0.95901854  0.64510001  0.07715138  1
  O  O143  1  0.94930313  0.98840348  0.06444194  1
  O  O144  1  0.25435283  0.26907997  0.75241098  1
  O  O145  1  0.25553430  0.60236581  0.73788284  1
  O  O146  1  0.25158431  0.93488855  0.71995286  1
  O  O147  1  0.75796726  0.28449150  0.78211648  1
  O  O148  1  0.76325410  0.61960873  0.77943949  1
  O  O149  1  0.74278161  0.95259593  0.74541026  1
  O  O150  1  0.73272105  0.04964718  0.23791614  1
  O  O151  1  0.72320491  0.39055213  0.24960917  1
  O  O152  1  0.72035738  0.72670477  0.23119214  1
  O  O153  1  0.25251947  0.06232999  0.23878354  1
  O  O154  1  0.25225598  0.39967721  0.25291914  1
  O  O155  1  0.24953004  0.73031669  0.23357598  1
  O  O156  1  0.75553430  0.10236581  0.73788284  1
  O  O157  1  0.75158431  0.43488855  0.71995286  1
  O  O158  1  0.75435283  0.76907997  0.75241098  1
  O  O159  1  0.26325410  0.11960873  0.77943949  1
  O  O160  1  0.24278161  0.45259593  0.74541026  1
  O  O161  1  0.25796726  0.78449150  0.78211648  1
  O  O162  1  0.22035738  0.22670477  0.23119214  1
  O  O163  1  0.23272105  0.54964718  0.23791614  1
  O  O164  1  0.22320491  0.89055213  0.24960917  1
  O  O165  1  0.74953004  0.23031669  0.23357598  1
  O  O166  1  0.75251947  0.56232999  0.23878354  1
  O  O167  1  0.75225598  0.89967721  0.25291914  1
  O  O168  1  0.34556571  0.27462830  0.58607392  1
  O  O169  1  0.36179628  0.63356658  0.59947160  1
  O  O170  1  0.34433705  0.96944455  0.56741448  1
  O  O171  1  0.63134836  0.28263920  0.90241084  1
  O  O172  1  0.63823772  0.61611533  0.90922019  1
  O  O173  1  0.64360458  0.95407269  0.92461605  1
  O  O174  1  0.64472639  0.04755723  0.43144865  1
  O  O175  1  0.62745342  0.37762703  0.39764146  1
  O  O176  1  0.64008482  0.71234015  0.43034259  1
  O  O177  1  0.35428456  0.06443391  0.09073947  1
  O  O178  1  0.32852594  0.39162288  0.06881771  1
  O  O179  1  0.35596339  0.73577110  0.09964113  1
  O  O180  1  0.86179628  0.13356658  0.59947160  1
  O  O181  1  0.84433705  0.46944455  0.56741448  1
  O  O182  1  0.84556571  0.77462830  0.58607392  1
  O  O183  1  0.13823772  0.11611533  0.90922019  1
  O  O184  1  0.14360458  0.45407269  0.92461605  1
  O  O185  1  0.13134836  0.78263920  0.90241084  1
  O  O186  1  0.14008482  0.21234015  0.43034259  1
  O  O187  1  0.14472639  0.54755723  0.43144865  1
  O  O188  1  0.12745342  0.87762703  0.39764146  1
  O  O189  1  0.85596339  0.23577110  0.09964113  1
  O  O190  1  0.85428456  0.56443391  0.09073947  1
  O  O191  1  0.82852594  0.89162288  0.06881771  1
  O  O192  1  0.46292131  0.27363213  0.94173218  1
  O  O193  1  0.46221793  0.60684060  0.93798328  1
  O  O194  1  0.46015277  0.94183452  0.91848170  1
  O  O195  1  0.55537805  0.27765060  0.54986034  1
  O  O196  1  0.55937986  0.61236217  0.55472156  1
  O  O197  1  0.54182395  0.94975036  0.56784083  1
  O  O198  1  0.52798930  0.05075197  0.08469485  1
  O  O199  1  0.53659041  0.37228653  0.05822443  1
  O  O200  1  0.52015422  0.71322834  0.08141186  1
  O  O201  1  0.46295606  0.05956085  0.43572251  1
  O  O202  1  0.45894820  0.39661266  0.42777793  1
  O  O203  1  0.46104525  0.72714525  0.44688193  1
  O  O204  1  0.96221793  0.10684060  0.93798328  1
  O  O205  1  0.96015277  0.44183452  0.91848170  1
  O  O206  1  0.96292131  0.77363213  0.94173218  1
  O  O207  1  0.05937986  0.11236217  0.55472156  1
  O  O208  1  0.04182395  0.44975036  0.56784083  1
  O  O209  1  0.05537805  0.77765060  0.54986034  1
  O  O210  1  0.02015422  0.21322834  0.08141186  1
  O  O211  1  0.02798930  0.55075197  0.08469485  1
  O  O212  1  0.03659041  0.87228653  0.05822443  1
  O  O213  1  0.96104525  0.22714525  0.44688193  1
  O  O214  1  0.96295606  0.55956085  0.43572251  1
  O  O215  1  0.95894820  0.89661266  0.42777793  1
  O  O216  1  0.08976974  0.28838338  0.74714335  1
  O  O217  1  0.08602938  0.62495165  0.74045254  1
  O  O218  1  0.09136296  0.95752135  0.73569329  1
  O  O219  1  0.94150733  0.27310282  0.79186400  1
  O  O220  1  0.94783638  0.60759980  0.78838944  1
  O  O221  1  0.94355072  0.94820527  0.76060876  1
  O  O222  1  0.93472184  0.04678912  0.25651329  1
  O  O223  1  0.92860162  0.37774687  0.24037089  1
  O  O224  1  0.92704523  0.71185785  0.22785240  1
  O  O225  1  0.09579087  0.04528144  0.25479343  1
  O  O226  1  0.09279220  0.37648396  0.25738404  1
  O  O227  1  0.09151627  0.71104297  0.24793507  1
  O  O228  1  0.58602938  0.12495165  0.74045254  1
  O  O229  1  0.59136296  0.45752135  0.73569329  1
  O  O230  1  0.58976974  0.78838338  0.74714335  1
  O  O231  1  0.44783638  0.10759980  0.78838944  1
  O  O232  1  0.44355072  0.44820527  0.76060876  1
  O  O233  1  0.44150733  0.77310282  0.79186400  1
  O  O234  1  0.42704523  0.21185785  0.22785240  1
  O  O235  1  0.43472184  0.54678912  0.25651329  1
  O  O236  1  0.42860162  0.87774687  0.24037089  1
  O  O237  1  0.59151627  0.21104297  0.24793507  1
  O  O238  1  0.59579087  0.54528144  0.25479343  1
  O  O239  1  0.59279220  0.87648396  0.25738404  1
