# generated using pymatgen
data_Na7Al3Zn(PO4)6
_symmetry_space_group_name_H-M   'P 1'
_cell_length_a   8.73083946
_cell_length_b   8.72733842
_cell_length_c   21.51583428
_cell_angle_alpha   90.09403030
_cell_angle_beta   90.02712038
_cell_angle_gamma   120.01125869
_symmetry_Int_Tables_number   1
_chemical_formula_structural   Na7Al3Zn(PO4)6
_chemical_formula_sum   'Na21 Al9 Zn3 P18 O72'
_cell_volume   1419.63366626
_cell_formula_units_Z   3
loop_
 _symmetry_equiv_pos_site_id
 _symmetry_equiv_pos_as_xyz
  1  'x, y, z'
loop_
 _atom_site_type_symbol
 _atom_site_label
 _atom_site_symmetry_multiplicity
 _atom_site_fract_x
 _atom_site_fract_y
 _atom_site_fract_z
 _atom_site_occupancy
  Na  Na0  1  0.63857507  0.00755244  0.24719572  1
  Na  Na1  1  0.36837302  0.36073700  0.24723665  1
  Na  Na2  1  0.99219174  0.63078082  0.24683616  1
  Na  Na3  1  0.63309400  0.62617217  0.74806885  1
  Na  Na4  1  0.99378713  0.36725615  0.74844282  1
  Na  Na5  1  0.37387944  0.00640598  0.74822063  1
  Na  Na6  1  0.02732518  0.69436717  0.58418850  1
  Na  Na7  1  0.66414335  0.97120647  0.58383025  1
  Na  Na8  1  0.30741084  0.97112489  0.08382347  1
  Na  Na9  1  0.66703667  0.69338342  0.08406643  1
  Na  Na10  1  0.69806990  0.03317187  0.91838392  1
  Na  Na11  1  0.33162203  0.30064182  0.91797479  1
  Na  Na12  1  0.96683384  0.29332266  0.41457316  1
  Na  Na13  1  0.32675348  0.03403466  0.41466008  1
  Na  Na14  1  0.70729116  0.67349129  0.41448165  1
  Na  Na15  1  0.00833475  0.00930625  0.49986298  1
  Na  Na16  1  0.99992696  0.99947102  0.00060077  1
  Na  Na17  1  0.67549985  0.34332237  0.83397164  1
  Na  Na18  1  0.66679546  0.33336837  0.33001362  1
  Na  Na19  1  0.32291618  0.65556549  0.16370587  1
  Na  Na20  1  0.33212721  0.65574057  0.66457843  1
  Al  Al21  1  0.99953503  0.99518020  0.85372321  1
  Al  Al22  1  0.00557734  0.00577218  0.64738897  1
  Al  Al23  1  0.00097596  0.00641606  0.14760074  1
  Al  Al24  1  0.67385474  0.33960257  0.98262937  1
  Al  Al25  1  0.66474830  0.33249181  0.48323976  1
  Al  Al26  1  0.32848824  0.66302556  0.01652645  1
  Al  Al27  1  0.33269375  0.66266344  0.51861347  1
  Al  Al28  1  0.33325941  0.66583513  0.31459445  1
  Al  Al29  1  0.33073381  0.66478852  0.81608544  1
  Zn  Zn30  1  0.00034537  0.00086689  0.34894040  1
  Zn  Zn31  1  0.66537088  0.33404276  0.68005702  1
  Zn  Zn32  1  0.66954649  0.33456728  0.17745728  1
  P  P33  1  0.29109198  0.99561010  0.25064416  1
  P  P34  1  0.70445163  0.70901777  0.25072046  1
  P  P35  1  0.00411118  0.29458248  0.25122786  1
  P  P36  1  0.28168227  0.28744007  0.75249306  1
  P  P37  1  0.00591254  0.71801637  0.75139507  1
  P  P38  1  0.71224772  0.99417852  0.75193234  1
  P  P39  1  0.96606588  0.33439047  0.58254850  1
  P  P40  1  0.36977750  0.03862352  0.58225149  1
  P  P41  1  0.66257014  0.62727472  0.58279906  1
  P  P42  1  0.96501471  0.62751139  0.08240460  1
  P  P43  1  0.66816526  0.03766775  0.08116884  1
  P  P44  1  0.36823725  0.33500540  0.08136228  1
  P  P45  1  0.62491116  0.66618423  0.91643643  1
  P  P46  1  0.04263076  0.38042480  0.91592820  1
  P  P47  1  0.33007147  0.95388164  0.91649116  1
  P  P48  1  0.61586457  0.95581210  0.41870702  1
  P  P49  1  0.34006068  0.38445338  0.41829276  1
  P  P50  1  0.04421431  0.66016007  0.41870269  1
  O  O51  1  0.21902860  0.03223312  0.31040652  1
  O  O52  1  0.81379122  0.78157522  0.31039516  1
  O  O53  1  0.96656037  0.18830159  0.31166374  1
  O  O54  1  0.19621789  0.17301885  0.81084112  1
  O  O55  1  0.97561124  0.80946508  0.80692476  1
  O  O56  1  0.82959224  0.02365859  0.80945099  1
  O  O57  1  0.79564745  0.96361960  0.69257618  1
  O  O58  1  0.16313011  0.20082117  0.69495723  1
  O  O59  1  0.03678312  0.82982226  0.69134537  1
  O  O60  1  0.79508626  0.83031552  0.19338041  1
  O  O61  1  0.03692067  0.20094111  0.19580425  1
  O  O62  1  0.16970599  0.96474818  0.19321350  1
  O  O63  1  0.89602777  0.37770967  0.64188241  1
  O  O64  1  0.48311690  0.10557020  0.64157487  1
  O  O65  1  0.62914038  0.52322735  0.64322978  1
  O  O66  1  0.89875184  0.52718433  0.14362892  1
  O  O67  1  0.62223264  0.10401503  0.14047084  1
  O  O68  1  0.48051967  0.37821870  0.14081815  1
  O  O69  1  0.46001512  0.29857963  0.02525591  1
  O  O70  1  0.83265929  0.53435597  0.02843368  1
  O  O71  1  0.69526338  0.15774810  0.02433623  1
  O  O72  1  0.46230908  0.15849110  0.52533073  1
  O  O73  1  0.70008875  0.53724600  0.52664457  1
  O  O74  1  0.83808148  0.29815820  0.52627682  1
  O  O75  1  0.53885226  0.70130049  0.97330385  1
  O  O76  1  0.16855811  0.46759540  0.97080258  1
  O  O77  1  0.30520700  0.84099152  0.97415602  1
  O  O78  1  0.52632974  0.83925322  0.47548458  1
  O  O79  1  0.31012648  0.47645167  0.47309033  1
  O  O80  1  0.16160750  0.68902138  0.47550484  1
  O  O81  1  0.12804031  0.62937055  0.35950843  1
  O  O82  1  0.50119491  0.87155334  0.35947962  1
  O  O83  1  0.37166427  0.49664151  0.35824104  1
  O  O84  1  0.12517053  0.49076172  0.85623136  1
  O  O85  1  0.36679870  0.86993327  0.85855389  1
  O  O86  1  0.50393611  0.63041008  0.85836308  1
  O  O87  1  0.02155480  0.82387299  0.41618726  1
  O  O88  1  0.80199438  0.97805460  0.41638576  1
  O  O89  1  0.17687097  0.19772081  0.41564454  1
  O  O90  1  0.02093492  0.19026693  0.91040725  1
  O  O91  1  0.16750679  0.98026869  0.91010259  1
  O  O92  1  0.80889768  0.83533774  0.90942612  1
  O  O93  1  0.97539711  0.16192905  0.58933677  1
  O  O94  1  0.18290332  0.01700289  0.58878291  1
  O  O95  1  0.83437422  0.81493135  0.58781440  1
  O  O96  1  0.98146486  0.81571325  0.08803006  1
  O  O97  1  0.83345098  0.01579665  0.08844373  1
  O  O98  1  0.18633280  0.16247356  0.08876089  1
  O  O99  1  0.68981123  0.15824801  0.74867547  1
  O  O100  1  0.46803471  0.30973427  0.74888552  1
  O  O101  1  0.84236465  0.53114439  0.74823377  1
  O  O102  1  0.67773299  0.52180930  0.24451471  1
  O  O103  1  0.84336018  0.32042485  0.24434138  1
  O  O104  1  0.47792641  0.15634557  0.24412433  1
  O  O105  1  0.63937865  0.49687477  0.92427267  1
  O  O106  1  0.85413297  0.35424418  0.92399271  1
  O  O107  1  0.49906781  0.14294280  0.92256700  1
  O  O108  1  0.63405965  0.14352743  0.42419276  1
  O  O109  1  0.50957829  0.36634890  0.42451421  1
  O  O110  1  0.85671521  0.49062923  0.42461877  1
  O  O111  1  0.35105661  0.50103914  0.07082709  1
  O  O112  1  0.15315977  0.65639418  0.07198659  1
  O  O113  1  0.50256198  0.84827978  0.07209138  1
  O  O114  1  0.34557734  0.84919578  0.57370259  1
  O  O115  1  0.50397128  0.65736884  0.57353037  1
  O  O116  1  0.14957909  0.49973052  0.57281960  1
  O  O117  1  0.30390337  0.82298864  0.25593503  1
  O  O118  1  0.51917040  0.69651879  0.25584755  1
  O  O119  1  0.17642777  0.48050463  0.25633784  1
  O  O120  1  0.30132307  0.47591950  0.75767062  1
  O  O121  1  0.17548813  0.70005605  0.75736052  1
  O  O122  1  0.52460368  0.82481013  0.75766157  1
