# generated using pymatgen
data_NaTiGaSi(SO6)2
_symmetry_space_group_name_H-M   'P 1'
_cell_length_a   8.60167258
_cell_length_b   8.64556984
_cell_length_c   22.38752849
_cell_angle_alpha   89.62879128
_cell_angle_beta   90.00000000
_cell_angle_gamma   119.83218170
_symmetry_Int_Tables_number   1
_chemical_formula_structural   NaTiGaSi(SO6)2
_chemical_formula_sum   'Na6 Ti6 Ga6 Si6 S12 O72'
_cell_volume   1444.21926339
_cell_formula_units_Z   6
loop_
 _symmetry_equiv_pos_site_id
 _symmetry_equiv_pos_as_xyz
  1  'x, y, z'
loop_
 _atom_site_type_symbol
 _atom_site_label
 _atom_site_symmetry_multiplicity
 _atom_site_fract_x
 _atom_site_fract_y
 _atom_site_fract_z
 _atom_site_occupancy
  Na  Na0  1  0.00756085  0.00373078  0.50231680  1
  Na  Na1  1  0.99616993  0.00373078  0.00231680  1
  Na  Na2  1  0.67536615  0.33444190  0.83515935  1
  Na  Na3  1  0.65907675  0.33444190  0.33515935  1
  Na  Na4  1  0.33642209  0.67490227  0.16843306  1
  Na  Na5  1  0.33847918  0.67490227  0.66843306  1
  Ti  Ti6  1  0.02382378  0.01542793  0.35503159  1
  Ti  Ti7  1  0.99160415  0.01542793  0.85503159  1
  Ti  Ti8  1  0.65690558  0.30734207  0.68767182  1
  Ti  Ti9  1  0.65043749  0.30734207  0.18767182  1
  Ti  Ti10  1  0.33135539  0.66372954  0.02103433  1
  Ti  Ti11  1  0.33237315  0.66372954  0.52103433  1
  Ga  Ga12  1  0.99773917  0.99359330  0.64893461  1
  Ga  Ga13  1  0.99585413  0.99359330  0.14893461  1
  Ga  Ga14  1  0.68502804  0.32629315  0.98119744  1
  Ga  Ga15  1  0.64126611  0.32629315  0.48119744  1
  Ga  Ga16  1  0.33973067  0.67113761  0.31438745  1
  Ga  Ga17  1  0.33140594  0.67113761  0.81438745  1
  Si  Si18  1  0.28290744  0.98746247  0.24787595  1
  Si  Si19  1  0.70455503  0.98746247  0.74787595  1
  Si  Si20  1  0.36526154  0.03787389  0.58270801  1
  Si  Si21  1  0.67261335  0.03787389  0.08270801  1
  Si  Si22  1  0.04645075  0.38779706  0.91497250  1
  Si  Si23  1  0.34134531  0.38779706  0.41497250  1
  S  S24  1  0.71144101  0.71040204  0.25041721  1
  S  S25  1  0.00240042  0.29119620  0.24959947  1
  S  S26  1  0.28879578  0.29119620  0.74959947  1
  S  S27  1  0.99896103  0.71040204  0.75041721  1
  S  S28  1  0.95191835  0.33175489  0.58194280  1
  S  S29  1  0.66928486  0.62179975  0.58316521  1
  S  S30  1  0.95251589  0.62179975  0.08316521  1
  S  S31  1  0.37983753  0.33175489  0.08194280  1
  S  S32  1  0.62187938  0.66196586  0.91714527  1
  S  S33  1  0.33389403  0.95823908  0.91651127  1
  S  S34  1  0.62434405  0.95823908  0.41651127  1
  S  S35  1  0.04008547  0.66196586  0.41714527  1
  O  O36  1  0.19534890  0.02986013  0.30774019  1
  O  O37  1  0.82106447  0.79509709  0.30395889  1
  O  O38  1  0.96667370  0.17696761  0.30390557  1
  O  O39  1  0.21029391  0.17696761  0.80390557  1
  O  O40  1  0.97403262  0.79509709  0.80395889  1
  O  O41  1  0.83451123  0.02986013  0.80774019  1
  O  O42  1  0.79984171  0.96493514  0.68984987  1
  O  O43  1  0.18182370  0.21154266  0.69570961  1
  O  O44  1  0.03333734  0.81935558  0.69544740  1
  O  O45  1  0.78601823  0.81935558  0.19544740  1
  O  O46  1  0.02971896  0.21154266  0.19570961  1
  O  O47  1  0.16509343  0.96493514  0.18984987  1
  O  O48  1  0.87266154  0.36397984  0.63658210  1
  O  O49  1  0.49937875  0.13417704  0.64174945  1
  O  O50  1  0.63968759  0.51199533  0.63702679  1
  O  O51  1  0.87230874  0.51199533  0.13702679  1
  O  O52  1  0.63479929  0.13417704  0.14174945  1
  O  O53  1  0.49131930  0.36397984  0.13658210  1
  O  O54  1  0.46272087  0.30868658  0.02770634  1
  O  O55  1  0.84457106  0.54671549  0.02849623  1
  O  O56  1  0.70334524  0.16116910  0.02549570  1
  O  O57  1  0.45782486  0.16116910  0.52549570  1
  O  O58  1  0.70214543  0.54671549  0.52849623  1
  O  O59  1  0.84596672  0.30868658  0.52770634  1
  O  O60  1  0.54381061  0.69943515  0.97092968  1
  O  O61  1  0.17277873  0.47732692  0.97458100  1
  O  O62  1  0.30729185  0.84532513  0.97047711  1
  O  O63  1  0.53803229  0.84532513  0.47047711  1
  O  O64  1  0.30454719  0.47732692  0.47458100  1
  O  O65  1  0.15562354  0.69943515  0.47092968  1
  O  O66  1  0.11883218  0.63598540  0.36266756  1
  O  O67  1  0.51384197  0.88463106  0.36260918  1
  O  O68  1  0.36365609  0.50345059  0.35621034  1
  O  O69  1  0.13979350  0.50345059  0.85621034  1
  O  O70  1  0.37078809  0.88463106  0.86260918  1
  O  O71  1  0.51715222  0.63598540  0.86266756  1
  O  O72  1  0.01822507  0.82326976  0.41096553  1
  O  O73  1  0.80028130  0.96725163  0.41049275  1
  O  O74  1  0.15579706  0.18633142  0.40913056  1
  O  O75  1  0.03053436  0.18633142  0.90913056  1
  O  O76  1  0.16697033  0.96725163  0.91049275  1
  O  O77  1  0.80504469  0.82326976  0.91096553  1
  O  O78  1  0.97352499  0.17423657  0.58852822  1
  O  O79  1  0.17084762  0.01896993  0.59363360  1
  O  O80  1  0.82522772  0.80284676  0.58803426  1
  O  O81  1  0.97761905  0.80284676  0.08803426  1
  O  O82  1  0.84812230  0.01896993  0.09363360  1
  O  O83  1  0.20071159  0.17423657  0.08852822  1
  O  O84  1  0.69525777  0.17542796  0.74269961  1
  O  O85  1  0.47189205  0.31140859  0.74404926  1
  O  O86  1  0.83529283  0.53312764  0.74355761  1
  O  O87  1  0.69783581  0.53312764  0.24355761  1
  O  O88  1  0.83951755  0.31140859  0.24404926  1
  O  O89  1  0.48017119  0.17542796  0.24269961  1
  O  O90  1  0.63753040  0.50124591  0.92588695  1
  O  O91  1  0.84725550  0.36133904  0.92056486  1
  O  O92  1  0.48875520  0.14009379  0.92358745  1
  O  O93  1  0.65133959  0.14009379  0.42358745  1
  O  O94  1  0.51408454  0.36133904  0.42056486  1
  O  O95  1  0.86371651  0.50124591  0.42588695  1
  O  O96  1  0.36327496  0.49625343  0.07740261  1
  O  O97  1  0.13425743  0.63778782  0.07684599  1
  O  O98  1  0.48924609  0.84278557  0.07454263  1
  O  O99  1  0.35353848  0.84278557  0.57454263  1
  O  O100  1  0.50352939  0.63778782  0.57684599  1
  O  O101  1  0.13297748  0.49625343  0.57740261  1
  O  O102  1  0.31211216  0.81945836  0.25917787  1
  O  O103  1  0.52993314  0.68949408  0.25530414  1
  O  O104  1  0.16057365  0.46894607  0.25594895  1
  O  O105  1  0.30837142  0.46894607  0.75594895  1
  O  O106  1  0.15955994  0.68949408  0.75530414  1
  O  O107  1  0.50734520  0.81945836  0.75917787  1
