# generated using pymatgen
data_Na5MgSiGe3P5O24
_symmetry_space_group_name_H-M   'P 1'
_cell_length_a   8.64394246
_cell_length_b   8.60878013
_cell_length_c   21.68835297
_cell_angle_alpha   90.11036562
_cell_angle_beta   89.87438902
_cell_angle_gamma   119.88384623
_symmetry_Int_Tables_number   1
_chemical_formula_structural   Na5MgSiGe3P5O24
_chemical_formula_sum   'Na15 Mg3 Si3 Ge9 P15 O72'
_cell_volume   1399.31848247
_cell_formula_units_Z   3
loop_
 _symmetry_equiv_pos_site_id
 _symmetry_equiv_pos_as_xyz
  1  'x, y, z'
loop_
 _atom_site_type_symbol
 _atom_site_label
 _atom_site_symmetry_multiplicity
 _atom_site_fract_x
 _atom_site_fract_y
 _atom_site_fract_z
 _atom_site_occupancy
  Na  Na0  1  0.63913616  0.00699783  0.24680156  1
  Na  Na1  1  0.36850391  0.36190011  0.24681883  1
  Na  Na2  1  0.99310597  0.63210303  0.24713873  1
  Na  Na3  1  0.63218225  0.62737371  0.74900737  1
  Na  Na4  1  0.99559480  0.36801115  0.74907787  1
  Na  Na5  1  0.37409442  0.00596002  0.74659435  1
  Na  Na6  1  0.66292188  0.97281444  0.58347443  1
  Na  Na7  1  0.33378173  0.30362507  0.92060569  1
  Na  Na8  1  0.32802356  0.03349260  0.41590564  1
  Na  Na9  1  0.00026878  0.00024349  0.49710453  1
  Na  Na10  1  0.99072123  0.99355375  0.00167285  1
  Na  Na11  1  0.67467241  0.33558721  0.83747186  1
  Na  Na12  1  0.67424158  0.34027389  0.33306350  1
  Na  Na13  1  0.33359450  0.66701696  0.16113876  1
  Na  Na14  1  0.32659970  0.66306926  0.66265096  1
  Mg  Mg15  1  0.99549915  0.99960385  0.35532445  1
  Mg  Mg16  1  0.66547335  0.33105196  0.68260732  1
  Mg  Mg17  1  0.66767637  0.33367583  0.18087162  1
  Si  Si18  1  0.37172006  0.04045545  0.58317483  1
  Si  Si19  1  0.62558977  0.66903404  0.91866756  1
  Si  Si20  1  0.03874508  0.37885304  0.91815764  1
  Ge  Ge21  1  0.99310106  0.99722390  0.85827974  1
  Ge  Ge22  1  0.00736984  0.99993159  0.64325386  1
  Ge  Ge23  1  0.99855227  0.00060072  0.14373880  1
  Ge  Ge24  1  0.67713181  0.34083507  0.98207007  1
  Ge  Ge25  1  0.66617703  0.33562063  0.48217291  1
  Ge  Ge26  1  0.33560092  0.66327476  0.01979481  1
  Ge  Ge27  1  0.32950140  0.66563814  0.51972304  1
  Ge  Ge28  1  0.33220888  0.66463087  0.31604826  1
  Ge  Ge29  1  0.33068092  0.66195758  0.82123447  1
  P  P30  1  0.28839520  0.99882015  0.25164231  1
  P  P31  1  0.71131202  0.71206191  0.25123096  1
  P  P32  1  0.00089013  0.28889335  0.25115990  1
  P  P33  1  0.28359825  0.28662459  0.75134345  1
  P  P34  1  0.00385133  0.71703208  0.75160126  1
  P  P35  1  0.71310031  0.99764601  0.75095770  1
  P  P36  1  0.96209391  0.33784846  0.58354113  1
  P  P37  1  0.66518589  0.62289262  0.58349958  1
  P  P38  1  0.96413682  0.62877516  0.08357216  1
  P  P39  1  0.66385086  0.03834360  0.08300577  1
  P  P40  1  0.37299161  0.33322274  0.08334750  1
  P  P41  1  0.33378950  0.95321891  0.91749679  1
  P  P42  1  0.62446307  0.95592290  0.41844619  1
  P  P43  1  0.33761692  0.38328120  0.41861337  1
  P  P44  1  0.03946763  0.65862250  0.41837071  1
  O  O45  1  0.21205500  0.03227062  0.30959422  1
  O  O46  1  0.82604189  0.79107752  0.30695631  1
  O  O47  1  0.96663698  0.17492273  0.30704638  1
  O  O48  1  0.20110541  0.16588328  0.80869220  1
  O  O49  1  0.96732743  0.80351686  0.80784524  1
  O  O50  1  0.83781631  0.03416131  0.80633530  1
  O  O51  1  0.79136255  0.95700678  0.69154790  1
  O  O52  1  0.15944793  0.20417296  0.69421115  1
  O  O53  1  0.04259139  0.83723901  0.69335527  1
  O  O54  1  0.78913693  0.83551837  0.19267840  1
  O  O55  1  0.04615665  0.21067234  0.19241527  1
  O  O56  1  0.16387053  0.95527081  0.19414251  1
  O  O57  1  0.89192988  0.37300116  0.64292470  1
  O  O58  1  0.49062110  0.10628535  0.64426173  1
  O  O59  1  0.63191849  0.51945609  0.64295735  1
  O  O60  1  0.89157435  0.52230692  0.14249563  1
  O  O61  1  0.63222191  0.11071241  0.14255802  1
  O  O62  1  0.47995386  0.36556220  0.14183084  1
  O  O63  1  0.45646758  0.29759155  0.02422834  1
  O  O64  1  0.84086781  0.54528602  0.02620762  1
  O  O65  1  0.70081522  0.16163132  0.02557358  1
  O  O66  1  0.46273114  0.16567333  0.52104817  1
  O  O67  1  0.70664015  0.54251201  0.52594169  1
  O  O68  1  0.83492877  0.29334773  0.52681832  1
  O  O69  1  0.53236359  0.70824358  0.97563278  1
  O  O70  1  0.17842541  0.46690365  0.97415788  1
  O  O71  1  0.29425770  0.83144778  0.97275407  1
  O  O72  1  0.53281177  0.83806487  0.47567016  1
  O  O73  1  0.30592991  0.47298295  0.47468987  1
  O  O74  1  0.16737305  0.69764486  0.47335619  1
  O  O75  1  0.12076635  0.62369158  0.35783982  1
  O  O76  1  0.49785642  0.87590035  0.35960867  1
  O  O77  1  0.37295646  0.49804513  0.35808344  1
  O  O78  1  0.11970736  0.49600163  0.85315863  1
  O  O79  1  0.37066806  0.87764528  0.85572587  1
  O  O80  1  0.50047871  0.62189336  0.85436389  1
  O  O81  1  0.02739273  0.82726683  0.41325676  1
  O  O82  1  0.80440411  0.97383574  0.41387171  1
  O  O83  1  0.17745893  0.19719783  0.41404320  1
  O  O84  1  0.03409541  0.18645696  0.90834726  1
  O  O85  1  0.16781175  0.97678638  0.90876236  1
  O  O86  1  0.82132469  0.84265809  0.90948310  1
  O  O87  1  0.97049416  0.15949276  0.58891029  1
  O  O88  1  0.17372721  0.02153350  0.58816023  1
  O  O89  1  0.83081754  0.81795884  0.58871225  1
  O  O90  1  0.98019569  0.81855122  0.08885939  1
  O  O91  1  0.83662127  0.02082430  0.08790395  1
  O  O92  1  0.18328143  0.16092815  0.08805391  1
  O  O93  1  0.69342015  0.16386224  0.74745467  1
  O  O94  1  0.47029645  0.31022513  0.74672255  1
  O  O95  1  0.83999965  0.53060048  0.74658942  1
  O  O96  1  0.68125799  0.52209482  0.24365325  1
  O  O97  1  0.84130488  0.31849626  0.24388523  1
  O  O98  1  0.47663506  0.15924068  0.24427787  1
  O  O99  1  0.63411700  0.48359617  0.92500690  1
  O  O100  1  0.84132814  0.35315505  0.92448536  1
  O  O101  1  0.49765204  0.14236848  0.92296919  1
  O  O102  1  0.63269557  0.14273633  0.42298242  1
  O  O103  1  0.51108488  0.36760040  0.42284080  1
  O  O104  1  0.85431832  0.48654905  0.42522853  1
  O  O105  1  0.35376870  0.50270561  0.07625174  1
  O  O106  1  0.15159423  0.64875678  0.07401363  1
  O  O107  1  0.49395783  0.85121893  0.07486487  1
  O  O108  1  0.35516399  0.84157326  0.57336539  1
  O  O109  1  0.49960235  0.64738685  0.57440733  1
  O  O110  1  0.15012437  0.49999136  0.57404068  1
  O  O111  1  0.30597177  0.82258877  0.25661675  1
  O  O112  1  0.51812507  0.69491175  0.25674938  1
  O  O113  1  0.17686871  0.48228535  0.25617542  1
  O  O114  1  0.30131600  0.47761085  0.75507581  1
  O  O115  1  0.17692520  0.70081771  0.75602373  1
  O  O116  1  0.52315144  0.82634429  0.75643917  1
