# generated using pymatgen
data_Na14Mg2Zr6Si9(SO16)3
_symmetry_space_group_name_H-M   'P 1'
_cell_length_a   18.43037803
_cell_length_b   9.23267013
_cell_length_c   22.89600781
_cell_angle_alpha   90.08080964
_cell_angle_beta   90.07172076
_cell_angle_gamma   120.01854653
_symmetry_Int_Tables_number   1
_chemical_formula_structural   Na14Mg2Zr6Si9(SO16)3
_chemical_formula_sum   'Na42 Mg6 Zr18 Si27 S9 O144'
_cell_volume   3373.41073481
_cell_formula_units_Z   3
loop_
 _symmetry_equiv_pos_site_id
 _symmetry_equiv_pos_as_xyz
  1  'x, y, z'
loop_
 _atom_site_type_symbol
 _atom_site_label
 _atom_site_symmetry_multiplicity
 _atom_site_fract_x
 _atom_site_fract_y
 _atom_site_fract_z
 _atom_site_occupancy
  Na  Na0  1  0.31291991  0.00282663  0.24495226  1
  Na  Na1  1  0.81741462  0.01685259  0.24688749  1
  Na  Na2  1  0.18722984  0.36471941  0.25094795  1
  Na  Na3  1  0.69451267  0.36608694  0.24889440  1
  Na  Na4  1  0.99162365  0.61987539  0.25255637  1
  Na  Na5  1  0.49533053  0.63588479  0.24753309  1
  Na  Na6  1  0.31754623  0.61708883  0.74061305  1
  Na  Na7  1  0.81346475  0.62411427  0.74092761  1
  Na  Na8  1  0.99295792  0.34847851  0.74222408  1
  Na  Na9  1  0.49307643  0.36760648  0.74921904  1
  Na  Na10  1  0.19492631  0.02646584  0.74448315  1
  Na  Na11  1  0.68917573  0.00953481  0.74747589  1
  Na  Na12  1  0.15483868  0.33736780  0.58652132  1
  Na  Na13  1  0.65792521  0.35466403  0.57836322  1
  Na  Na14  1  0.01021057  0.69190110  0.57981295  1
  Na  Na15  1  0.51570989  0.69394565  0.57343491  1
  Na  Na16  1  0.32956522  0.96534609  0.58432111  1
  Na  Na17  1  0.82918897  0.95180908  0.57383077  1
  Na  Na18  1  0.15758923  0.96309035  0.08415644  1
  Na  Na19  1  0.65632888  0.97331422  0.08926022  1
  Na  Na20  1  0.33237114  0.70525413  0.08459285  1
  Na  Na21  1  0.82939823  0.69373257  0.08737043  1
  Na  Na22  1  0.01314853  0.33209112  0.07849939  1
  Na  Na23  1  0.51307131  0.33125034  0.08368398  1
  Na  Na24  1  0.98512065  0.67002132  0.91867818  1
  Na  Na25  1  0.34907512  0.03735906  0.91459357  1
  Na  Na26  1  0.16326410  0.29226645  0.91586466  1
  Na  Na27  1  0.48788121  0.30473390  0.41854353  1
  Na  Na28  1  0.66923297  0.03280898  0.41537285  1
  Na  Na29  1  0.84736387  0.66948440  0.41978329  1
  Na  Na30  1  0.99843148  0.99650937  0.49628524  1
  Na  Na31  1  0.49254625  0.98367186  0.49332626  1
  Na  Na32  1  0.98974533  0.99934967  0.99499547  1
  Na  Na33  1  0.50691645  0.01393045  0.00254513  1
  Na  Na34  1  0.33737886  0.33664371  0.82400020  1
  Na  Na35  1  0.82840035  0.32214958  0.82995785  1
  Na  Na36  1  0.32860994  0.33480150  0.33092062  1
  Na  Na37  1  0.83627381  0.32969218  0.32881403  1
  Na  Na38  1  0.17195485  0.67735975  0.16961271  1
  Na  Na39  1  0.67079515  0.67832972  0.16787490  1
  Na  Na40  1  0.16968738  0.66202303  0.66189099  1
  Na  Na41  1  0.67400729  0.66766305  0.66431051  1
  Mg  Mg42  1  0.32721020  0.33301457  0.68722445  1
  Mg  Mg43  1  0.83348017  0.33462610  0.68187243  1
  Mg  Mg44  1  0.33380220  0.33035439  0.18377526  1
  Mg  Mg45  1  0.82639773  0.31998820  0.18881596  1
  Mg  Mg46  1  0.16569101  0.67772347  0.01408411  1
  Mg  Mg47  1  0.67303277  0.66416905  0.50933155  1
  Zr  Zr48  1  0.99757577  0.99641207  0.35031401  1
  Zr  Zr49  1  0.49762942  0.97918407  0.35589774  1
  Zr  Zr50  1  0.99654750  0.01458900  0.85571797  1
  Zr  Zr51  1  0.50421378  0.00965996  0.84784434  1
  Zr  Zr52  1  0.99690548  0.00892588  0.64433979  1
  Zr  Zr53  1  0.49664927  0.98955007  0.65292441  1
  Zr  Zr54  1  0.99622249  0.00286561  0.15440769  1
  Zr  Zr55  1  0.49815792  0.98680366  0.14626777  1
  Zr  Zr56  1  0.34230698  0.32996522  0.98127959  1
  Zr  Zr57  1  0.82916852  0.32191204  0.98001694  1
  Zr  Zr58  1  0.32914577  0.33628927  0.47979744  1
  Zr  Zr59  1  0.84277749  0.34727322  0.47739845  1
  Zr  Zr60  1  0.66813096  0.65603699  0.01987100  1
  Zr  Zr61  1  0.16801553  0.67942426  0.51911242  1
  Zr  Zr62  1  0.16636830  0.67965237  0.31325632  1
  Zr  Zr63  1  0.67125080  0.67667551  0.32009001  1
  Zr  Zr64  1  0.16544726  0.66882064  0.81627602  1
  Zr  Zr65  1  0.66631964  0.65305659  0.81300896  1
  Si  Si66  1  0.14934451  0.00763388  0.24788895  1
  Si  Si67  1  0.64733076  0.99783005  0.25080608  1
  Si  Si68  1  0.35123476  0.69858166  0.24809052  1
  Si  Si69  1  0.84929327  0.69721570  0.25008714  1
  Si  Si70  1  0.99989664  0.29902237  0.25023191  1
  Si  Si71  1  0.14720357  0.29406588  0.75156313  1
  Si  Si72  1  0.65091203  0.29491997  0.74632581  1
  Si  Si73  1  0.49957447  0.70203660  0.75134533  1
  Si  Si74  1  0.35091937  0.00120898  0.75097611  1
  Si  Si75  1  0.85108992  0.00336093  0.74853946  1
  Si  Si76  1  0.97898823  0.33789547  0.58663937  1
  Si  Si77  1  0.18929032  0.04484148  0.58769419  1
  Si  Si78  1  0.33504530  0.62692164  0.58596864  1
  Si  Si79  1  0.82850169  0.62262851  0.58672198  1
  Si  Si80  1  0.47862786  0.62154091  0.08595479  1
  Si  Si81  1  0.32909948  0.03023546  0.08610553  1
  Si  Si82  1  0.83555011  0.04312423  0.08536708  1
  Si  Si83  1  0.68905431  0.33278403  0.08715614  1
  Si  Si84  1  0.81407241  0.66291233  0.91672113  1
  Si  Si85  1  0.02173897  0.38096244  0.92160704  1
  Si  Si86  1  0.52030871  0.36758177  0.91619998  1
  Si  Si87  1  0.16576839  0.96207007  0.91914330  1
  Si  Si88  1  0.31440891  0.96511608  0.41684793  1
  Si  Si89  1  0.81693458  0.96582438  0.42074819  1
  Si  Si90  1  0.66479507  0.37073749  0.41887336  1
  Si  Si91  1  0.02137161  0.67421788  0.41590115  1
  Si  Si92  1  0.52139230  0.66118660  0.42113264  1
  S  S93  1  0.49971215  0.29186476  0.24987324  1
  S  S94  1  -0.00003524  0.70804489  0.75074837  1
  S  S95  1  0.47946429  0.33395170  0.58497454  1
  S  S96  1  0.68604693  0.04001472  0.58448246  1
  S  S97  1  0.98034116  0.62566050  0.08392871  1
  S  S98  1  0.18703862  0.33439159  0.08280586  1
  S  S99  1  0.31269760  0.66668816  0.91859665  1
  S  S100  1  0.66492074  0.95644759  0.91654932  1
  S  S101  1  0.16590158  0.37470704  0.41637410  1
  O  O102  1  0.09937656  0.03184166  0.30225774  1
  O  O103  1  0.59942357  0.02263220  0.30700450  1
  O  O104  1  0.41414933  0.80071482  0.30245188  1
  O  O105  1  0.90959113  0.79479939  0.30634170  1
  O  O106  1  0.48900030  0.18910585  0.30241890  1
  O  O107  1  0.98588595  0.17038872  0.30330276  1
  O  O108  1  0.10056578  0.17580404  0.80867785  1
  O  O109  1  0.60102868  0.17258070  0.80239758  1
  O  O110  1  0.48545325  0.80193159  0.80579990  1
  O  O111  1  0.99046104  0.78979003  0.80380935  1
  O  O112  1  0.40952512  0.02174849  0.80871306  1
  O  O113  1  0.91366139  0.02808178  0.80368118  1
  O  O114  1  0.39528905  0.96562770  0.69386315  1
  O  O115  1  0.89370585  0.96385603  0.69178847  1
  O  O116  1  0.08616015  0.20554161  0.69427364  1
  O  O117  1  0.58919636  0.20754336  0.68931820  1
  O  O118  1  0.01379182  0.81145869  0.69813212  1
  O  O119  1  0.51726186  0.82439746  0.69312930  1
  O  O120  1  0.39269636  0.82075739  0.18996910  1
  O  O121  1  0.89415355  0.82257591  0.19243192  1
  O  O122  1  0.01833235  0.21470682  0.19071291  1
  O  O123  1  0.51130991  0.21165015  0.19668803  1
  O  O124  1  0.09022858  0.97206876  0.18804097  1
  O  O125  1  0.58714131  0.97015394  0.19278030  1
  O  O126  1  0.43868088  0.35171948  0.63738219  1
  O  O127  1  0.94220495  0.37210668  0.64560165  1
  O  O128  1  0.24642028  0.11885176  0.64518492  1
  O  O129  1  0.73646755  0.11872831  0.63734686  1
  O  O130  1  0.32014616  0.51920668  0.64446793  1
  O  O131  1  0.81572904  0.51024579  0.64434765  1
  O  O132  1  0.43978847  0.50813795  0.14312291  1
  O  O133  1  0.94064738  0.52694204  0.13583767  1
  O  O134  1  0.31299338  0.11811246  0.14159823  1
  O  O135  1  0.82023258  0.12272960  0.14305364  1
  O  O136  1  0.23791301  0.35693417  0.13498885  1
  O  O137  1  0.74689037  0.37302808  0.14375554  1
  O  O138  1  0.22671003  0.31174299  0.02898504  1
  O  O139  1  0.73393000  0.30189960  0.02955093  1
  O  O140  1  0.41562420  0.53333409  0.02924124  1
  O  O141  1  0.92816187  0.54782678  0.03012496  1
  O  O142  1  0.34522563  0.15108416  0.02673758  1
  O  O143  1  0.85269605  0.16679417  0.02838315  1
  O  O144  1  0.23445954  0.16697848  0.53089356  1
  O  O145  1  0.72482411  0.14144170  0.53145636  1
  O  O146  1  0.35241534  0.53723455  0.52966656  1
  O  O147  1  0.84462348  0.53439851  0.52823646  1
  O  O148  1  0.42711255  0.30644212  0.53143731  1
  O  O149  1  0.91678008  0.30193153  0.53085940  1
  O  O150  1  0.27310298  0.69100721  0.97051592  1
  O  O151  1  0.77050597  0.69187513  0.97457145  1
  O  O152  1  0.08063863  0.46230278  0.97815890  1
  O  O153  1  0.57510215  0.46064861  0.97429024  1
  O  O154  1  0.15109337  0.84974955  0.97629630  1
  O  O155  1  0.65614999  0.85901726  0.96997562  1
  O  O156  1  0.27101214  0.84969284  0.47490408  1
  O  O157  1  0.77590029  0.84938740  0.47726288  1
  O  O158  1  0.15790347  0.45657422  0.47002111  1
  O  O159  1  0.64487507  0.44606158  0.47639628  1
  O  O160  1  0.07590509  0.68776862  0.47426088  1
  O  O161  1  0.57797976  0.69456315  0.47881489  1
  O  O162  1  0.06486006  0.64584991  0.35810180  1
  O  O163  1  0.56361084  0.63331371  0.36108950  1
  O  O164  1  0.25779143  0.87364236  0.35866294  1
  O  O165  1  0.75744521  0.87741495  0.36141359  1
  O  O166  1  0.17673176  0.47618721  0.36354822  1
  O  O167  1  0.68182961  0.49081714  0.36031392  1
  O  O168  1  0.06727339  0.49662443  0.86238496  1
  O  O169  1  0.56363238  0.47855315  0.85789278  1
  O  O170  1  0.18485824  0.87613869  0.86105094  1
  O  O171  1  0.67504671  0.87693864  0.86362516  1
  O  O172  1  0.26075304  0.64352672  0.86492396  1
  O  O173  1  0.75726067  0.64151652  0.85877715  1
  O  O174  1  0.00974264  0.83796873  0.41271258  1
  O  O175  1  0.51372992  0.83141172  0.41307874  1
  O  O176  1  0.40985837  0.99552140  0.41063884  1
  O  O177  1  0.90867169  0.98119216  0.41121001  1
  O  O178  1  0.09161320  0.20745302  0.41232212  1
  O  O179  1  0.58190271  0.18382314  0.40844481  1
  O  O180  1  0.01401285  0.19576111  0.91329617  1
  O  O181  1  0.50416161  0.17404539  0.91354724  1
  O  O182  1  0.08196631  0.97864178  0.90946479  1
  O  O183  1  0.58943890  0.97541968  0.91258111  1
  O  O184  1  0.39667017  0.81735609  0.91231416  1
  O  O185  1  0.90974298  0.82381130  0.91060458  1
  O  O186  1  0.48863822  0.18007871  0.58795549  1
  O  O187  1  0.98890878  0.16767989  0.58789037  1
  O  O188  1  0.09410616  0.01937277  0.59151827  1
  O  O189  1  0.60047996  0.02632203  0.58832640  1
  O  O190  1  0.42048681  0.82139921  0.58724165  1
  O  O191  1  0.91744680  0.80887974  0.59011344  1
  O  O192  1  0.48774954  0.81053780  0.08744803  1
  O  O193  1  0.99012170  0.79809706  0.08656656  1
  O  O194  1  0.41784695  0.02476769  0.08819163  1
  O  O195  1  0.92095106  0.01936467  0.08639241  1
  O  O196  1  0.10187294  0.17800785  0.08600936  1
  O  O197  1  0.59350925  0.16803330  0.08995743  1
  O  O198  1  0.34559498  0.16920468  0.74683175  1
  O  O199  1  0.84316105  0.17025585  0.74406524  1
  O  O200  1  0.23983915  0.31617348  0.74847181  1
  O  O201  1  0.74248709  0.31338654  0.74494733  1
  O  O202  1  0.41868718  0.51842030  0.74480501  1
  O  O203  1  0.92595051  0.54017567  0.74664383  1
  O  O204  1  0.34358566  0.51609148  0.24316976  1
  O  O205  1  0.84493595  0.51971044  0.24486357  1
  O  O206  1  0.42416485  0.30854306  0.24513327  1
  O  O207  1  0.91916467  0.32095113  0.24335823  1
  O  O208  1  0.24226006  0.17064460  0.24431174  1
  O  O209  1  0.73930742  0.16139492  0.24778968  1
  O  O210  1  0.31706776  0.51030045  0.92246640  1
  O  O211  1  0.82650829  0.49894907  0.92367454  1
  O  O212  1  0.42484881  0.34430328  0.92029757  1
  O  O213  1  0.92990367  0.36874893  0.92391657  1
  O  O214  1  0.24801899  0.15532226  0.92360689  1
  O  O215  1  0.74145133  0.12667422  0.92038210  1
  O  O216  1  0.32598440  0.15298262  0.42412079  1
  O  O217  1  0.81727453  0.14341803  0.42371819  1
  O  O218  1  0.24332020  0.36001125  0.42046137  1
  O  O219  1  0.74810708  0.34926831  0.42425487  1
  O  O220  1  0.42843235  0.49070124  0.42441903  1
  O  O221  1  0.92644671  0.51009170  0.41967851  1
  O  O222  1  0.17625972  0.48301269  0.07763148  1
  O  O223  1  0.67598839  0.49783203  0.07790012  1
  O  O224  1  0.06496031  0.64277067  0.07815984  1
  O  O225  1  0.57406899  0.65326985  0.07503175  1
  O  O226  1  0.24874173  0.83951335  0.07708075  1
  O  O227  1  0.75192005  0.85548387  0.07559435  1
  O  O228  1  0.17670913  0.85419322  0.57826973  1
  O  O229  1  0.67355711  0.86845358  0.58034794  1
  O  O230  1  0.25175474  0.64832754  0.57680613  1
  O  O231  1  0.74680123  0.64994105  0.58043511  1
  O  O232  1  0.07512560  0.49680860  0.57639252  1
  O  O233  1  0.56355782  0.48482392  0.57990769  1
  O  O234  1  0.15488237  0.83337925  0.25288376  1
  O  O235  1  0.65016839  0.82094261  0.25437377  1
  O  O236  1  0.25861939  0.68309141  0.25514304  1
  O  O237  1  0.75653916  0.68287664  0.25359986  1
  O  O238  1  0.08766551  0.47926780  0.25574179  1
  O  O239  1  0.57635978  0.46042495  0.25391209  1
  O  O240  1  0.15371671  0.48091613  0.75809074  1
  O  O241  1  0.65517564  0.47744986  0.75273098  1
  O  O242  1  0.07774854  0.69257931  0.75569998  1
  O  O243  1  0.58684891  0.69653127  0.75724735  1
  O  O244  1  0.25855403  0.82889122  0.75603927  1
  O  O245  1  0.75832228  0.83446800  0.75643852  1
