# generated using pymatgen
data_NaCaHf3P3(SO8)3
_symmetry_space_group_name_H-M   'P 1'
_cell_length_a   8.93904781
_cell_length_b   8.94106123
_cell_length_c   23.28769992
_cell_angle_alpha   89.97552069
_cell_angle_beta   90.12350116
_cell_angle_gamma   120.09155260
_symmetry_Int_Tables_number   1
_chemical_formula_structural   NaCaHf3P3(SO8)3
_chemical_formula_sum   'Na3 Ca3 Hf9 P9 S9 O72'
_cell_volume   1610.40469752
_cell_formula_units_Z   3
loop_
 _symmetry_equiv_pos_site_id
 _symmetry_equiv_pos_as_xyz
  1  'x, y, z'
loop_
 _atom_site_type_symbol
 _atom_site_label
 _atom_site_symmetry_multiplicity
 _atom_site_fract_x
 _atom_site_fract_y
 _atom_site_fract_z
 _atom_site_occupancy
  Na  Na0  1  0.65337613  0.33147927  0.83194590  1
  Na  Na1  1  0.67446993  0.32867836  0.33065800  1
  Na  Na2  1  0.32959516  0.67470299  0.16634619  1
  Ca  Ca3  1  0.66005344  0.33739099  0.68714389  1
  Ca  Ca4  1  0.67106768  0.33068617  0.18460401  1
  Ca  Ca5  1  0.33183677  0.67217617  0.31477444  1
  Hf  Hf6  1  0.99444105  0.99409851  0.35923730  1
  Hf  Hf7  1  0.00594698  0.00467627  0.86050477  1
  Hf  Hf8  1  0.00048481  0.00142850  0.64608146  1
  Hf  Hf9  1  0.99520381  0.99556283  0.13934892  1
  Hf  Hf10  1  0.67509693  0.33522274  0.98045811  1
  Hf  Hf11  1  0.67443674  0.34263012  0.48403131  1
  Hf  Hf12  1  0.33460626  0.67239721  0.01557318  1
  Hf  Hf13  1  0.34117029  0.67535212  0.51668677  1
  Hf  Hf14  1  0.33328294  0.65967250  0.81291275  1
  P  P15  1  0.28179611  0.28451749  0.75294253  1
  P  P16  1  0.66533703  0.62967490  0.58414040  1
  P  P17  1  0.96442661  0.62424831  0.08322801  1
  P  P18  1  0.66051417  0.03651181  0.08313607  1
  P  P19  1  0.61977737  0.66094711  0.91561617  1
  P  P20  1  0.04367494  0.38218785  0.91574188  1
  P  P21  1  0.34158069  0.95844025  0.91447440  1
  P  P22  1  0.62638840  0.96822169  0.41624623  1
  P  P23  1  0.03793169  0.66186995  0.41633620  1
  S  S24  1  0.28092941  0.00244388  0.24986658  1
  S  S25  1  0.71697561  0.71682356  0.24971381  1
  S  S26  1  0.00197979  0.28063677  0.25022326  1
  S  S27  1  0.00653640  0.71959775  0.75282611  1
  S  S28  1  0.71384775  0.99481902  0.75250737  1
  S  S29  1  0.96532069  0.33590064  0.58333373  1
  S  S30  1  0.37082990  0.03755606  0.58286275  1
  S  S31  1  0.37386908  0.33741798  0.08237376  1
  S  S32  1  0.33693565  0.37267914  0.41720233  1
  O  O33  1  0.18599243  0.00522635  0.30256940  1
  O  O34  1  0.81721304  0.81143160  0.30257745  1
  O  O35  1  0.99791390  0.18148882  0.30291990  1
  O  O36  1  0.18126129  0.17031852  0.80473888  1
  O  O37  1  0.98378655  0.80652432  0.80311093  1
  O  O38  1  0.82025790  0.01118670  0.80309578  1
  O  O39  1  0.79642022  0.97437750  0.69908522  1
  O  O40  1  0.17379397  0.19485848  0.69738750  1
  O  O41  1  0.02327794  0.82072405  0.69932168  1
  O  O42  1  0.81179253  0.81755355  0.19759511  1
  O  O43  1  0.00468744  0.18563175  0.19787174  1
  O  O44  1  0.18169697  0.99828885  0.19751116  1
  O  O45  1  0.89754338  0.37189943  0.63449062  1
  O  O46  1  0.47607212  0.10169853  0.63410912  1
  O  O47  1  0.62356932  0.51999472  0.63684405  1
  O  O48  1  0.89771163  0.52083370  0.13742304  1
  O  O49  1  0.61794532  0.09927830  0.13709249  1
  O  O50  1  0.47543333  0.37301040  0.13435106  1
  O  O51  1  0.45675035  0.30842058  0.03156329  1
  O  O52  1  0.84391020  0.53524427  0.03040531  1
  O  O53  1  0.68847062  0.15576402  0.03042635  1
  O  O54  1  0.45382781  0.15202289  0.53247240  1
  O  O55  1  0.69855270  0.53918554  0.53194405  1
  O  O56  1  0.84695889  0.30117870  0.53296038  1
  O  O57  1  0.53565730  0.69011836  0.96845656  1
  O  O58  1  0.15601879  0.46453213  0.96886676  1
  O  O59  1  0.31150882  0.84607848  0.96804488  1
  O  O60  1  0.53666251  0.84604763  0.46836054  1
  O  O61  1  0.30738015  0.45592850  0.46776765  1
  O  O62  1  0.15551029  0.68889607  0.46891457  1
  O  O63  1  0.09854326  0.61699044  0.36253921  1
  O  O64  1  0.52153405  0.90282789  0.36230906  1
  O  O65  1  0.37596107  0.47499423  0.36571129  1
  O  O66  1  0.12806962  0.49735122  0.86238755  1
  O  O67  1  0.36988467  0.87167163  0.86158719  1
  O  O68  1  0.50290250  0.63041960  0.86218611  1
  O  O69  1  0.02122782  0.82610008  0.40837210  1
  O  O70  1  0.80801201  0.98583097  0.40858475  1
  O  O71  1  0.18016613  0.19912721  0.41004110  1
  O  O72  1  0.02110689  0.20177705  0.90639874  1
  O  O73  1  0.17926393  0.97482809  0.90586067  1
  O  O74  1  0.79800372  0.82016452  0.90465051  1
  O  O75  1  0.97983525  0.17747889  0.59095727  1
  O  O76  1  0.19751405  0.02079736  0.59120656  1
  O  O77  1  0.82874274  0.81086255  0.59394555  1
  O  O78  1  0.98268281  0.80666183  0.09113070  1
  O  O79  1  0.82742238  0.02356558  0.09130440  1
  O  O80  1  0.19990728  0.17944479  0.08977241  1
  O  O81  1  0.69714463  0.14885092  0.74844837  1
  O  O82  1  0.46011299  0.30335472  0.75202517  1
  O  O83  1  0.85647975  0.54536433  0.74935163  1
  O  O84  1  0.70491429  0.54749055  0.25049075  1
  O  O85  1  0.84420287  0.29305660  0.25175880  1
  O  O86  1  0.45071670  0.16048950  0.25113035  1
  O  O87  1  0.63835237  0.49936239  0.92451019  1
  O  O88  1  0.86196234  0.36173412  0.92369537  1
  O  O89  1  0.49991806  0.14058862  0.92390695  1
  O  O90  1  0.65471762  0.14999713  0.43153301  1
  O  O91  1  0.48503101  0.34348862  0.42949903  1
  O  O92  1  0.85163314  0.50938640  0.42989729  1
  O  O93  1  0.34496816  0.48527140  0.07180059  1
  O  O94  1  0.14800780  0.65414356  0.07069827  1
  O  O95  1  0.51086443  0.85039804  0.07051979  1
  O  O96  1  0.34212948  0.86226098  0.56965154  1
  O  O97  1  0.51261920  0.65586103  0.56656063  1
  O  O98  1  0.13793324  0.48188370  0.56869089  1
  O  O99  1  0.29350842  0.84488264  0.24873562  1
  O  O100  1  0.54755915  0.70470095  0.24963374  1
  O  O101  1  0.15986863  0.45026479  0.24968933  1
  O  O102  1  0.29186067  0.46225481  0.76009728  1
  O  O103  1  0.16814703  0.71266152  0.75868487  1
  O  O104  1  0.54193694  0.83630004  0.75802190  1
