# generated using pymatgen
data_MgMn2V2O8
_symmetry_space_group_name_H-M   'P 1'
_cell_length_a   5.31878009
_cell_length_b   5.31878019
_cell_length_c   6.52530500
_cell_angle_alpha   90.00000000
_cell_angle_beta   90.00000000
_cell_angle_gamma   66.45340473
_symmetry_Int_Tables_number   1
_chemical_formula_structural   MgMn2V2O8
_chemical_formula_sum   'Mg1 Mn2 V2 O8'
_cell_volume   169.22672074
_cell_formula_units_Z   1
loop_
 _symmetry_equiv_pos_site_id
 _symmetry_equiv_pos_as_xyz
  1  'x, y, z'
loop_
 _atom_site_type_symbol
 _atom_site_label
 _atom_site_symmetry_multiplicity
 _atom_site_fract_x
 _atom_site_fract_y
 _atom_site_fract_z
 _atom_site_occupancy
  Mg  Mg0  1  0.66109900  0.66109900  0.25000000  1
  Mn  Mn1  1  0.00211100  0.00211100  0.50765200  1
  Mn  Mn2  1  0.00211100  0.00211100  0.99234800  1
  V  V3  1  0.64416500  0.64416400  0.75000000  1
  V  V4  1  0.35081100  0.35081100  0.25000100  1
  O  O5  1  0.23760100  0.23759800  0.45657700  1
  O  O6  1  0.72206500  0.24537900  0.25000100  1
  O  O7  1  0.24537800  0.72206700  0.25000100  1
  O  O8  1  0.28674300  0.77543600  0.75000000  1
  O  O9  1  0.23760100  0.23759800  0.04342400  1
  O  O10  1  0.75494000  0.75493900  0.97567800  1
  O  O11  1  0.77543500  0.28674300  0.75000000  1
  O  O12  1  0.75494000  0.75493900  0.52432300  1
