# generated using pymatgen
data_K2RbTbMgV2O8
_symmetry_space_group_name_H-M   'P 1'
_cell_length_a   6.19847716
_cell_length_b   6.19847696
_cell_length_c   7.87916463
_cell_angle_alpha   84.69026436
_cell_angle_beta   95.30973571
_cell_angle_gamma   121.36412847
_symmetry_Int_Tables_number   1
_chemical_formula_structural   K2RbTbMgV2O8
_chemical_formula_sum   'K2 Rb1 Tb1 Mg1 V2 O8'
_cell_volume   257.03098775
_cell_formula_units_Z   1
loop_
 _symmetry_equiv_pos_site_id
 _symmetry_equiv_pos_as_xyz
  1  'x, y, z'
loop_
 _atom_site_type_symbol
 _atom_site_label
 _atom_site_symmetry_multiplicity
 _atom_site_fract_x
 _atom_site_fract_y
 _atom_site_fract_z
 _atom_site_occupancy
  K  K0  1  0.60527085  0.39472915  0.84975749  1
  K  K1  1  0.34723353  0.65276647  0.19095817  1
  Rb  Rb2  1  0.05957991  0.94042009  0.45319244  1
  Tb  Tb3  1  0.00355858  0.99644142  0.01060259  1
  Mg  Mg4  1  0.82923895  0.17076105  0.65765113  1
  V  V5  1  0.69076384  0.30923616  0.26382997  1
  V  V6  1  0.30578715  0.69421285  0.73692093  1
  O  O7  1  0.84121261  0.15878739  0.18407837  1
  O  O8  1  0.83586592  0.63426999  0.16627971  1
  O  O9  1  0.36573001  0.16413408  0.16627971  1
  O  O10  1  0.65412528  0.87254835  0.81215975  1
  O  O11  1  0.12745165  0.34587472  0.81215975  1
  O  O12  1  0.15724185  0.84275815  0.82374170  1
  O  O13  1  0.31408576  0.68591424  0.51899930  1
  O  O14  1  0.68577111  0.31422889  0.49505499  1
