# generated using pymatgen
data_Na4Ga2S5
_symmetry_space_group_name_H-M   'P 1'
_cell_length_a   6.10452459
_cell_length_b   7.94829892
_cell_length_c   19.80446385
_cell_angle_alpha   88.81123136
_cell_angle_beta   90.00000000
_cell_angle_gamma   90.00000000
_symmetry_Int_Tables_number   1
_chemical_formula_structural   Na4Ga2S5
_chemical_formula_sum   'Na16 Ga8 S20'
_cell_volume   960.71737570
_cell_formula_units_Z   4
loop_
 _symmetry_equiv_pos_site_id
 _symmetry_equiv_pos_as_xyz
  1  'x, y, z'
loop_
 _atom_site_type_symbol
 _atom_site_label
 _atom_site_symmetry_multiplicity
 _atom_site_fract_x
 _atom_site_fract_y
 _atom_site_fract_z
 _atom_site_occupancy
  Na  Na0  1  0.74455811  0.07774686  0.95657662  1
  Na  Na1  1  0.24455811  0.92225314  0.54342338  1
  Na  Na2  1  0.25544189  0.92225314  0.04342338  1
  Na  Na3  1  0.75544189  0.07774686  0.45657662  1
  Na  Na4  1  0.46050037  0.40269134  0.89788523  1
  Na  Na5  1  0.96050037  0.59730866  0.60211477  1
  Na  Na6  1  0.53949963  0.59730866  0.10211477  1
  Na  Na7  1  0.03949963  0.40269134  0.39788523  1
  Na  Na8  1  0.47588279  0.34632787  0.71698823  1
  Na  Na9  1  0.97588279  0.65367213  0.78301177  1
  Na  Na10  1  0.52411721  0.65367213  0.28301177  1
  Na  Na11  1  0.02411721  0.34632787  0.21698823  1
  Na  Na12  1  0.50041047  0.88887258  0.70072174  1
  Na  Na13  1  0.00041047  0.11112742  0.79927826  1
  Na  Na14  1  0.49958953  0.11112742  0.29927826  1
  Na  Na15  1  0.99958953  0.88887258  0.20072174  1
  Ga  Ga16  1  0.08692007  0.34530841  0.03631475  1
  Ga  Ga17  1  0.91307993  0.65469159  0.96368525  1
  Ga  Ga18  1  0.41307993  0.34530841  0.53631475  1
  Ga  Ga19  1  0.06791267  0.83437047  0.36570321  1
  Ga  Ga20  1  0.56791267  0.16562953  0.13429679  1
  Ga  Ga21  1  0.93208733  0.16562953  0.63429679  1
  Ga  Ga22  1  0.43208733  0.83437047  0.86570321  1
  Ga  Ga23  1  0.58692007  0.65469159  0.46368525  1
  S  S24  1  0.52432839  0.38905756  0.42522673  1
  S  S25  1  0.97567161  0.38905756  0.92522673  1
  S  S26  1  0.47567161  0.61094244  0.57477327  1
  S  S27  1  0.01441663  0.63106627  0.29268894  1
  S  S28  1  0.51441663  0.36893373  0.20731106  1
  S  S29  1  0.98558337  0.36893373  0.70731106  1
  S  S30  1  0.02432839  0.61094244  0.07477327  1
  S  S31  1  0.48558337  0.63106627  0.79268894  1
  S  S32  1  0.56926310  0.13344753  0.59760491  1
  S  S33  1  0.06926310  0.86655247  0.90239509  1
  S  S34  1  0.43073690  0.86655247  0.40239509  1
  S  S35  1  0.93073690  0.13344753  0.09760491  1
  S  S36  1  0.56242547  0.74247901  0.97064377  1
  S  S37  1  0.06242547  0.25752099  0.52935623  1
  S  S38  1  0.43757453  0.25752099  0.02935623  1
  S  S39  1  0.93757453  0.74247901  0.47064377  1
  S  S40  1  0.52259178  0.09240964  0.82708805  1
  S  S41  1  0.02259178  0.90759036  0.67291195  1
  S  S42  1  0.47740822  0.90759036  0.17291195  1
  S  S43  1  0.97740822  0.09240964  0.32708805  1
