# generated using pymatgen
data_Na14Ca6Ti2Si5S7O48
_symmetry_space_group_name_H-M   'P 1'
_cell_length_a   18.80823818
_cell_length_b   9.41463441
_cell_length_c   22.81075469
_cell_angle_alpha   89.85675550
_cell_angle_beta   90.38961622
_cell_angle_gamma   120.14258211
_symmetry_Int_Tables_number   1
_chemical_formula_structural   Na14Ca6Ti2Si5S7O48
_chemical_formula_sum   'Na42 Ca18 Ti6 Si15 S21 O144'
_cell_volume   3492.89724278
_cell_formula_units_Z   3
loop_
 _symmetry_equiv_pos_site_id
 _symmetry_equiv_pos_as_xyz
  1  'x, y, z'
loop_
 _atom_site_type_symbol
 _atom_site_label
 _atom_site_symmetry_multiplicity
 _atom_site_fract_x
 _atom_site_fract_y
 _atom_site_fract_z
 _atom_site_occupancy
  Na  Na0  1  0.81081783  0.00538284  0.24548267  1
  Na  Na1  1  0.68591893  0.34414724  0.23897525  1
  Na  Na2  1  0.49912709  0.65121350  0.24203493  1
  Na  Na3  1  0.30534072  0.61209244  0.74379630  1
  Na  Na4  1  0.00325492  0.36269929  0.73859951  1
  Na  Na5  1  0.17565565  0.00978231  0.73477463  1
  Na  Na6  1  0.14998761  0.31420706  0.57536940  1
  Na  Na7  1  0.67985483  0.37117841  0.59004679  1
  Na  Na8  1  0.01168306  0.69177240  0.57118751  1
  Na  Na9  1  0.51180466  0.66266108  0.60161184  1
  Na  Na10  1  0.32424828  0.99591273  0.59048265  1
  Na  Na11  1  0.83143477  0.97974327  0.60362096  1
  Na  Na12  1  0.17708410  0.98721149  0.08318480  1
  Na  Na13  1  0.65862032  0.99598199  0.06655218  1
  Na  Na14  1  0.32215933  0.67371046  0.09822157  1
  Na  Na15  1  0.82960637  0.65999282  0.08265451  1
  Na  Na16  1  0.01340961  0.36307497  0.09576994  1
  Na  Na17  1  0.50943734  0.32293090  0.06511893  1
  Na  Na18  1  0.49022091  0.67054781  0.91681981  1
  Na  Na19  1  0.97659131  0.66226155  0.91142280  1
  Na  Na20  1  0.35909965  0.05238048  0.92336471  1
  Na  Na21  1  0.84536953  0.04021335  0.90526176  1
  Na  Na22  1  0.16700061  0.29479884  0.91175416  1
  Na  Na23  1  0.65999873  0.28750726  0.92352462  1
  Na  Na24  1  0.47977771  0.29346363  0.42516848  1
  Na  Na25  1  0.99152527  0.31151907  0.42548220  1
  Na  Na26  1  0.15244363  0.02224908  0.43123152  1
  Na  Na27  1  0.66759071  0.04003444  0.42026492  1
  Na  Na28  1  0.34312700  0.65474989  0.41524942  1
  Na  Na29  1  0.86035100  0.67308020  0.42352888  1
  Na  Na30  1  0.00163423  0.97961173  0.50463717  1
  Na  Na31  1  0.51316548  0.02321199  0.50993039  1
  Na  Na32  1  0.01103129  0.99997742  0.00081512  1
  Na  Na33  1  0.50433663  0.02508624  0.99162259  1
  Na  Na34  1  0.33866023  0.33347081  0.82991533  1
  Na  Na35  1  0.82657540  0.33386699  0.82406300  1
  Na  Na36  1  0.30908939  0.31381776  0.33023967  1
  Na  Na37  1  0.84247361  0.34364654  0.33200601  1
  Na  Na38  1  0.17018273  0.67844294  0.15974284  1
  Na  Na39  1  0.66442030  0.65842952  0.16336989  1
  Na  Na40  1  0.15768589  0.66987163  0.66552350  1
  Na  Na41  1  0.67425541  0.66736891  0.66147935  1
  Ca  Ca42  1  0.00435717  0.00252744  0.34980396  1
  Ca  Ca43  1  0.50243629  0.00044719  0.34297511  1
  Ca  Ca44  1  0.00113049  0.99405860  0.83861489  1
  Ca  Ca45  1  0.50477798  0.00738466  0.84809694  1
  Ca  Ca46  1  0.33750357  0.33082229  0.68172932  1
  Ca  Ca47  1  0.82947175  0.33740988  0.68224991  1
  Ca  Ca48  1  0.32550494  0.32138935  0.18176993  1
  Ca  Ca49  1  0.83825032  0.34416086  0.18136004  1
  Ca  Ca50  1  0.33150310  0.31922204  0.99094287  1
  Ca  Ca51  1  0.83017729  0.34116655  0.98729230  1
  Ca  Ca52  1  0.32764037  0.31883353  0.49001902  1
  Ca  Ca53  1  0.83127138  0.34717583  0.49435154  1
  Ca  Ca54  1  0.16685141  0.66653019  0.01703195  1
  Ca  Ca55  1  0.66432542  0.66321860  0.01471730  1
  Ca  Ca56  1  0.16539214  0.66700023  0.51567589  1
  Ca  Ca57  1  0.66781788  0.67043095  0.51964217  1
  Ca  Ca58  1  0.66466332  0.67352603  0.31300967  1
  Ca  Ca59  1  0.16157083  0.65804289  0.81038814  1
  Ti  Ti60  1  0.00685305  0.97624611  0.65514087  1
  Ti  Ti61  1  0.51158599  0.02904628  0.64837554  1
  Ti  Ti62  1  0.01185200  0.99661532  0.14710574  1
  Ti  Ti63  1  0.50696981  0.01553745  0.14773534  1
  Ti  Ti64  1  0.15703220  0.64022257  0.32192569  1
  Ti  Ti65  1  0.65938392  0.67842102  0.82239229  1
  Si  Si66  1  0.64921833  0.99705367  0.25127942  1
  Si  Si67  1  0.14980662  0.29790432  0.75161088  1
  Si  Si68  1  0.99946275  0.68770534  0.75582256  1
  Si  Si69  1  0.48636153  0.32716892  0.57840698  1
  Si  Si70  1  0.17645848  0.01732080  0.58648450  1
  Si  Si71  1  0.67839208  0.02836923  0.57996320  1
  Si  Si72  1  0.84112292  0.65920209  0.58150439  1
  Si  Si73  1  0.98642947  0.64570278  0.07802874  1
  Si  Si74  1  0.33994497  0.02572258  0.08221915  1
  Si  Si75  1  0.17938817  0.33076964  0.07997563  1
  Si  Si76  1  0.67783816  0.33611586  0.08747342  1
  Si  Si77  1  0.51472941  0.37201581  0.91528944  1
  Si  Si78  1  0.66971803  0.97524540  0.92062438  1
  Si  Si79  1  0.16924111  0.36585924  0.42125565  1
  Si  Si80  1  0.01399757  0.65671688  0.41626918  1
  S  S81  1  0.14732860  0.98202041  0.25068541  1
  S  S82  1  0.34419194  0.69423385  0.25258722  1
  S  S83  1  0.85093999  0.71199330  0.24858122  1
  S  S84  1  0.00657785  0.30716247  0.25191207  1
  S  S85  1  0.50259841  0.30087297  0.24830350  1
  S  S86  1  0.64718640  0.31377998  0.75034154  1
  S  S87  1  0.50663035  0.70500971  0.75268796  1
  S  S88  1  0.35335608  0.99147024  0.74878283  1
  S  S89  1  0.83915361  0.98442895  0.75378846  1
  S  S90  1  0.98758775  0.32262683  0.58584684  1
  S  S91  1  0.34335475  0.65884217  0.58682724  1
  S  S92  1  0.48831525  0.65480192  0.08980113  1
  S  S93  1  0.84203020  0.02623939  0.08858499  1
  S  S94  1  0.31808398  0.66191568  0.91578096  1
  S  S95  1  0.81130243  0.66933413  0.91355569  1
  S  S96  1  0.01118376  0.35599274  0.91763878  1
  S  S97  1  0.16810373  0.97320811  0.91576260  1
  S  S98  1  0.31090650  0.95663236  0.41067356  1
  S  S99  1  0.81710618  0.97656579  0.41389451  1
  S  S100  1  0.66607274  0.36473344  0.41320015  1
  S  S101  1  0.51042496  0.66107298  0.41458344  1
  O  O102  1  0.10765173  0.98809223  0.30517908  1
  O  O103  1  0.61235764  0.00637387  0.31464786  1
  O  O104  1  0.38859988  0.77600859  0.30805423  1
  O  O105  1  0.88764425  0.79135906  0.30515296  1
  O  O106  1  0.49393187  0.21955427  0.30559363  1
  O  O107  1  0.99971369  0.21650781  0.30637075  1
  O  O108  1  0.11283095  0.21805163  0.81544038  1
  O  O109  1  0.60894144  0.22935916  0.80561397  1
  O  O110  1  0.49891903  0.77957404  0.80756142  1
  O  O111  1  0.99355685  0.76272620  0.81820330  1
  O  O112  1  0.39085683  -0.00713122  0.80596799  1
  O  O113  1  0.88530214  -0.00030831  0.80920019  1
  O  O114  1  0.40718262  0.99245519  0.69959537  1
  O  O115  1  0.88430908  0.97215340  0.70219331  1
  O  O116  1  0.08270256  0.16543086  0.70003296  1
  O  O117  1  0.59186779  0.20693756  0.69928378  1
  O  O118  1  -0.00213630  0.81674053  0.70239060  1
  O  O119  1  0.51458509  0.80932143  0.70051378  1
  O  O120  1  0.39108661  0.79451878  0.20066202  1
  O  O121  1  0.90314553  0.81652652  0.19865649  1
  O  O122  1  0.01386778  0.21997347  0.19931223  1
  O  O123  1  0.49851205  0.19040683  0.19949450  1
  O  O124  1  0.09464935  0.98142055  0.19859391  1
  O  O125  1  0.58125802  0.99692361  0.19968281  1
  O  O126  1  0.44076774  0.38515961  0.62408381  1
  O  O127  1  0.94540131  0.33711127  0.63796367  1
  O  O128  1  0.23885505  0.11318523  0.64033063  1
  O  O129  1  0.75280820  0.12197514  0.62574758  1
  O  O130  1  0.33070438  0.55576966  0.63918459  1
  O  O131  1  0.81810703  0.50647163  0.62564809  1
  O  O132  1  0.44893197  0.56008294  0.14341515  1
  O  O133  1  0.94079251  0.49907153  0.12503284  1
  O  O134  1  0.32104242  0.13267146  0.12826839  1
  O  O135  1  0.82993774  0.10109964  0.14188554  1
  O  O136  1  0.25183506  0.38585946  0.12803929  1
  O  O137  1  0.73586144  0.36207158  0.14352381  1
  O  O138  1  0.19983038  0.26426270  0.01973791  1
  O  O139  1  0.71022055  0.28956304  0.02787200  1
  O  O140  1  0.43956996  0.57077725  0.03658315  1
  O  O141  1  0.93211530  0.60492975  0.01736896  1
  O  O142  1  0.36940395  0.12950916  0.02012623  1
  O  O143  1  0.85129047  0.12640615  0.03579221  1
  O  O144  1  0.20866428  0.12309353  0.52519688  1
  O  O145  1  0.69604808  0.13085380  0.51818324  1
  O  O146  1  0.35342043  0.58121040  0.53303499  1
  O  O147  1  0.86745611  0.60985456  0.51878346  1
  O  O148  1  0.43208260  0.26218966  0.51758539  1
  O  O149  1  0.94151181  0.31475932  0.53097202  1
  O  O150  1  0.27667509  0.67565278  0.96852421  1
  O  O151  1  0.77561933  0.67232047  0.97094276  1
  O  O152  1  0.05925573  0.43896170  0.97098586  1
  O  O153  1  0.56179522  0.45092290  0.97634146  1
  O  O154  1  0.16974018  0.88886060  0.97020788  1
  O  O155  1  0.66750348  0.88379207  0.98105831  1
  O  O156  1  0.27701274  0.87567982  0.46741829  1
  O  O157  1  0.77269176  0.87239139  0.46441021  1
  O  O158  1  0.16795189  0.45230903  0.48173931  1
  O  O159  1  0.66661508  0.45872192  0.46487518  1
  O  O160  1  0.06394650  0.67800835  0.47625048  1
  O  O161  1  0.56298049  0.67611317  0.46512720  1
  O  O162  1  0.07936874  0.65396626  0.36094134  1
  O  O163  1  0.55001214  0.65522569  0.35873706  1
  O  O164  1  0.25767850  0.85048463  0.36084570  1
  O  O165  1  0.77277071  0.89589944  0.35788156  1
  O  O166  1  0.16910935  0.49606006  0.36494793  1
  O  O167  1  0.66559217  0.44985156  0.35801208  1
  O  O168  1  0.05480724  0.44836380  0.86429851  1
  O  O169  1  0.58106368  0.50587061  0.86151377  1
  O  O170  1  0.16861850  0.88087093  0.86350756  1
  O  O171  1  0.66904792  0.84415987  0.86560645  1
  O  O172  1  0.27152219  0.65394126  0.86160106  1
  O  O173  1  0.75721752  0.66874298  0.86434179  1
  O  O174  1  0.00420871  0.81827836  0.40918844  1
  O  O175  1  0.49660581  0.80595939  0.41547384  1
  O  O176  1  0.39595934  0.98129918  0.40618067  1
  O  O177  1  0.90211252  0.00013571  0.41351241  1
  O  O178  1  0.08593919  0.18799895  0.41565418  1
  O  O179  1  0.58847739  0.19731320  0.41616030  1
  O  O180  1  -0.00306235  0.18348056  0.91701498  1
  O  O181  1  0.50539972  0.19051325  0.90967325  1
  O  O182  1  0.09235471  0.98959199  0.91761863  1
  O  O183  1  0.58602023  0.98583586  0.91576732  1
  O  O184  1  0.40339743  0.80947792  0.91454210  1
  O  O185  1  0.89455898  0.81870960  0.91043979  1
  O  O186  1  0.48641626  0.14962554  0.60076345  1
  O  O187  1  0.99249618  0.16822913  0.58848647  1
  O  O188  1  0.08349804  0.00007022  0.59674801  1
  O  O189  1  0.58817996  0.02492065  0.60355540  1
  O  O190  1  0.42288197  0.82247759  0.59389037  1
  O  O191  1  0.92186832  0.84190024  0.60044396  1
  O  O192  1  0.49260387  0.82107618  0.09214607  1
  O  O193  1  0.98860322  0.82553429  0.10090038  1
  O  O194  1  0.42056609  0.00264608  0.10346923  1
  O  O195  1  0.92110779  0.01964099  0.09456143  1
  O  O196  1  0.08817131  0.15510761  0.10276464  1
  O  O197  1  0.58255766  0.16350391  0.09679709  1
  O  O198  1  0.34059125  0.13418337  0.74546986  1
  O  O199  1  0.83134617  0.13315480  0.74917942  1
  O  O200  1  0.24252400  0.32099264  0.74661757  1
  O  O201  1  0.72816794  0.32709100  0.74494886  1
  O  O202  1  0.43192181  0.54068981  0.74669866  1
  O  O203  1  0.92671716  0.49757991  0.74875684  1
  O  O204  1  0.34186387  0.53224322  0.25097789  1
  O  O205  1  0.83949311  0.54423573  0.24745178  1
  O  O206  1  0.43818344  0.34686427  0.24250669  1
  O  O207  1  0.93128830  0.32081019  0.24684249  1
  O  O208  1  0.22953539  0.13193257  0.24727349  1
  O  O209  1  0.74186713  0.15704802  0.24564591  1
  O  O210  1  0.32449527  0.50967828  0.91862130  1
  O  O211  1  0.81654861  0.51618727  0.90829928  1
  O  O212  1  0.42804909  0.37152588  0.90852408  1
  O  O213  1  0.92901238  0.34695287  0.91897688  1
  O  O214  1  0.24376402  0.14155112  0.91311076  1
  O  O215  1  0.75426135  0.15061286  0.91085323  1
  O  O216  1  0.31527479  0.11955959  0.40717528  1
  O  O217  1  0.82208349  0.13967678  0.41781276  1
  O  O218  1  0.25462504  0.36337058  0.41158057  1
  O  O219  1  0.74048544  0.34581201  0.41260641  1
  O  O220  1  0.42867318  0.50637982  0.41809008  1
  O  O221  1  0.92791181  0.48289633  0.41008480  1
  O  O222  1  0.15269872  0.46973958  0.07839331  1
  O  O223  1  0.66089630  0.48948240  0.08526705  1
  O  O224  1  0.08271412  0.70124528  0.07653944  1
  O  O225  1  0.57393603  0.68571310  0.08673174  1
  O  O226  1  0.26173308  0.83964421  0.08021637  1
  O  O227  1  0.77208049  0.85454434  0.08330990  1
  O  O228  1  0.16309256  0.83208542  0.58548816  1
  O  O229  1  0.64814399  0.83370736  0.57861521  1
  O  O230  1  0.27406002  0.69143187  0.58169314  1
  O  O231  1  0.76324951  0.69083781  0.58068170  1
  O  O232  1  0.07294687  0.46736840  0.58482707  1
  O  O233  1  0.58351666  0.46031000  0.57664723  1
  O  O234  1  0.15326722  0.83032553  0.24709985  1
  O  O235  1  0.64929767  0.82306932  0.24135757  1
  O  O236  1  0.25972716  0.67261265  0.25271518  1
  O  O237  1  0.76781673  0.69972164  0.24176609  1
  O  O238  1  0.08268160  0.47729594  0.25503985  1
  O  O239  1  0.58571896  0.45484864  0.24437506  1
  O  O240  1  0.15385486  0.47538137  0.74130538  1
  O  O241  1  0.65211730  0.47621510  0.74652008  1
  O  O242  1  0.09059403  0.70920429  0.74425467  1
  O  O243  1  0.58296164  0.68881848  0.75622906  1
  O  O244  1  0.27263808  0.83496379  0.74218136  1
  O  O245  1  0.75513880  0.83044323  0.75673836  1
