# generated using pymatgen
data_Ba2Mg(WO4)2
_symmetry_space_group_name_H-M   'P 1'
_cell_length_a   4.05563108
_cell_length_b   5.76790500
_cell_length_c   9.20960821
_cell_angle_alpha   90.68139035
_cell_angle_beta   101.04660606
_cell_angle_gamma   91.44203229
_symmetry_Int_Tables_number   1
_chemical_formula_structural   Ba2Mg(WO4)2
_chemical_formula_sum   'Ba2 Mg1 W2 O8'
_cell_volume   211.34640637
_cell_formula_units_Z   1
loop_
 _symmetry_equiv_pos_site_id
 _symmetry_equiv_pos_as_xyz
  1  'x, y, z'
loop_
 _atom_site_type_symbol
 _atom_site_label
 _atom_site_symmetry_multiplicity
 _atom_site_fract_x
 _atom_site_fract_y
 _atom_site_fract_z
 _atom_site_occupancy
  Ba  Ba0  1  0.12710880  0.49249175  0.22272152  1
  Ba  Ba1  1  0.76519330  -0.00445224  0.58529544  1
  Mg  Mg2  1  0.14143925  0.90516002  0.92755611  1
  W  W3  1  0.43447766  0.48523150  0.84811819  1
  W  W4  1  0.62250729  0.98187569  0.18466960  1
  O  O5  1  0.51679757  0.70249264  0.04396656  1
  O  O6  1  0.65483065  0.22736860  0.32079436  1
  O  O7  1  0.09313253  0.97090651  0.14953336  1
  O  O8  1  0.94307808  0.53780768  0.88172982  1
  O  O9  1  0.70098304  0.75716581  0.34603059  1
  O  O10  1  0.32960277  0.30470252  0.67948068  1
  O  O11  1  0.35197622  0.80103186  0.75227177  1
  O  O12  1  0.48553985  0.19278466  0.99116499  1
