# generated using pymatgen
data_Sc2PbS4
_symmetry_space_group_name_H-M   'P 1'
_cell_length_a   3.77411907
_cell_length_b   11.73800347
_cell_length_c   13.74193391
_cell_angle_alpha   90.00000000
_cell_angle_beta   90.00000000
_cell_angle_gamma   90.00000000
_symmetry_Int_Tables_number   1
_chemical_formula_structural   Sc2PbS4
_chemical_formula_sum   'Sc8 Pb4 S16'
_cell_volume   608.77622986
_cell_formula_units_Z   4
loop_
 _symmetry_equiv_pos_site_id
 _symmetry_equiv_pos_as_xyz
  1  'x, y, z'
loop_
 _atom_site_type_symbol
 _atom_site_label
 _atom_site_symmetry_multiplicity
 _atom_site_fract_x
 _atom_site_fract_y
 _atom_site_fract_z
 _atom_site_occupancy
  Sc  Sc0  1  0.75000000  0.05733369  0.11086015  1
  Sc  Sc1  1  0.25000000  0.94266631  0.88913985  1
  Sc  Sc2  1  0.75000000  0.55733369  0.38913985  1
  Sc  Sc3  1  0.25000000  0.44266631  0.61086015  1
  Sc  Sc4  1  0.25000000  0.41767078  0.09679500  1
  Sc  Sc5  1  0.75000000  0.58232922  0.90320500  1
  Sc  Sc6  1  0.25000000  0.91767078  0.40320500  1
  Sc  Sc7  1  0.75000000  0.08232922  0.59679500  1
  Pb  Pb8  1  0.75000000  0.74032243  0.17036270  1
  Pb  Pb9  1  0.25000000  0.25967757  0.82963730  1
  Pb  Pb10  1  0.75000000  0.24032243  0.32963730  1
  Pb  Pb11  1  0.25000000  0.75967757  0.67036270  1
  S  S12  1  0.25000000  0.41244733  0.42702338  1
  S  S13  1  0.75000000  0.58755267  0.57297662  1
  S  S14  1  0.25000000  0.91244733  0.07297662  1
  S  S15  1  0.75000000  0.08755267  0.92702338  1
  S  S16  1  0.25000000  0.53113077  0.78433019  1
  S  S17  1  0.75000000  0.46886923  0.21566981  1
  S  S18  1  0.25000000  0.03113077  0.71566981  1
  S  S19  1  0.75000000  0.96886923  0.28433019  1
  S  S20  1  0.25000000  0.12160463  0.47132477  1
  S  S21  1  0.75000000  0.87839537  0.52867523  1
  S  S22  1  0.25000000  0.62160463  0.02867523  1
  S  S23  1  0.75000000  0.37839537  0.97132477  1
  S  S24  1  0.75000000  0.29695653  0.65815305  1
  S  S25  1  0.25000000  0.70304347  0.34184695  1
  S  S26  1  0.75000000  0.79695653  0.84184695  1
  S  S27  1  0.25000000  0.20304347  0.15815305  1
