# generated using pymatgen
data_H5PbCN2Cl3
_symmetry_space_group_name_H-M   'P 1'
_cell_length_a   5.69551700
_cell_length_b   5.98127900
_cell_length_c   5.93554100
_cell_angle_alpha   90.00000000
_cell_angle_beta   90.00000000
_cell_angle_gamma   89.99998994
_symmetry_Int_Tables_number   1
_chemical_formula_structural   H5PbCN2Cl3
_chemical_formula_sum   'H5 Pb1 C1 N2 Cl3'
_cell_volume   202.20296637
_cell_formula_units_Z   1
loop_
 _symmetry_equiv_pos_site_id
 _symmetry_equiv_pos_as_xyz
  1  'x, y, z'
loop_
 _atom_site_type_symbol
 _atom_site_label
 _atom_site_symmetry_multiplicity
 _atom_site_fract_x
 _atom_site_fract_y
 _atom_site_fract_z
 _atom_site_occupancy
  H  H0  1  0.75175600  0.28085700  0.50000000  1
  H  H1  1  0.75175600  0.71914300  0.50000000  1
  H  H2  1  0.27960300  0.50000000  0.50000000  1
  H  H3  1  0.46743900  0.83079700  0.50000000  1
  H  H4  1  0.46743900  0.16920300  0.50000000  1
  Pb  Pb5  1  0.04494500  0.00000000  0.00000000  1
  C  C6  1  0.47100000  0.49999900  0.50000000  1
  N  N7  1  0.57462700  0.69508200  0.50000000  1
  N  N8  1  0.57462700  0.30492000  0.50000000  1
  Cl  Cl9  1  0.03047800  0.50000000  0.00000000  1
  Cl  Cl10  1  0.53965300  0.00000000  0.00000000  1
  Cl  Cl11  1  0.07816600  0.00000000  0.50000000  1
