# generated using pymatgen
data_Na4Mg(FeO3)2
_symmetry_space_group_name_H-M   'P 1'
_cell_length_a   6.14555705
_cell_length_b   5.93317002
_cell_length_c   6.12637156
_cell_angle_alpha   90.42371795
_cell_angle_beta   88.47784587
_cell_angle_gamma   58.57221846
_symmetry_Int_Tables_number   1
_chemical_formula_structural   Na4Mg(FeO3)2
_chemical_formula_sum   'Na4 Mg1 Fe2 O6'
_cell_volume   190.48645994
_cell_formula_units_Z   1
loop_
 _symmetry_equiv_pos_site_id
 _symmetry_equiv_pos_as_xyz
  1  'x, y, z'
loop_
 _atom_site_type_symbol
 _atom_site_label
 _atom_site_symmetry_multiplicity
 _atom_site_fract_x
 _atom_site_fract_y
 _atom_site_fract_z
 _atom_site_occupancy
  Na  Na0  1  0.86649083  0.69493705  0.64118792  1
  Na  Na1  1  0.49820455  0.63729294  0.86260527  1
  Na  Na2  1  0.45496790  0.31570138  0.44673874  1
  Na  Na3  1  0.23576963  0.26893321  0.04166547  1
  Mg  Mg4  1  0.74235515  0.52220819  0.26057607  1
  Fe  Fe5  1  0.86884221  0.97725870  0.08242106  1
  Fe  Fe6  1  0.14700694  0.00257722  0.54292564  1
  O  O7  1  0.80664237  0.70280762  0.01331236  1
  O  O8  1  0.48886722  0.71237404  0.50028976  1
  O  O9  1  0.58547202  0.32889873  0.09854720  1
  O  O10  1  0.08156908  0.32059685  0.41468371  1
  O  O11  1  0.90857548  0.94825196  0.39767491  1
  O  O12  1  0.09648663  0.99524512  0.86337489  1
