# generated using pymatgen
data_V2Co2O7
_symmetry_space_group_name_H-M   'P 1'
_cell_length_a   8.29909359
_cell_length_b   6.57097904
_cell_length_c   9.40556026
_cell_angle_alpha   79.91085297
_cell_angle_beta   90.00000000
_cell_angle_gamma   90.00000000
_symmetry_Int_Tables_number   1
_chemical_formula_structural   V2Co2O7
_chemical_formula_sum   'V8 Co8 O28'
_cell_volume   504.98349384
_cell_formula_units_Z   4
loop_
 _symmetry_equiv_pos_site_id
 _symmetry_equiv_pos_as_xyz
  1  'x, y, z'
loop_
 _atom_site_type_symbol
 _atom_site_label
 _atom_site_symmetry_multiplicity
 _atom_site_fract_x
 _atom_site_fract_y
 _atom_site_fract_z
 _atom_site_occupancy
  V  V0  1  0.25942954  0.63615854  0.03104737  1
  V  V1  1  0.75942954  0.36384146  0.46895263  1
  V  V2  1  0.74057046  0.36384146  0.96895263  1
  V  V3  1  0.24057046  0.63615854  0.53104737  1
  V  V4  1  0.51885654  0.80413155  0.31243419  1
  V  V5  1  0.01885654  0.19586845  0.18756581  1
  V  V6  1  0.48114346  0.19586845  0.68756581  1
  V  V7  1  0.98114346  0.80413155  0.81243419  1
  Co  Co8  1  0.62198948  0.85597567  0.96312526  1
  Co  Co9  1  0.12198948  0.14402433  0.53687474  1
  Co  Co10  1  0.37801052  0.14402433  0.03687474  1
  Co  Co11  1  0.87801052  0.85597567  0.46312526  1
  Co  Co12  1  0.88844841  0.69782536  0.17852183  1
  Co  Co13  1  0.38844841  0.30217464  0.32147817  1
  Co  Co14  1  0.11155159  0.30217464  0.82147817  1
  Co  Co15  1  0.61155159  0.69782536  0.67852183  1
  O  O16  1  0.63184476  0.39648613  0.62456332  1
  O  O17  1  0.13184476  0.60351387  0.87543668  1
  O  O18  1  0.36815524  0.60351387  0.37543668  1
  O  O19  1  0.86815524  0.39648613  0.12456332  1
  O  O20  1  0.62657399  0.57543342  0.89401637  1
  O  O21  1  0.12657399  0.42456658  0.60598363  1
  O  O22  1  0.37342601  0.42456658  0.10598363  1
  O  O23  1  0.87342601  0.57543342  0.39401637  1
  O  O24  1  0.86839703  0.82822297  0.96072996  1
  O  O25  1  0.36839703  0.17177703  0.53927004  1
  O  O26  1  0.13160297  0.17177703  0.03927004  1
  O  O27  1  0.63160297  0.82822297  0.46072996  1
  O  O28  1  0.85576223  0.74691109  0.67967927  1
  O  O29  1  0.35576223  0.25308891  0.82032073  1
  O  O30  1  0.14423777  0.25308891  0.32032073  1
  O  O31  1  0.64423777  0.74691109  0.17967927  1
  O  O32  1  0.87765538  0.32275161  0.84832089  1
  O  O33  1  0.37765538  0.67724839  0.65167911  1
  O  O34  1  0.12234462  0.67724839  0.15167911  1
  O  O35  1  0.62234462  0.32275161  0.34832089  1
  O  O36  1  0.58291290  0.97183205  0.74844788  1
  O  O37  1  0.08291290  0.02816795  0.75155212  1
  O  O38  1  0.41708710  0.02816795  0.25155212  1
  O  O39  1  0.91708710  0.97183205  0.24844788  1
  O  O40  1  0.87983079  0.14767016  0.50585396  1
  O  O41  1  0.37983079  0.85232984  0.99414604  1
  O  O42  1  0.12016921  0.85232984  0.49414604  1
  O  O43  1  0.62016921  0.14767016  0.00585396  1
