# generated using pymatgen
data_RbBr
_symmetry_space_group_name_H-M   'P 1'
_cell_length_a   4.88745176
_cell_length_b   4.88745152
_cell_length_c   4.88745206
_cell_angle_alpha   59.99999632
_cell_angle_beta   59.99999799
_cell_angle_gamma   60.00001300
_symmetry_Int_Tables_number   1
_chemical_formula_structural   RbBr
_chemical_formula_sum   'Rb1 Br1'
_cell_volume   82.55292826
_cell_formula_units_Z   1
loop_
 _symmetry_equiv_pos_site_id
 _symmetry_equiv_pos_as_xyz
  1  'x, y, z'
loop_
 _atom_site_type_symbol
 _atom_site_label
 _atom_site_symmetry_multiplicity
 _atom_site_fract_x
 _atom_site_fract_y
 _atom_site_fract_z
 _atom_site_occupancy
  Rb  Rb0  1  0.00000000  -0.00000000  -0.00000000  1
  Br  Br1  1  0.50000000  0.50000000  0.50000000  1
