# generated using pymatgen
data_NaTaZn3(SO4)6
_symmetry_space_group_name_H-M   'P 1'
_cell_length_a   8.73314696
_cell_length_b   8.73314668
_cell_length_c   22.67309635
_cell_angle_alpha   90.00000000
_cell_angle_beta   90.00000000
_cell_angle_gamma   120.00000106
_symmetry_Int_Tables_number   1
_chemical_formula_structural   NaTaZn3(SO4)6
_chemical_formula_sum   'Na3 Ta3 Zn9 S18 O72'
_cell_volume   1497.55569721
_cell_formula_units_Z   3
loop_
 _symmetry_equiv_pos_site_id
 _symmetry_equiv_pos_as_xyz
  1  'x, y, z'
loop_
 _atom_site_type_symbol
 _atom_site_label
 _atom_site_symmetry_multiplicity
 _atom_site_fract_x
 _atom_site_fract_y
 _atom_site_fract_z
 _atom_site_occupancy
  Na  Na0  1  0.00000000  -0.00000000  0.00326154  1
  Na  Na1  1  0.66666700  0.33333300  0.83616659  1
  Na  Na2  1  0.66666700  0.33333300  0.32600894  1
  Ta  Ta3  1  0.00000000  -0.00000000  0.64788490  1
  Ta  Ta4  1  0.33333300  0.66666700  0.02381455  1
  Ta  Ta5  1  0.33333300  0.66666700  0.51480780  1
  Zn  Zn6  1  0.00000000  -0.00000000  0.34389274  1
  Zn  Zn7  1  0.00000000  -0.00000000  0.85540028  1
  Zn  Zn8  1  0.00000000  -0.00000000  0.15949814  1
  Zn  Zn9  1  0.66666700  0.33333300  0.68372702  1
  Zn  Zn10  1  0.66666700  0.33333300  0.18934586  1
  Zn  Zn11  1  0.66666700  0.33333300  0.98555382  1
  Zn  Zn12  1  0.66666700  0.33333300  0.47995091  1
  Zn  Zn13  1  0.33333300  0.66666700  0.30357226  1
  Zn  Zn14  1  0.33333300  0.66666700  0.81386659  1
  S  S15  1  0.29517024  0.00242108  0.25076943  1
  S  S16  1  0.70725085  0.70482976  0.25076943  1
  S  S17  1  0.99757892  0.29274915  0.25076943  1
  S  S18  1  0.29357461  0.29171627  0.75191632  1
  S  S19  1  0.99814166  0.70642539  0.75191632  1
  S  S20  1  0.70828373  0.00185834  0.75191632  1
  S  S21  1  0.95826063  0.33518554  0.58354690  1
  S  S22  1  0.37692590  0.04173937  0.58354690  1
  S  S23  1  0.66481446  0.62307410  0.58354690  1
  S  S24  1  0.95317889  0.62767938  0.08255276  1
  S  S25  1  0.67450149  0.04682111  0.08255276  1
  S  S26  1  0.37232062  0.32549851  0.08255276  1
  S  S27  1  0.62348378  0.66490413  0.91580933  1
  S  S28  1  0.04141934  0.37651622  0.91580933  1
  S  S29  1  0.33509587  0.95858066  0.91580933  1
  S  S30  1  0.62870921  0.96263258  0.41356076  1
  S  S31  1  0.33392236  0.37129079  0.41356076  1
  S  S32  1  0.03736743  0.66607764  0.41356076  1
  O  O33  1  0.21804981  0.03499845  0.30465193  1
  O  O34  1  0.81694864  0.78195019  0.30465193  1
  O  O35  1  0.96500155  0.18305136  0.30465193  1
  O  O36  1  0.21074202  0.17875531  0.80320802  1
  O  O37  1  0.96801328  0.78925798  0.80320802  1
  O  O38  1  0.82124469  0.03198671  0.80320802  1
  O  O39  1  0.80657664  0.98280467  0.69661702  1
  O  O40  1  0.17622803  0.19342336  0.69661702  1
  O  O41  1  0.01719533  0.82377197  0.69661702  1
  O  O42  1  0.78493979  0.80961022  0.19652244  1
  O  O43  1  0.02467043  0.21506021  0.19652244  1
  O  O44  1  0.19038978  0.97532957  0.19652244  1
  O  O45  1  0.88623745  0.36897301  0.63695284  1
  O  O46  1  0.48273655  0.11376255  0.63695284  1
  O  O47  1  0.63102699  0.51726345  0.63695284  1
  O  O48  1  0.88568450  0.51727978  0.13428464  1
  O  O49  1  0.63159628  0.11431550  0.13428464  1
  O  O50  1  0.48272022  0.36840372  0.13428464  1
  O  O51  1  0.44987928  0.30246924  0.02780403  1
  O  O52  1  0.85259096  0.55012072  0.02780403  1
  O  O53  1  0.69753076  0.14740904  0.02780403  1
  O  O54  1  0.44584773  0.15047485  0.53123727  1
  O  O55  1  0.70462812  0.55415227  0.53123727  1
  O  O56  1  0.84952515  0.29537188  0.53123727  1
  O  O57  1  0.52967443  0.68594752  0.96943959  1
  O  O58  1  0.15627209  0.47032557  0.96943959  1
  O  O59  1  0.31405248  0.84372791  0.96943959  1
  O  O60  1  0.52749416  0.84322426  0.47129053  1
  O  O61  1  0.31572910  0.47250584  0.47129053  1
  O  O62  1  0.15677574  0.68427090  0.47129053  1
  O  O63  1  0.12459631  0.63576013  0.36466335  1
  O  O64  1  0.51116283  0.87540369  0.36466335  1
  O  O65  1  0.36423987  0.48883717  0.36466335  1
  O  O66  1  0.12210498  0.48178024  0.86232729  1
  O  O67  1  0.35967427  0.87789502  0.86232729  1
  O  O68  1  0.51821976  0.64032573  0.86232729  1
  O  O69  1  0.03096933  0.82843129  0.41387514  1
  O  O70  1  0.79746196  0.96903067  0.41387514  1
  O  O71  1  0.17156871  0.20253804  0.41387514  1
  O  O72  1  0.03204530  0.20238062  0.91444256  1
  O  O73  1  0.17033533  0.96795470  0.91444256  1
  O  O74  1  0.79761938  0.82966467  0.91444256  1
  O  O75  1  0.98365754  0.17616714  0.59497701  1
  O  O76  1  0.19250960  0.01634246  0.59497701  1
  O  O77  1  0.82383286  0.80749040  0.59497701  1
  O  O78  1  0.98725119  0.80900682  0.08817747  1
  O  O79  1  0.82175564  0.01274881  0.08817747  1
  O  O80  1  0.19099318  0.17824436  0.08817747  1
  O  O81  1  0.69342021  0.16073994  0.74189991  1
  O  O82  1  0.46732072  0.30657979  0.74189991  1
  O  O83  1  0.83926006  0.53267928  0.74189991  1
  O  O84  1  0.68960497  0.52631053  0.24522493  1
  O  O85  1  0.83670656  0.31039503  0.24522493  1
  O  O86  1  0.47368947  0.16329344  0.24522493  1
  O  O87  1  0.64149372  0.50699816  0.92336955  1
  O  O88  1  0.86550543  0.35850628  0.92336955  1
  O  O89  1  0.49300184  0.13449457  0.92336955  1
  O  O90  1  0.64015682  0.13414848  0.42555099  1
  O  O91  1  0.49399266  0.35984318  0.42555099  1
  O  O92  1  0.86585152  0.50600734  0.42555099  1
  O  O93  1  0.35476148  0.49440231  0.07065164  1
  O  O94  1  0.13963983  0.64523852  0.07065164  1
  O  O95  1  0.50559769  0.86036017  0.07065164  1
  O  O96  1  0.34798083  0.85908435  0.57396100  1
  O  O97  1  0.51110252  0.65201917  0.57396100  1
  O  O98  1  0.14091565  0.48889748  0.57396100  1
  O  O99  1  0.31077290  0.84395099  0.25739033  1
  O  O100  1  0.53317710  0.68922710  0.25739033  1
  O  O101  1  0.15604901  0.46682290  0.25739033  1
  O  O102  1  0.30047679  0.46164525  0.75329638  1
  O  O103  1  0.16116745  0.69952321  0.75329638  1
  O  O104  1  0.53835475  0.83883255  0.75329638  1
