# generated using pymatgen
data_Rb4Au6S5
_symmetry_space_group_name_H-M   'P 1'
_cell_length_a   10.03528706
_cell_length_b   10.03502342
_cell_length_c   10.03860252
_cell_angle_alpha   89.99952519
_cell_angle_beta   90.00140404
_cell_angle_gamma   119.99918945
_symmetry_Int_Tables_number   1
_chemical_formula_structural   Rb4Au6S5
_chemical_formula_sum   'Rb8 Au12 S10'
_cell_volume   875.49894702
_cell_formula_units_Z   2
loop_
 _symmetry_equiv_pos_site_id
 _symmetry_equiv_pos_as_xyz
  1  'x, y, z'
loop_
 _atom_site_type_symbol
 _atom_site_label
 _atom_site_symmetry_multiplicity
 _atom_site_fract_x
 _atom_site_fract_y
 _atom_site_fract_z
 _atom_site_occupancy
  Rb  Rb0  1  0.42107403  0.07197700  0.24999779  1
  Rb  Rb1  1  0.92801101  0.34909641  0.25000497  1
  Rb  Rb2  1  0.65089694  0.57891583  0.24999946  1
  Rb  Rb3  1  0.57891411  0.65090199  0.75000069  1
  Rb  Rb4  1  0.34908583  0.92800431  0.75000096  1
  Rb  Rb5  1  -0.00000312  -0.00000321  0.00000068  1
  Rb  Rb6  1  -0.00000304  -0.00000336  0.50000071  1
  Rb  Rb7  1  0.07199632  0.42109098  0.75000005  1
  Au  Au8  1  0.82997268  0.54662126  0.59126795  1
  Au  Au9  1  0.71662799  0.17000485  0.59127160  1
  Au  Au10  1  0.45332642  0.28333195  0.59127481  1
  Au  Au11  1  0.28335236  0.45335833  0.40874350  1
  Au  Au12  1  0.71663954  0.17001118  0.90873058  1
  Au  Au13  1  0.82998743  0.54663142  0.90873102  1
  Au  Au14  1  0.17001053  0.71666381  0.09124742  1
  Au  Au15  1  0.54668304  0.83000739  0.09125896  1
  Au  Au16  1  0.54668549  0.83000695  0.40874180  1
  Au  Au17  1  0.17001750  0.71664328  0.40872417  1
  Au  Au18  1  0.28335085  0.45336059  0.09125720  1
  Au  Au19  1  0.45336446  0.28335567  0.90873401  1
  S  S20  1  0.73425679  0.96368427  0.25000221  1
  S  S21  1  0.33335934  0.66668471  0.53780100  1
  S  S22  1  0.33335211  0.66668703  0.96219649  1
  S  S23  1  0.66666246  0.33333330  0.03781435  1
  S  S24  1  0.66663156  0.33332024  0.46219666  1
  S  S25  1  0.96364761  0.73421778  0.74999279  1
  S  S26  1  0.77057616  0.03635180  0.74999842  1
  S  S27  1  0.26575236  0.22940899  0.75002066  1
  S  S28  1  0.03633244  0.77053989  0.24999032  1
  S  S29  1  0.22943682  0.26579536  0.24999977  1
