# generated using pymatgen
data_Na14La4Y4Si7S5O48
_symmetry_space_group_name_H-M   'P 1'
_cell_length_a   19.27064056
_cell_length_b   9.64799517
_cell_length_c   23.74749400
_cell_angle_alpha   90.02534179
_cell_angle_beta   89.76323844
_cell_angle_gamma   120.12147078
_symmetry_Int_Tables_number   1
_chemical_formula_structural   Na14La4Y4Si7S5O48
_chemical_formula_sum   'Na42 La12 Y12 Si21 S15 O144'
_cell_volume   3818.95269163
_cell_formula_units_Z   3
loop_
 _symmetry_equiv_pos_site_id
 _symmetry_equiv_pos_as_xyz
  1  'x, y, z'
loop_
 _atom_site_type_symbol
 _atom_site_label
 _atom_site_symmetry_multiplicity
 _atom_site_fract_x
 _atom_site_fract_y
 _atom_site_fract_z
 _atom_site_occupancy
  Na  Na0  1  0.80796423  0.98508692  0.24013085  1
  Na  Na1  1  0.18917487  0.36353224  0.26139504  1
  Na  Na2  1  0.69249396  0.36883488  0.25837357  1
  Na  Na3  1  0.99928153  0.65686449  0.23945919  1
  Na  Na4  1  0.50254084  0.65801599  0.24294829  1
  Na  Na5  1  0.30770164  0.63207417  0.75514249  1
  Na  Na6  1  -0.00000136  0.34392789  0.74751548  1
  Na  Na7  1  0.50303136  0.34728905  0.74774880  1
  Na  Na8  1  0.18842264  0.01111151  0.76485082  1
  Na  Na9  1  0.69183698  0.01718644  0.76640093  1
  Na  Na10  1  0.14033568  0.33049466  0.58379992  1
  Na  Na11  1  0.64044840  0.33202506  0.58438159  1
  Na  Na12  1  0.34041062  0.98185442  0.57687062  1
  Na  Na13  1  0.84065019  0.98192281  0.57983813  1
  Na  Na14  1  0.13677744  0.94793308  0.08714212  1
  Na  Na15  1  0.65283218  0.95571618  0.08605564  1
  Na  Na16  1  0.34032001  0.69788774  0.07983667  1
  Na  Na17  1  0.83818695  0.71596026  0.07637980  1
  Na  Na18  1  0.48880655  0.69236170  0.92749588  1
  Na  Na19  1  0.98221741  0.68450238  0.92892291  1
  Na  Na20  1  0.33853665  0.00835939  0.91070443  1
  Na  Na21  1  0.83919716  0.01316553  0.92202164  1
  Na  Na22  1  0.17189275  0.29458470  0.90580314  1
  Na  Na23  1  0.67849667  0.30720625  0.90747740  1
  Na  Na24  1  0.48566898  0.28255318  0.42206909  1
  Na  Na25  1  0.98450468  0.27933003  0.42262120  1
  Na  Na26  1  0.17345571  0.04672264  0.40135895  1
  Na  Na27  1  0.67424628  0.05100839  0.40155899  1
  Na  Na28  1  0.33856691  0.66686528  0.40383337  1
  Na  Na29  1  0.83855784  0.66761576  0.40518498  1
  Na  Na30  1  0.99717394  0.02033302  0.49378352  1
  Na  Na31  1  0.49898390  0.02415818  0.49347812  1
  Na  Na32  1  0.98617867  0.97553663  0.00297766  1
  Na  Na33  1  0.50096400  0.97661977  0.99622137  1
  Na  Na34  1  0.31986703  0.31896935  0.83524674  1
  Na  Na35  1  0.81972159  0.32982083  0.83637774  1
  Na  Na36  1  0.31983795  0.31296902  0.32938967  1
  Na  Na37  1  0.82070360  0.32465149  0.32728968  1
  Na  Na38  1  0.16335651  0.68265057  0.17174820  1
  Na  Na39  1  0.66765920  0.68880538  0.16302059  1
  Na  Na40  1  0.15696720  0.64293882  0.67261941  1
  Na  Na41  1  0.66740852  0.64924436  0.67450422  1
  La  La42  1  0.99720753  0.00784256  0.65424648  1
  La  La43  1  0.49705263  0.00758206  0.65251807  1
  La  La44  1  0.99210524  0.98980624  0.14957482  1
  La  La45  1  0.49874977  0.98812623  0.15314330  1
  La  La46  1  0.83720493  0.33873695  0.68629021  1
  La  La47  1  0.33704389  0.33442762  0.18563641  1
  La  La48  1  0.15985670  0.66692493  0.01297357  1
  La  La49  1  0.66880533  0.68025130  0.01534613  1
  La  La50  1  0.16379201  0.65845970  0.51235806  1
  La  La51  1  0.66136693  0.65457764  0.51234486  1
  La  La52  1  0.18081630  0.68915992  0.31655494  1
  La  La53  1  0.68146743  0.67478108  0.81868282  1
  Y  Y54  1  0.99787667  0.99660009  0.34672305  1
  Y  Y55  1  0.49899233  0.99859755  0.34658280  1
  Y  Y56  1  0.99873440  0.99858519  0.84733299  1
  Y  Y57  1  0.49888594  0.00125085  0.84790855  1
  Y  Y58  1  0.33695390  0.32964113  0.68561206  1
  Y  Y59  1  0.83665110  0.33301414  0.18128171  1
  Y  Y60  1  0.33565894  0.34286781  0.98186299  1
  Y  Y61  1  0.83771258  0.33255595  0.98628564  1
  Y  Y62  1  0.33753494  0.33236689  0.48264154  1
  Y  Y63  1  0.83562910  0.32827329  0.48155920  1
  Y  Y64  1  0.67545879  0.67522590  0.31911997  1
  Y  Y65  1  0.17447851  0.67479289  0.82002699  1
  Si  Si66  1  0.14895005  0.99936862  0.24916422  1
  Si  Si67  1  0.65376618  0.99872302  0.25180961  1
  Si  Si68  1  0.34705564  0.68922145  0.25066568  1
  Si  Si69  1  0.84576604  0.68795560  0.25341157  1
  Si  Si70  1  0.15366334  0.30988552  0.74942463  1
  Si  Si71  1  0.65016031  0.30288766  0.74886102  1
  Si  Si72  1  0.34487791  0.99806127  0.75085801  1
  Si  Si73  1  0.84692821  0.00287235  0.74882319  1
  Si  Si74  1  0.48519597  0.33608681  0.58420226  1
  Si  Si75  1  0.98676448  0.33457737  0.58274823  1
  Si  Si76  1  0.48496470  0.63987668  0.08260380  1
  Si  Si77  1  0.98616721  0.63389259  0.08449973  1
  Si  Si78  1  0.83313284  0.03135319  0.08248295  1
  Si  Si79  1  0.31987955  0.66602833  0.91786162  1
  Si  Si80  1  0.82423764  0.66402831  0.92196423  1
  Si  Si81  1  0.16672226  0.97715058  0.91520251  1
  Si  Si82  1  0.66538400  0.98088375  0.91442474  1
  Si  Si83  1  0.32370306  0.97798528  0.42470587  1
  Si  Si84  1  0.81999492  0.97232518  0.41967461  1
  Si  Si85  1  0.16608498  0.35274474  0.41671997  1
  Si  Si86  1  0.66563132  0.35509548  0.41718642  1
  S  S87  1  0.99742205  0.30177580  0.25317451  1
  S  S88  1  0.50452430  0.30842932  0.25529864  1
  S  S89  1  0.00569680  0.70190138  0.75421167  1
  S  S90  1  0.49658900  0.69337812  0.75118058  1
  S  S91  1  0.18882136  0.04323243  0.58406644  1
  S  S92  1  0.68481827  0.03784205  0.58141272  1
  S  S93  1  0.33210394  0.62582511  0.58325096  1
  S  S94  1  0.83328600  0.63494994  0.57889306  1
  S  S95  1  0.33339506  0.03127620  0.07868833  1
  S  S96  1  0.18642644  0.33420315  0.08127776  1
  S  S97  1  0.68747328  0.33287692  0.08371314  1
  S  S98  1  0.01371235  0.36010118  0.91154296  1
  S  S99  1  0.51109811  0.35619003  0.91474392  1
  S  S100  1  0.01117605  0.66769839  0.41501456  1
  S  S101  1  0.51312887  0.66805043  0.41318492  1
  O  O102  1  0.10243102  0.01417526  0.30579594  1
  O  O103  1  0.60774288  0.02209735  0.30682451  1
  O  O104  1  0.39733126  0.79142013  0.30669662  1
  O  O105  1  0.89992613  0.77799136  0.30961870  1
  O  O106  1  0.49716910  0.21207252  0.30654802  1
  O  O107  1  0.98958913  0.20577753  0.30473824  1
  O  O108  1  0.10851373  0.18964693  0.80316943  1
  O  O109  1  0.59992065  0.18786306  0.80269332  1
  O  O110  1  0.48812737  0.77514741  0.80230735  1
  O  O111  1  0.99975407  0.78570789  0.80460492  1
  O  O112  1  0.40232574  0.02029819  0.80491854  1
  O  O113  1  0.90256973  0.00627133  0.80157387  1
  O  O114  1  0.38351746  0.96829432  0.69319692  1
  O  O115  1  0.88663600  0.98864346  0.68888758  1
  O  O116  1  0.10229806  0.22817341  0.69108359  1
  O  O117  1  0.60291626  0.21831258  0.68922987  1
  O  O118  1  0.01273759  0.79436113  0.70244638  1
  O  O119  1  0.50837012  0.79271589  0.70069367  1
  O  O120  1  0.39031175  0.78957937  0.19289363  1
  O  O121  1  0.88632807  0.80258611  0.19811400  1
  O  O122  1  0.01001855  0.22639164  0.20337186  1
  O  O123  1  0.51171582  0.22859075  0.20440329  1
  O  O124  1  0.10135912  0.99275238  0.19096641  1
  O  O125  1  0.60001043  0.97649249  0.19484453  1
  O  O126  1  0.43680175  0.33633208  0.64151180  1
  O  O127  1  0.94254793  0.33952596  0.64131130  1
  O  O128  1  0.23511935  0.13010211  0.63514890  1
  O  O129  1  0.72951483  0.11789740  0.63335576  1
  O  O130  1  0.33027241  0.53457054  0.63442138  1
  O  O131  1  0.82888938  0.54270734  0.62980524  1
  O  O132  1  0.43954485  0.54586401  0.14112494  1
  O  O133  1  0.93855467  0.53837747  0.14222573  1
  O  O134  1  0.32866542  0.11519750  0.12944023  1
  O  O135  1  0.82871395  0.12555890  0.13940995  1
  O  O136  1  0.23189985  0.34542494  0.13329139  1
  O  O137  1  0.73349261  0.34079369  0.13532192  1
  O  O138  1  0.23031059  0.32234347  0.03132319  1
  O  O139  1  0.73013521  0.32309864  0.03269293  1
  O  O140  1  0.43081752  0.54000391  0.02727764  1
  O  O141  1  0.93790283  0.53885352  0.02717601  1
  O  O142  1  0.33478155  0.12065152  0.02700654  1
  O  O143  1  0.83198341  0.12346339  0.02455275  1
  O  O144  1  0.23091628  0.13897777  0.53301879  1
  O  O145  1  0.72880040  0.13860963  0.53148568  1
  O  O146  1  0.33407735  0.54060045  0.53162501  1
  O  O147  1  0.83485407  0.54831461  0.52742767  1
  O  O148  1  0.43512612  0.33381111  0.52785339  1
  O  O149  1  0.93334137  0.32747852  0.52733563  1
  O  O150  1  0.27747337  0.68956175  0.97456030  1
  O  O151  1  0.78589210  0.69420867  0.97960660  1
  O  O152  1  0.06434749  0.43366937  0.96175906  1
  O  O153  1  0.56377667  0.43678048  0.96324825  1
  O  O154  1  0.15106722  0.86621972  0.97190999  1
  O  O155  1  0.64773881  0.86062116  0.96862278  1
  O  O156  1  0.28695094  0.87816685  0.48420584  1
  O  O157  1  0.78011709  0.86899055  0.47794543  1
  O  O158  1  0.15131739  0.43615272  0.47319173  1
  O  O159  1  0.64930701  0.42953422  0.47530120  1
  O  O160  1  0.06272810  0.69329342  0.46498565  1
  O  O161  1  0.56288631  0.69492228  0.46394484  1
  O  O162  1  0.04660011  0.63973023  0.36439374  1
  O  O163  1  0.55161545  0.64205786  0.36327547  1
  O  O164  1  0.25588947  0.88743406  0.37590688  1
  O  O165  1  0.75910840  0.87975621  0.36692259  1
  O  O166  1  0.17965854  0.46758248  0.36180103  1
  O  O167  1  0.67603934  0.47433385  0.36433740  1
  O  O168  1  0.05355269  0.46131650  0.86099414  1
  O  O169  1  0.54507947  0.45118121  0.86224967  1
  O  O170  1  0.17851201  0.88355453  0.86090736  1
  O  O171  1  0.67611531  0.89467342  0.85767511  1
  O  O172  1  0.26228004  0.63885256  0.86269598  1
  O  O173  1  0.75844977  0.61913588  0.87123444  1
  O  O174  1  0.00292301  0.81341328  0.41060439  1
  O  O175  1  0.50410179  0.81184086  0.40718535  1
  O  O176  1  0.41067416  0.98670840  0.41381753  1
  O  O177  1  0.90955189  0.99036570  0.41261849  1
  O  O178  1  0.08569216  0.17187648  0.41267205  1
  O  O179  1  0.58651640  0.17278599  0.41189987  1
  O  O180  1  0.00393805  0.19793216  0.90590050  1
  O  O181  1  0.50097155  0.19271487  0.91034687  1
  O  O182  1  0.08923213  0.00405249  0.90983339  1
  O  O183  1  0.58562242  0.00398543  0.91193389  1
  O  O184  1  0.40953803  0.82739406  0.91198414  1
  O  O185  1  0.91126837  0.83122482  0.91210168  1
  O  O186  1  0.48832049  0.16468481  0.58015564  1
  O  O187  1  0.99209252  0.16564924  0.57903434  1
  O  O188  1  0.10800240  0.02560543  0.58538378  1
  O  O189  1  0.60405356  0.02203712  0.58153342  1
  O  O190  1  0.40301271  0.79029692  0.58281653  1
  O  O191  1  0.90558917  0.79843337  0.57915090  1
  O  O192  1  0.48875395  0.81765193  0.07887973  1
  O  O193  1  0.99292343  0.81312580  0.08077731  1
  O  O194  1  0.40559507  0.01348839  0.07916457  1
  O  O195  1  0.91043463  0.00312553  0.07962478  1
  O  O196  1  0.10637934  0.18889007  0.08177472  1
  O  O197  1  0.60731468  0.18533083  0.08487938  1
  O  O198  1  0.33710982  0.16216507  0.74784425  1
  O  O199  1  0.84694658  0.17523349  0.75261312  1
  O  O200  1  0.24593742  0.33830308  0.74554099  1
  O  O201  1  0.73815896  0.31347819  0.75027405  1
  O  O202  1  0.42027668  0.53648111  0.74694474  1
  O  O203  1  0.93436141  0.53843397  0.75293573  1
  O  O204  1  0.34787410  0.51779245  0.25386367  1
  O  O205  1  0.83909241  0.51018751  0.24887171  1
  O  O206  1  0.43284699  0.32814801  0.25364343  1
  O  O207  1  0.92122099  0.30729542  0.24897638  1
  O  O208  1  0.23803044  0.16456228  0.25106780  1
  O  O209  1  0.74411434  0.15906597  0.24831229  1
  O  O210  1  0.32969277  0.50451439  0.91982595  1
  O  O211  1  0.83898352  0.50980378  0.92343242  1
  O  O212  1  0.42967255  0.33608668  0.92277510  1
  O  O213  1  0.93360671  0.34497837  0.91784604  1
  O  O214  1  0.25093018  0.15321449  0.91928001  1
  O  O215  1  0.74773051  0.15844531  0.91988306  1
  O  O216  1  0.33955072  0.16319351  0.42426866  1
  O  O217  1  0.83123953  0.15473835  0.42108993  1
  O  O218  1  0.24841839  0.33919773  0.42229856  1
  O  O219  1  0.74910810  0.34547759  0.42040765  1
  O  O220  1  0.43173283  0.52538440  0.42025760  1
  O  O221  1  0.92957197  0.52641962  0.42326389  1
  O  O222  1  0.18236333  0.48388456  0.07827701  1
  O  O223  1  0.68121474  0.47945134  0.08227404  1
  O  O224  1  0.08000677  0.66808277  0.08716767  1
  O  O225  1  0.57671977  0.67122010  0.08351982  1
  O  O226  1  0.26021368  0.86823983  0.07949873  1
  O  O227  1  0.75034549  0.85111825  0.08624727  1
  O  O228  1  0.18521954  0.88562000  0.58289530  1
  O  O229  1  0.68016832  0.87985720  0.57819420  1
  O  O230  1  0.25728346  0.63648001  0.58428513  1
  O  O231  1  0.75994692  0.65089049  0.57965541  1
  O  O232  1  0.08002496  0.48880471  0.58349370  1
  O  O233  1  0.57872972  0.48699989  0.58608327  1
  O  O234  1  0.14776907  0.82669343  0.25050961  1
  O  O235  1  0.65804320  0.83174312  0.25598263  1
  O  O236  1  0.25257939  0.64495022  0.24842914  1
  O  O237  1  0.75445946  0.66303569  0.25688953  1
  O  O238  1  0.06599143  0.46721412  0.25799233  1
  O  O239  1  0.57723166  0.46976990  0.25900144  1
  O  O240  1  0.15677869  0.48442196  0.75497782  1
  O  O241  1  0.64789206  0.47152597  0.75063088  1
  O  O242  1  0.07889443  0.68644044  0.75715793  1
  O  O243  1  0.56479785  0.66505669  0.75625621  1
  O  O244  1  0.25409423  0.84013380  0.75528196  1
  O  O245  1  0.75258698  0.85699525  0.74840128  1
