# generated using pymatgen
data_MgMnCoO4
_symmetry_space_group_name_H-M   'P 1'
_cell_length_a   6.28548583
_cell_length_b   5.60324366
_cell_length_c   5.86228607
_cell_angle_alpha   95.99844145
_cell_angle_beta   108.26131209
_cell_angle_gamma   26.96249894
_symmetry_Int_Tables_number   1
_chemical_formula_structural   MgMnCoO4
_chemical_formula_sum   'Mg1 Mn1 Co1 O4'
_cell_volume   81.24348966
_cell_formula_units_Z   1
loop_
 _symmetry_equiv_pos_site_id
 _symmetry_equiv_pos_as_xyz
  1  'x, y, z'
loop_
 _atom_site_type_symbol
 _atom_site_label
 _atom_site_symmetry_multiplicity
 _atom_site_fract_x
 _atom_site_fract_y
 _atom_site_fract_z
 _atom_site_occupancy
  Mg  Mg0  1  0.96699783  0.53821914  0.00530763  1
  Mn  Mn1  1  0.46662888  0.53862303  0.00496532  1
  Co  Co2  1  0.46674689  0.03761347  0.50505387  1
  O  O3  1  0.17543404  0.21185600  0.71356246  1
  O  O4  1  0.13195896  0.06645646  0.17017423  1
  O  O5  1  0.80195228  0.00961918  0.84037564  1
  O  O6  1  0.75842612  0.86375173  0.29692884  1
