# generated using pymatgen
data_Na5Zr3ZnSiP5O24
_symmetry_space_group_name_H-M   'P 1'
_cell_length_a   9.09402397
_cell_length_b   9.06828838
_cell_length_c   22.87473596
_cell_angle_alpha   89.97692307
_cell_angle_beta   90.24608258
_cell_angle_gamma   119.88342255
_symmetry_Int_Tables_number   1
_chemical_formula_structural   Na5Zr3ZnSiP5O24
_chemical_formula_sum   'Na15 Zr9 Zn3 Si3 P15 O72'
_cell_volume   1635.58166931
_cell_formula_units_Z   3
loop_
 _symmetry_equiv_pos_site_id
 _symmetry_equiv_pos_as_xyz
  1  'x, y, z'
loop_
 _atom_site_type_symbol
 _atom_site_label
 _atom_site_symmetry_multiplicity
 _atom_site_fract_x
 _atom_site_fract_y
 _atom_site_fract_z
 _atom_site_occupancy
  Na  Na0  1  0.64167434  0.01516263  0.24354442  1
  Na  Na1  1  0.37443670  0.35912622  0.24349045  1
  Na  Na2  1  0.98560634  0.62744356  0.24397584  1
  Na  Na3  1  0.63540075  0.62335368  0.74601312  1
  Na  Na4  1  0.98756237  0.36423670  0.74632426  1
  Na  Na5  1  0.38051728  0.01492467  0.74319883  1
  Na  Na6  1  0.66279666  0.97397261  0.58452920  1
  Na  Na7  1  0.33243156  0.30467344  0.92188907  1
  Na  Na8  1  0.32381428  0.03212480  0.41280122  1
  Na  Na9  1  0.99978171  0.00045138  0.49102140  1
  Na  Na10  1  0.98540628  0.99001174  0.00222720  1
  Na  Na11  1  0.67821057  0.33661653  0.83639348  1
  Na  Na12  1  0.67775252  0.34341247  0.32925567  1
  Na  Na13  1  0.33339687  0.66766803  0.15985255  1
  Na  Na14  1  0.32357685  0.66167119  0.66180327  1
  Zr  Zr15  1  0.99141520  0.99391841  0.85630532  1
  Zr  Zr16  1  0.01016073  0.00120994  0.64345869  1
  Zr  Zr17  1  0.00012371  0.00117134  0.14583804  1
  Zr  Zr18  1  0.67664834  0.33711536  0.98287646  1
  Zr  Zr19  1  0.66688585  0.33724546  0.48161915  1
  Zr  Zr20  1  0.33539915  0.66475510  0.02007249  1
  Zr  Zr21  1  0.32842307  0.66251993  0.51853468  1
  Zr  Zr22  1  0.33337095  0.66441150  0.31589589  1
  Zr  Zr23  1  0.33175904  0.66495260  0.81855178  1
  Zn  Zn24  1  0.99096174  0.99869253  0.34985404  1
  Zn  Zn25  1  0.66413915  0.33172481  0.67514714  1
  Zn  Zn26  1  0.66851541  0.33504872  0.17516664  1
  Si  Si27  1  0.37674436  0.04112445  0.58451082  1
  Si  Si28  1  0.62666905  0.66406380  0.91758803  1
  Si  Si29  1  0.03700558  0.37382168  0.91621412  1
  P  P30  1  0.29241309  0.00187502  0.25317462  1
  P  P31  1  0.71129382  0.70862693  0.25176282  1
  P  P32  1  0.99774923  0.28953728  0.25196087  1
  P  P33  1  0.29370940  0.29366903  0.75093262  1
  P  P34  1  0.99943479  0.70593280  0.74931698  1
  P  P35  1  0.70688974  0.00100943  0.74846810  1
  P  P36  1  0.95876539  0.33614317  0.58642606  1
  P  P37  1  0.66495989  0.62531056  0.58630622  1
  P  P38  1  0.96182920  0.62704074  0.08694083  1
  P  P39  1  0.66468522  0.03971728  0.08707774  1
  P  P40  1  0.37427378  0.33302504  0.08530591  1
  P  P41  1  0.33514661  0.96078217  0.91704412  1
  P  P42  1  0.63247369  0.96117144  0.41751544  1
  P  P43  1  0.33050602  0.36760667  0.41605310  1
  P  P44  1  0.03779084  0.66870418  0.41544112  1
  O  O45  1  0.21658909  0.02889451  0.30880754  1
  O  O46  1  0.82127904  0.78703055  0.30539762  1
  O  O47  1  0.96886292  0.18030420  0.30539970  1
  O  O48  1  0.20838516  0.18590466  0.80569477  1
  O  O49  1  0.97841584  0.79571273  0.80312686  1
  O  O50  1  0.82123335  0.01883586  0.80161769  1
  O  O51  1  0.78740634  0.97182425  0.69326964  1
  O  O52  1  0.17599138  0.20322344  0.69758223  1
  O  O53  1  0.02649204  0.82164553  0.69559499  1
  O  O54  1  0.79253775  0.82513115  0.19739874  1
  O  O55  1  0.03147734  0.20772029  0.19730095  1
  O  O56  1  0.17298427  0.96982452  0.19976156  1
  O  O57  1  0.89059922  0.36629549  0.64343917  1
  O  O58  1  0.48885172  0.11283482  0.64367331  1
  O  O59  1  0.64026448  0.52849829  0.64334076  1
  O  O60  1  0.88781725  0.52778936  0.14355561  1
  O  O61  1  0.64248373  0.11516416  0.14406870  1
  O  O62  1  0.47533022  0.35663242  0.14160195  1
  O  O63  1  0.45849101  0.31036355  0.02979373  1
  O  O64  1  0.84707990  0.53624196  0.03307791  1
  O  O65  1  0.68738093  0.15308046  0.03338527  1
  O  O66  1  0.46900079  0.15747158  0.52641867  1
  O  O67  1  0.69172968  0.53752803  0.53288943  1
  O  O68  1  0.84072995  0.30822386  0.53346676  1
  O  O69  1  0.53168217  0.69355107  0.97194770  1
  O  O70  1  0.16585307  0.46883609  0.97011564  1
  O  O71  1  0.30753543  0.84628266  0.96922130  1
  O  O72  1  0.53749374  0.85199846  0.47199588  1
  O  O73  1  0.31624202  0.46510631  0.46897165  1
  O  O74  1  0.15535548  0.68753444  0.46829544  1
  O  O75  1  0.12416967  0.64317529  0.35995460  1
  O  O76  1  0.51307420  0.87276688  0.36307431  1
  O  O77  1  0.35439024  0.47736102  0.36023034  1
  O  O78  1  0.12147391  0.48464245  0.85565825  1
  O  O79  1  0.35933818  0.88054591  0.85978550  1
  O  O80  1  0.51248300  0.63622178  0.85721545  1
  O  O81  1  0.03148644  0.83310296  0.41234104  1
  O  O82  1  0.80533687  0.97849745  0.41299793  1
  O  O83  1  0.17752696  0.18929481  0.41296030  1
  O  O84  1  0.03315770  0.19144533  0.90976589  1
  O  O85  1  0.17810438  0.98423182  0.90978133  1
  O  O86  1  0.81523805  0.82894460  0.91125515  1
  O  O87  1  0.96587209  0.16722514  0.58981567  1
  O  O88  1  0.18706571  0.02087049  0.58817020  1
  O  O89  1  0.82116830  0.81000712  0.58939340  1
  O  O90  1  0.97734975  0.80649245  0.08998213  1
  O  O91  1  0.82728094  0.02165432  0.08994840  1
  O  O92  1  0.19393256  0.17101482  0.08971265  1
  O  O93  1  0.69100435  0.16174635  0.74722697  1
  O  O94  1  0.47149649  0.31521584  0.74596781  1
  O  O95  1  0.84215301  0.52847980  0.74491250  1
  O  O96  1  0.68200878  0.52638561  0.24413835  1
  O  O97  1  0.84514074  0.31893700  0.24474328  1
  O  O98  1  0.47245772  0.15552276  0.24533737  1
  O  O99  1  0.63051300  0.48685028  0.92316586  1
  O  O100  1  0.84906279  0.34889239  0.92247155  1
  O  O101  1  0.49032913  0.14044981  0.92305142  1
  O  O102  1  0.63608855  0.13572583  0.42212767  1
  O  O103  1  0.49597918  0.35471492  0.42106935  1
  O  O104  1  0.86303726  0.50694066  0.42203305  1
  O  O105  1  0.35151763  0.49175885  0.07901781  1
  O  O106  1  0.14049197  0.64976875  0.07808840  1
  O  O107  1  0.50682084  0.86095531  0.07900215  1
  O  O108  1  0.35937214  0.85177107  0.57583110  1
  O  O109  1  0.50884549  0.65054066  0.57714079  1
  O  O110  1  0.13935369  0.48727335  0.57639772  1
  O  O111  1  0.30781619  0.83466900  0.25654530  1
  O  O112  1  0.52952017  0.69404840  0.25704042  1
  O  O113  1  0.16484604  0.47131845  0.25661105  1
  O  O114  1  0.30603311  0.47286753  0.75339159  1
  O  O115  1  0.16555701  0.69447504  0.75312748  1
  O  O116  1  0.52735636  0.83830303  0.75429443  1
