# generated using pymatgen
data_Na5Zr2In2SiP5O24
_symmetry_space_group_name_H-M   'P 1'
_cell_length_a   9.09890682
_cell_length_b   9.08454738
_cell_length_c   23.14067516
_cell_angle_alpha   90.02007942
_cell_angle_beta   89.93280895
_cell_angle_gamma   120.02403476
_symmetry_Int_Tables_number   1
_chemical_formula_structural   Na5Zr2In2SiP5O24
_chemical_formula_sum   'Na15 Zr6 In6 Si3 P15 O72'
_cell_volume   1656.12694045
_cell_formula_units_Z   3
loop_
 _symmetry_equiv_pos_site_id
 _symmetry_equiv_pos_as_xyz
  1  'x, y, z'
loop_
 _atom_site_type_symbol
 _atom_site_label
 _atom_site_symmetry_multiplicity
 _atom_site_fract_x
 _atom_site_fract_y
 _atom_site_fract_z
 _atom_site_occupancy
  Na  Na0  1  0.00340467  0.63827724  0.25107461  1
  Na  Na1  1  0.63197380  0.63917952  0.75129951  1
  Na  Na2  1  0.36720826  0.99678370  0.75174435  1
  Na  Na3  1  0.66559186  0.96997751  0.58452558  1
  Na  Na4  1  0.29674614  0.96869547  0.08357037  1
  Na  Na5  1  0.67521223  0.69904788  0.08258298  1
  Na  Na6  1  0.02813857  0.33174162  0.08413819  1
  Na  Na7  1  0.96706438  0.30016762  0.41624170  1
  Na  Na8  1  0.33677145  0.03570339  0.41812419  1
  Na  Na9  1  0.00381240  0.99325246  0.50033409  1
  Na  Na10  1  0.99976809  0.99526375  0.99762838  1
  Na  Na11  1  0.67501686  0.33232638  0.83825718  1
  Na  Na12  1  0.65856689  0.33403880  0.33473591  1
  Na  Na13  1  0.33872056  0.66689966  0.17111967  1
  Na  Na14  1  0.32316719  0.65862253  0.66830659  1
  Zr  Zr15  1  0.99523879  0.00250680  0.85475700  1
  Zr  Zr16  1  0.00528870  0.00113209  0.64778888  1
  Zr  Zr17  1  0.66981901  0.32797639  0.68462983  1
  Zr  Zr18  1  0.66610097  0.33144903  0.18650659  1
  Zr  Zr19  1  0.32916400  0.66632445  0.01422629  1
  Zr  Zr20  1  0.33119792  0.66545543  0.52013138  1
  In  In21  1  0.99434658  0.99576266  0.34974280  1
  In  In22  1  0.99977664  0.99923681  0.15302331  1
  In  In23  1  0.66896953  0.33700518  0.97997753  1
  In  In24  1  0.66406382  0.34015058  0.48427866  1
  In  In25  1  0.34089636  0.66686994  0.31588472  1
  In  In26  1  0.33078145  0.66465950  0.81727177  1
  Si  Si27  1  0.70650762  -0.00017424  0.74983499  1
  Si  Si28  1  0.37072197  0.04009854  0.58158300  1
  Si  Si29  1  0.95973138  0.62814228  0.08358199  1
  P  P30  1  0.29546704  0.99927857  0.25122510  1
  P  P31  1  0.70280037  0.70558454  0.24926764  1
  P  P32  1  0.00141946  0.29593363  0.25028726  1
  P  P33  1  0.29027950  0.29251794  0.75049994  1
  P  P34  1  0.00023374  0.70889610  0.75098051  1
  P  P35  1  0.96013742  0.33382036  0.58184888  1
  P  P36  1  0.66755699  0.62672485  0.58396066  1
  P  P37  1  0.66735683  0.04190416  0.08265930  1
  P  P38  1  0.37485410  0.33271314  0.08286435  1
  P  P39  1  0.62739334  0.66404139  0.91573483  1
  P  P40  1  0.03729345  0.37255795  0.91592163  1
  P  P41  1  0.33547665  0.96546273  0.91554973  1
  P  P42  1  0.62821417  0.96055314  0.41704164  1
  P  P43  1  0.33454640  0.37351443  0.41583495  1
  P  P44  1  0.03911159  0.66580232  0.41558392  1
  O  O45  1  0.21777047  0.02948909  0.30605149  1
  O  O46  1  0.82131437  0.78181939  0.30177921  1
  O  O47  1  0.97087207  0.18948641  0.30531167  1
  O  O48  1  0.20972839  0.17567941  0.80332862  1
  O  O49  1  0.97058986  0.79416066  0.80389696  1
  O  O50  1  0.82872324  0.02625425  0.80515648  1
  O  O51  1  0.79200950  0.96846442  0.69212927  1
  O  O52  1  0.18120737  0.20515079  0.69654509  1
  O  O53  1  0.03022467  0.82323455  0.69718404  1
  O  O54  1  0.77770505  0.80688062  0.19286010  1
  O  O55  1  0.02797589  0.21922553  0.19438685  1
  O  O56  1  0.18696383  0.96628887  0.19580392  1
  O  O57  1  0.87358830  0.36191082  0.63519310  1
  O  O58  1  0.49356751  0.12706103  0.63892073  1
  O  O59  1  0.64101916  0.51924694  0.63905496  1
  O  O60  1  0.87571131  0.50698281  0.14143623  1
  O  O61  1  0.63190894  0.12267633  0.13642118  1
  O  O62  1  0.48957167  0.36388886  0.13660138  1
  O  O63  1  0.44812337  0.29305807  0.02998456  1
  O  O64  1  0.83629322  0.54523133  0.02926951  1
  O  O65  1  0.70063039  0.15249821  0.02961214  1
  O  O66  1  0.44914246  0.14611731  0.52285027  1
  O  O67  1  0.70236919  0.55387459  0.52999666  1
  O  O68  1  0.85281311  0.29799196  0.52681415  1
  O  O69  1  0.54110355  0.69067742  0.97094830  1
  O  O70  1  0.14832837  0.45686320  0.97189747  1
  O  O71  1  0.30919042  0.85045415  0.97060403  1
  O  O72  1  0.54217918  0.85103914  0.47199022  1
  O  O73  1  0.30584021  0.46059571  0.46929990  1
  O  O74  1  0.15780847  0.69279178  0.46827228  1
  O  O75  1  0.11416151  0.63333667  0.36023624  1
  O  O76  1  0.51339750  0.88202727  0.36419548  1
  O  O77  1  0.35977723  0.47893085  0.36162941  1
  O  O78  1  0.12127061  0.48235597  0.86295921  1
  O  O79  1  0.36107607  0.88530621  0.86076700  1
  O  O80  1  0.52338947  0.64074183  0.86077579  1
  O  O81  1  0.03183197  0.83276506  0.41245280  1
  O  O82  1  0.80901433  0.98348538  0.41291029  1
  O  O83  1  0.16855713  0.19430908  0.41279796  1
  O  O84  1  0.02817795  0.19704977  0.91198653  1
  O  O85  1  0.17121198  0.97624299  0.91153548  1
  O  O86  1  0.80487965  0.82844026  0.91181755  1
  O  O87  1  0.97144694  0.17045786  0.59069799  1
  O  O88  1  0.18244175  0.01582504  0.59013430  1
  O  O89  1  0.82084010  0.81020098  0.59066087  1
  O  O90  1  0.98572828  0.82011894  0.08922849  1
  O  O91  1  0.82622245  0.02211696  0.08997027  1
  O  O92  1  0.19288929  0.17828202  0.09035015  1
  O  O93  1  0.68190749  0.16749500  0.74480267  1
  O  O94  1  0.47042424  0.31040682  0.74307406  1
  O  O95  1  0.83468468  0.53535341  0.74325239  1
  O  O96  1  0.69189981  0.52758571  0.24273083  1
  O  O97  1  0.83982604  0.31598942  0.24401299  1
  O  O98  1  0.47351006  0.15860701  0.24332070  1
  O  O99  1  0.64415533  0.50558768  0.92086347  1
  O  O100  1  0.86076043  0.35097467  0.92164719  1
  O  O101  1  0.49376284  0.14006045  0.92272781  1
  O  O102  1  0.64803883  0.14129376  0.42178600  1
  O  O103  1  0.48887617  0.34643716  0.42041482  1
  O  O104  1  0.86464325  0.50187130  0.42271960  1
  O  O105  1  0.36113485  0.49768153  0.07693159  1
  O  O106  1  0.15042547  0.64475924  0.07730250  1
  O  O107  1  0.50612221  0.86048269  0.07696965  1
  O  O108  1  0.36345721  0.85418429  0.57704138  1
  O  O109  1  0.50817515  0.64807808  0.57724050  1
  O  O110  1  0.13862841  0.49182657  0.57656647  1
  O  O111  1  0.30545006  0.83385328  0.25560160  1
  O  O112  1  0.52574314  0.68477874  0.25462380  1
  O  O113  1  0.15480321  0.47916110  0.25430374  1
  O  O114  1  0.31617942  0.47283115  0.75471886  1
  O  O115  1  0.16161046  0.69485806  0.75514926  1
  O  O116  1  0.51731838  0.82964385  0.75399520  1
