# generated using pymatgen
data_Na4TiInSi2PO12
_symmetry_space_group_name_H-M   'P 1'
_cell_length_a   9.15631536
_cell_length_b   9.15631503
_cell_length_c   22.05700262
_cell_angle_alpha   90.12432828
_cell_angle_beta   89.87567172
_cell_angle_gamma   119.83214739
_symmetry_Int_Tables_number   1
_chemical_formula_structural   Na4TiInSi2PO12
_chemical_formula_sum   'Na24 Ti6 In6 Si12 P6 O72'
_cell_volume   1604.16601244
_cell_formula_units_Z   6
loop_
 _symmetry_equiv_pos_site_id
 _symmetry_equiv_pos_as_xyz
  1  'x, y, z'
loop_
 _atom_site_type_symbol
 _atom_site_label
 _atom_site_symmetry_multiplicity
 _atom_site_fract_x
 _atom_site_fract_y
 _atom_site_fract_z
 _atom_site_occupancy
  Na  Na0  1  0.64030050  0.00698573  0.25061617  1
  Na  Na1  1  0.37121680  0.36954250  0.24489100  1
  Na  Na2  1  0.98783838  0.62424597  0.24819301  1
  Na  Na3  1  0.63045750  0.62878320  0.74489100  1
  Na  Na4  1  0.99301427  0.35969950  0.75061617  1
  Na  Na5  1  0.37575403  0.01216162  0.74819301  1
  Na  Na6  1  0.30696750  0.34031873  0.58394917  1
  Na  Na7  1  0.03788380  0.70287550  0.57822400  1
  Na  Na8  1  0.65450538  0.95757897  0.58152601  1
  Na  Na9  1  0.29712450  0.96211620  0.07822400  1
  Na  Na10  1  0.65968127  0.69303250  0.08394917  1
  Na  Na11  1  0.04242103  0.34549462  0.08152601  1
  Na  Na12  1  0.97363350  0.67365273  0.91728317  1
  Na  Na13  1  0.70454980  0.03620950  0.91155800  1
  Na  Na14  1  0.32117138  0.29091297  0.91486001  1
  Na  Na15  1  0.96379050  0.29545020  0.41155800  1
  Na  Na16  1  0.32634727  0.02636650  0.41728317  1
  Na  Na17  1  0.70908703  0.67882862  0.41486001  1
  Na  Na18  1  0.99320265  0.99224312  0.49876348  1
  Na  Na19  1  0.00775688  0.00679735  0.99876348  1
  Na  Na20  1  0.65986965  0.32557612  0.83209648  1
  Na  Na21  1  0.67442388  0.34013035  0.33209648  1
  Na  Na22  1  0.32653565  0.65891012  0.16543048  1
  Na  Na23  1  0.34108988  0.67346435  0.66543048  1
  Ti  Ti24  1  0.99850980  0.00201498  0.64789654  1
  Ti  Ti25  1  0.99798502  0.00149020  0.14789654  1
  Ti  Ti26  1  0.66517680  0.33534798  0.98122954  1
  Ti  Ti27  1  0.66465202  0.33482320  0.48122954  1
  Ti  Ti28  1  0.33184280  0.66868198  0.31456354  1
  Ti  Ti29  1  0.33131802  0.66815720  0.81456354  1
  In  In30  1  0.99482146  0.99659363  0.34898919  1
  In  In31  1  0.00340637  0.00517854  0.84898919  1
  In  In32  1  0.66148846  0.32992663  0.68232219  1
  In  In33  1  0.67007337  0.33851154  0.18232219  1
  In  In34  1  0.32815446  0.66326063  0.01565619  1
  In  In35  1  0.33673937  0.67184554  0.51565619  1
  Si  Si36  1  0.69986860  0.70466388  0.25090592  1
  Si  Si37  1  0.00498421  0.29922043  0.25070553  1
  Si  Si38  1  0.29533612  0.30013140  0.75090592  1
  Si  Si39  1  0.70077957  0.99501579  0.75070553  1
  Si  Si40  1  0.36653560  0.03799688  0.58423892  1
  Si  Si41  1  0.67165121  0.63255343  0.58403853  1
  Si  Si42  1  0.96200312  0.63346440  0.08423892  1
  Si  Si43  1  0.36744657  0.32834879  0.08403853  1
  Si  Si44  1  0.03320160  0.37133088  0.91757292  1
  Si  Si45  1  0.33831721  0.96588743  0.91737253  1
  Si  Si46  1  0.62866912  0.96679840  0.41757292  1
  Si  Si47  1  0.03411257  0.66168279  0.41737253  1
  P  P48  1  0.29054909  0.99354584  0.24942610  1
  P  P49  1  0.00645416  0.70945091  0.74942610  1
  P  P50  1  0.95721609  0.32687884  0.58275910  1
  P  P51  1  0.67312116  0.04278391  0.08275910  1
  P  P52  1  0.62388209  0.66021284  0.91609310  1
  P  P53  1  0.33978716  0.37611791  0.41609310  1
  O  O54  1  0.22168725  0.02723321  0.30811496  1
  O  O55  1  0.81178612  0.77478770  0.31159427  1
  O  O56  1  0.97700416  0.19325550  0.31206821  1
  O  O57  1  0.22521230  0.18821388  0.81159427  1
  O  O58  1  0.97276679  0.77831275  0.80811496  1
  O  O59  1  0.80674450  0.02299584  0.81206821  1
  O  O60  1  0.80733036  0.97362608  0.69235630  1
  O  O61  1  0.16635946  0.19174348  0.69291403  1
  O  O62  1  0.02538957  0.82566578  0.69406969  1
  O  O63  1  0.80825652  0.83364054  0.19291403  1
  O  O64  1  0.02637392  0.19266964  0.19235630  1
  O  O65  1  0.17433422  0.97461043  0.19406969  1
  O  O66  1  0.88835425  0.36056621  0.64144796  1
  O  O67  1  0.47845312  0.10812070  0.64492727  1
  O  O68  1  0.64367116  0.52658850  0.64540121  1
  O  O69  1  0.89187930  0.52154688  0.14492727  1
  O  O70  1  0.63943379  0.11164575  0.14144796  1
  O  O71  1  0.47341150  0.35632884  0.14540121  1
  O  O72  1  0.47399736  0.30695908  0.02568930  1
  O  O73  1  0.83302646  0.52507648  0.02624703  1
  O  O74  1  0.69205657  0.15899878  0.02740269  1
  O  O75  1  0.47492352  0.16697354  0.52624703  1
  O  O76  1  0.69304092  0.52600264  0.52568930  1
  O  O77  1  0.84100122  0.30794343  0.52740269  1
  O  O78  1  0.55502025  0.69390021  0.97478196  1
  O  O79  1  0.14511912  0.44145470  0.97826127  1
  O  O80  1  0.31033716  0.85992250  0.97873521  1
  O  O81  1  0.55854530  0.85488088  0.47826127  1
  O  O82  1  0.30609979  0.44497975  0.47478196  1
  O  O83  1  0.14007750  0.68966284  0.47873521  1
  O  O84  1  0.14066336  0.64029308  0.35902330  1
  O  O85  1  0.49969246  0.85841048  0.35958103  1
  O  O86  1  0.35872257  0.49233278  0.36073669  1
  O  O87  1  0.14158952  0.50030754  0.85958103  1
  O  O88  1  0.35970692  0.85933664  0.85902330  1
  O  O89  1  0.50766722  0.64127743  0.86073669  1
  O  O90  1  0.01612137  0.83035599  0.41378850  1
  O  O91  1  0.82077978  0.99987878  0.41368276  1
  O  O92  1  0.19236063  0.19456837  0.41016216  1
  O  O93  1  0.00012122  0.17922022  0.91368276  1
  O  O94  1  0.16964401  0.98387863  0.91378850  1
  O  O95  1  0.80543163  0.80763937  0.91016216  1
  O  O96  1  0.96037203  0.15754418  0.58581481  1
  O  O97  1  0.18411434  0.03552293  0.58793239  1
  O  O98  1  0.84673128  0.81808976  0.58711499  1
  O  O99  1  0.96447707  0.81588566  0.08793239  1
  O  O100  1  0.84245582  0.03962797  0.08581481  1
  O  O101  1  0.18191024  0.15326872  0.08711499  1
  O  O102  1  0.68278837  0.16368899  0.74712150  1
  O  O103  1  0.48744678  0.33321178  0.74701576  1
  O  O104  1  0.85902763  0.52790137  0.74349516  1
  O  O105  1  0.66678822  0.51255322  0.24701576  1
  O  O106  1  0.83631101  0.31721163  0.24712150  1
  O  O107  1  0.47209863  0.14097237  0.24349516  1
  O  O108  1  0.62703903  0.49087718  0.91914781  1
  O  O109  1  0.85078134  0.36885593  0.92126539  1
  O  O110  1  0.51339828  0.15142276  0.92044799  1
  O  O111  1  0.63114407  0.14921866  0.42126539  1
  O  O112  1  0.50912282  0.37296097  0.41914781  1
  O  O113  1  0.84857724  0.48660172  0.42044799  1
  O  O114  1  0.34945437  0.49702299  0.08045550  1
  O  O115  1  0.15411278  0.66654578  0.08034976  1
  O  O116  1  0.52569363  0.86123537  0.07682916  1
  O  O117  1  0.33345422  0.84588722  0.58034976  1
  O  O118  1  0.50297701  0.65054563  0.58045550  1
  O  O119  1  0.13876463  0.47430637  0.57682916  1
  O  O120  1  0.29370503  0.82421118  0.25248181  1
  O  O121  1  0.51744734  0.70218993  0.25459939  1
  O  O122  1  0.18006428  0.48475676  0.25378199  1
  O  O123  1  0.29781007  0.48255266  0.75459939  1
  O  O124  1  0.17578882  0.70629497  0.75248181  1
  O  O125  1  0.51524324  0.81993572  0.75378199  1
