# generated using pymatgen
data_Tl2Au4S3
_symmetry_space_group_name_H-M   'P 1'
_cell_length_a   4.79702799
_cell_length_b   7.58303825
_cell_length_c   12.17770022
_cell_angle_alpha   90.00000000
_cell_angle_beta   90.00000000
_cell_angle_gamma   90.00000000
_symmetry_Int_Tables_number   1
_chemical_formula_structural   Tl2Au4S3
_chemical_formula_sum   'Tl4 Au8 S6'
_cell_volume   442.97659232
_cell_formula_units_Z   2
loop_
 _symmetry_equiv_pos_site_id
 _symmetry_equiv_pos_as_xyz
  1  'x, y, z'
loop_
 _atom_site_type_symbol
 _atom_site_label
 _atom_site_symmetry_multiplicity
 _atom_site_fract_x
 _atom_site_fract_y
 _atom_site_fract_z
 _atom_site_occupancy
  Tl  Tl0  1  0.73556014  0.02636829  0.75000000  1
  Tl  Tl1  1  0.73556014  0.47363171  0.75000000  1
  Tl  Tl2  1  0.26443986  0.97363171  0.25000000  1
  Tl  Tl3  1  0.26443986  0.52636829  0.25000000  1
  Au  Au4  1  -0.00000000  0.50000000  0.00000000  1
  Au  Au5  1  -0.00000000  0.00000000  0.00000000  1
  Au  Au6  1  -0.00000000  0.00000000  0.50000000  1
  Au  Au7  1  0.55447576  0.25000000  0.40785263  1
  Au  Au8  1  0.44552424  0.75000000  0.59214737  1
  Au  Au9  1  0.55447576  0.25000000  0.09214737  1
  Au  Au10  1  -0.00000000  0.50000000  0.50000000  1
  Au  Au11  1  0.44552424  0.75000000  0.90785263  1
  S  S12  1  0.17479513  0.75000000  0.75000000  1
  S  S13  1  0.75209384  0.75000000  0.44340010  1
  S  S14  1  0.75209384  0.75000000  0.05659990  1
  S  S15  1  0.24790616  0.25000000  0.94340010  1
  S  S16  1  0.82520487  0.25000000  0.25000000  1
  S  S17  1  0.24790616  0.25000000  0.55659990  1
