# generated using pymatgen
data_Sc2O3
_symmetry_space_group_name_H-M   'P 1'
_cell_length_a   8.54160167
_cell_length_b   8.54160207
_cell_length_c   8.54160167
_cell_angle_alpha   109.47122206
_cell_angle_beta   109.47122300
_cell_angle_gamma   109.47121730
_symmetry_Int_Tables_number   1
_chemical_formula_structural   Sc2O3
_chemical_formula_sum   'Sc16 O24'
_cell_volume   479.72910892
_cell_formula_units_Z   8
loop_
 _symmetry_equiv_pos_site_id
 _symmetry_equiv_pos_as_xyz
  1  'x, y, z'
loop_
 _atom_site_type_symbol
 _atom_site_label
 _atom_site_symmetry_multiplicity
 _atom_site_fract_x
 _atom_site_fract_y
 _atom_site_fract_z
 _atom_site_occupancy
  Sc  Sc0  1  0.50000000  0.50000000  0.50000000  1
  Sc  Sc1  1  0.00000000  -0.00000000  0.50000000  1
  Sc  Sc2  1  0.50000000  -0.00000000  -0.00000000  1
  Sc  Sc3  1  0.00000000  0.50000000  -0.00000000  1
  Sc  Sc4  1  0.25000000  0.21415440  0.96415440  1
  Sc  Sc5  1  0.28584560  0.53584560  0.75000000  1
  Sc  Sc6  1  0.53584560  0.75000000  0.28584560  1
  Sc  Sc7  1  0.21415440  0.96415440  0.25000000  1
  Sc  Sc8  1  0.96415440  0.25000000  0.21415440  1
  Sc  Sc9  1  0.75000000  0.28584560  0.53584560  1
  Sc  Sc10  1  0.75000000  0.78584560  0.03584560  1
  Sc  Sc11  1  0.71415440  0.46415440  0.25000000  1
  Sc  Sc12  1  0.46415440  0.25000000  0.71415440  1
  Sc  Sc13  1  0.78584560  0.03584560  0.75000000  1
  Sc  Sc14  1  0.03584560  0.75000000  0.78584560  1
  Sc  Sc15  1  0.25000000  0.71415440  0.46415440  1
  O  O16  1  0.53570214  0.77272420  0.54615538  1
  O  O17  1  0.98954676  0.95384462  0.72656882  1
  O  O18  1  0.26297694  0.77343118  0.72727580  1
  O  O19  1  0.51045324  0.23702306  0.96429786  1
  O  O20  1  0.95384462  0.72656882  0.98954676  1
  O  O21  1  0.72727580  0.26297694  0.77343118  1
  O  O22  1  0.23702306  0.96429786  0.51045324  1
  O  O23  1  0.54615538  0.53570214  0.77272420  1
  O  O24  1  0.77272420  0.54615538  0.53570214  1
  O  O25  1  0.72656882  0.98954676  0.95384462  1
  O  O26  1  0.77343118  0.72727580  0.26297694  1
  O  O27  1  0.96429786  0.51045324  0.23702306  1
  O  O28  1  0.46429786  0.22727580  0.45384462  1
  O  O29  1  0.01045324  0.04615538  0.27343118  1
  O  O30  1  0.73702306  0.22656882  0.27272420  1
  O  O31  1  0.48954676  0.76297694  0.03570214  1
  O  O32  1  0.04615538  0.27343118  0.01045324  1
  O  O33  1  0.27272420  0.73702306  0.22656882  1
  O  O34  1  0.76297694  0.03570214  0.48954676  1
  O  O35  1  0.45384462  0.46429786  0.22727580  1
  O  O36  1  0.22727580  0.45384462  0.46429786  1
  O  O37  1  0.27343118  0.01045324  0.04615538  1
  O  O38  1  0.22656882  0.27272420  0.73702306  1
  O  O39  1  0.03570214  0.48954676  0.76297694  1
