# generated using pymatgen
data_Na4TaAl(SiO4)3
_symmetry_space_group_name_H-M   'P 1'
_cell_length_a   8.97808708
_cell_length_b   8.97808678
_cell_length_c   22.03877932
_cell_angle_alpha   90.00000000
_cell_angle_beta   90.00000000
_cell_angle_gamma   120.00000111
_symmetry_Int_Tables_number   1
_chemical_formula_structural   Na4TaAl(SiO4)3
_chemical_formula_sum   'Na24 Ta6 Al6 Si18 O72'
_cell_volume   1538.45846309
_cell_formula_units_Z   6
loop_
 _symmetry_equiv_pos_site_id
 _symmetry_equiv_pos_as_xyz
  1  'x, y, z'
loop_
 _atom_site_type_symbol
 _atom_site_label
 _atom_site_symmetry_multiplicity
 _atom_site_fract_x
 _atom_site_fract_y
 _atom_site_fract_z
 _atom_site_occupancy
  Na  Na0  1  0.63639033  0.00905450  0.24759108  1
  Na  Na1  1  0.37266417  0.36360967  0.24759108  1
  Na  Na2  1  0.99094550  0.62733583  0.24759108  1
  Na  Na3  1  0.63639033  0.62733583  0.74759108  1
  Na  Na4  1  0.99094550  0.36360967  0.74759108  1
  Na  Na5  1  0.37266417  0.00905450  0.74759108  1
  Na  Na6  1  0.30305733  0.34238750  0.58092408  1
  Na  Na7  1  0.03933117  0.69694267  0.58092408  1
  Na  Na8  1  0.65761250  0.96066883  0.58092408  1
  Na  Na9  1  0.30305733  0.96066883  0.08092408  1
  Na  Na10  1  0.65761250  0.69694267  0.08092408  1
  Na  Na11  1  0.03933117  0.34238750  0.08092408  1
  Na  Na12  1  0.96972333  0.67572150  0.91425808  1
  Na  Na13  1  0.70599717  0.03027667  0.91425808  1
  Na  Na14  1  0.32427850  0.29400283  0.91425808  1
  Na  Na15  1  0.96972333  0.29400283  0.41425808  1
  Na  Na16  1  0.32427850  0.03027667  0.41425808  1
  Na  Na17  1  0.70599717  0.67572150  0.41425808  1
  Na  Na18  1  -0.00000000  -0.00000000  0.49498162  1
  Na  Na19  1  -0.00000000  -0.00000000  0.99498162  1
  Na  Na20  1  0.66666700  0.33333300  0.82831462  1
  Na  Na21  1  0.66666700  0.33333300  0.32831462  1
  Na  Na22  1  0.33333300  0.66666700  0.16164862  1
  Na  Na23  1  0.33333300  0.66666700  0.66164862  1
  Ta  Ta24  1  -0.00000000  -0.00000000  0.64624078  1
  Ta  Ta25  1  -0.00000000  -0.00000000  0.14624078  1
  Ta  Ta26  1  0.66666700  0.33333300  0.97957378  1
  Ta  Ta27  1  0.66666700  0.33333300  0.47957378  1
  Ta  Ta28  1  0.33333300  0.66666700  0.31290778  1
  Ta  Ta29  1  0.33333300  0.66666700  0.81290778  1
  Al  Al30  1  -0.00000000  -0.00000000  0.35264095  1
  Al  Al31  1  -0.00000000  -0.00000000  0.85264095  1
  Al  Al32  1  0.66666700  0.33333300  0.68597395  1
  Al  Al33  1  0.66666700  0.33333300  0.18597395  1
  Al  Al34  1  0.33333300  0.66666700  0.01930795  1
  Al  Al35  1  0.33333300  0.66666700  0.51930795  1
  Si  Si36  1  0.29242748  0.00659421  0.25259447  1
  Si  Si37  1  0.71416674  0.70757252  0.25259447  1
  Si  Si38  1  0.99340579  0.28583326  0.25259447  1
  Si  Si39  1  0.29242748  0.28583326  0.75259447  1
  Si  Si40  1  0.99340579  0.70757252  0.75259447  1
  Si  Si41  1  0.71416674  0.00659421  0.75259447  1
  Si  Si42  1  0.95909448  0.33992721  0.58592747  1
  Si  Si43  1  0.38083374  0.04090552  0.58592747  1
  Si  Si44  1  0.66007279  0.61916626  0.58592747  1
  Si  Si45  1  0.95909448  0.61916626  0.08592747  1
  Si  Si46  1  0.66007279  0.04090552  0.08592747  1
  Si  Si47  1  0.38083374  0.33992721  0.08592747  1
  Si  Si48  1  0.62576048  0.67326121  0.91926147  1
  Si  Si49  1  0.04749974  0.37423952  0.91926147  1
  Si  Si50  1  0.32673879  0.95250026  0.91926147  1
  Si  Si51  1  0.62576048  0.95250026  0.41926147  1
  Si  Si52  1  0.32673879  0.37423952  0.41926147  1
  Si  Si53  1  0.04749974  0.67326121  0.41926147  1
  O  O54  1  0.19869775  0.03365362  0.31051865  1
  O  O55  1  0.83495587  0.80130225  0.31051865  1
  O  O56  1  0.96634638  0.16504413  0.31051865  1
  O  O57  1  0.19869775  0.16504413  0.81051865  1
  O  O58  1  0.96634638  0.80130225  0.81051865  1
  O  O59  1  0.83495587  0.03365362  0.81051865  1
  O  O60  1  0.79927978  0.96581401  0.69182489  1
  O  O61  1  0.16653423  0.20072022  0.69182489  1
  O  O62  1  0.03418599  0.83346577  0.69182489  1
  O  O63  1  0.79927978  0.83346577  0.19182489  1
  O  O64  1  0.03418599  0.20072022  0.19182489  1
  O  O65  1  0.16653423  0.96581401  0.19182489  1
  O  O66  1  0.86536475  0.36698662  0.64385165  1
  O  O67  1  0.50162287  0.13463525  0.64385165  1
  O  O68  1  0.63301338  0.49837713  0.64385165  1
  O  O69  1  0.86536475  0.49837713  0.14385165  1
  O  O70  1  0.63301338  0.13463525  0.14385165  1
  O  O71  1  0.50162287  0.36698662  0.14385165  1
  O  O72  1  0.46594678  0.29914701  0.02515789  1
  O  O73  1  0.83320123  0.53405322  0.02515789  1
  O  O74  1  0.70085299  0.16679877  0.02515789  1
  O  O75  1  0.46594678  0.16679877  0.52515789  1
  O  O76  1  0.70085299  0.53405322  0.52515789  1
  O  O77  1  0.83320123  0.29914701  0.52515789  1
  O  O78  1  0.53203075  0.70032062  0.97718565  1
  O  O79  1  0.16828887  0.46796925  0.97718565  1
  O  O80  1  0.29967938  0.83171113  0.97718565  1
  O  O81  1  0.53203075  0.83171113  0.47718565  1
  O  O82  1  0.29967938  0.46796925  0.47718565  1
  O  O83  1  0.16828887  0.70032062  0.47718565  1
  O  O84  1  0.13261278  0.63248101  0.35849189  1
  O  O85  1  0.49986723  0.86738722  0.35849189  1
  O  O86  1  0.36751899  0.50013277  0.35849189  1
  O  O87  1  0.13261278  0.50013277  0.85849189  1
  O  O88  1  0.36751899  0.86738722  0.85849189  1
  O  O89  1  0.49986723  0.63248101  0.85849189  1
  O  O90  1  0.02324469  0.83952039  0.41065002  1
  O  O91  1  0.81627570  0.97675531  0.41065002  1
  O  O92  1  0.16047961  0.18372430  0.41065002  1
  O  O93  1  0.02324469  0.18372430  0.91065002  1
  O  O94  1  0.16047961  0.97675531  0.91065002  1
  O  O95  1  0.81627570  0.83952039  0.91065002  1
  O  O96  1  0.97411643  0.16218414  0.58886645  1
  O  O97  1  0.18806771  0.02588357  0.58886645  1
  O  O98  1  0.83781586  0.81193229  0.58886645  1
  O  O99  1  0.97411643  0.81193229  0.08886645  1
  O  O100  1  0.83781586  0.02588357  0.08886645  1
  O  O101  1  0.18806771  0.16218414  0.08886645  1
  O  O102  1  0.68991169  0.17285339  0.74398302  1
  O  O103  1  0.48294270  0.31008831  0.74398302  1
  O  O104  1  0.82714661  0.51705730  0.74398302  1
  O  O105  1  0.68991169  0.51705730  0.24398302  1
  O  O106  1  0.82714661  0.31008831  0.24398302  1
  O  O107  1  0.48294270  0.17285339  0.24398302  1
  O  O108  1  0.64078343  0.49551714  0.92219945  1
  O  O109  1  0.85473471  0.35921657  0.92219945  1
  O  O110  1  0.50448286  0.14526529  0.92219945  1
  O  O111  1  0.64078343  0.14526529  0.42219945  1
  O  O112  1  0.50448286  0.35921657  0.42219945  1
  O  O113  1  0.85473471  0.49551714  0.42219945  1
  O  O114  1  0.35657769  0.50618739  0.07731702  1
  O  O115  1  0.14960870  0.64342231  0.07731702  1
  O  O116  1  0.49381261  0.85039130  0.07731702  1
  O  O117  1  0.35657769  0.85039130  0.57731702  1
  O  O118  1  0.49381261  0.64342231  0.57731702  1
  O  O119  1  0.14960870  0.50618739  0.57731702  1
  O  O120  1  0.30744943  0.82885114  0.25553345  1
  O  O121  1  0.52140071  0.69255057  0.25553345  1
  O  O122  1  0.17114886  0.47859929  0.25553345  1
  O  O123  1  0.30744943  0.47859929  0.75553345  1
  O  O124  1  0.17114886  0.69255057  0.75553345  1
  O  O125  1  0.52140071  0.82885114  0.75553345  1
