# generated using pymatgen
data_Na2Si3Ge4(SO8)3
_symmetry_space_group_name_H-M   'P 1'
_cell_length_a   8.52090254
_cell_length_b   8.44190588
_cell_length_c   22.04162259
_cell_angle_alpha   90.84240851
_cell_angle_beta   90.76953969
_cell_angle_gamma   119.81722873
_symmetry_Int_Tables_number   1
_chemical_formula_structural   Na2Si3Ge4(SO8)3
_chemical_formula_sum   'Na6 Si9 Ge12 S9 O72'
_cell_volume   1375.07410415
_cell_formula_units_Z   3
loop_
 _symmetry_equiv_pos_site_id
 _symmetry_equiv_pos_as_xyz
  1  'x, y, z'
loop_
 _atom_site_type_symbol
 _atom_site_label
 _atom_site_symmetry_multiplicity
 _atom_site_fract_x
 _atom_site_fract_y
 _atom_site_fract_z
 _atom_site_occupancy
  Na  Na0  1  0.99089620  0.98992001  0.49747247  1
  Na  Na1  1  0.00235935  0.99393460  0.00065421  1
  Na  Na2  1  0.65857752  0.32463617  0.83087308  1
  Na  Na3  1  0.67115969  0.32757539  0.33459617  1
  Na  Na4  1  0.32357726  0.66369487  0.17086255  1
  Na  Na5  1  0.34142869  0.66514798  0.66514740  1
  Si  Si6  1  0.29293999  0.00766342  0.25125447  1
  Si  Si7  1  0.01031626  0.28473630  0.25151773  1
  Si  Si8  1  0.28543076  0.28879280  0.74896675  1
  Si  Si9  1  0.71883319  0.00803916  0.75015957  1
  Si  Si10  1  0.66446899  0.61897894  0.58329703  1
  Si  Si11  1  0.94692658  0.61983218  0.08526814  1
  Si  Si12  1  0.33045175  0.95674616  0.91561176  1
  Si  Si13  1  0.62444191  0.95578509  0.41544538  1
  Si  Si14  1  0.05120563  0.67250941  0.41798220  1
  Ge  Ge15  1  0.00375408  0.00456605  0.35570116  1
  Ge  Ge16  1  0.01934629  0.01543706  0.84814898  1
  Ge  Ge17  1  0.98213167  0.00106766  0.64681253  1
  Ge  Ge18  1  0.00726326  0.98965118  0.15374929  1
  Ge  Ge19  1  0.64688027  0.32770782  0.68812542  1
  Ge  Ge20  1  0.68489575  0.33446902  0.19392956  1
  Ge  Ge21  1  0.66025833  0.33324906  0.98194369  1
  Ge  Ge22  1  0.68616485  0.34947089  0.47482360  1
  Ge  Ge23  1  0.31266689  0.67344498  0.02100004  1
  Ge  Ge24  1  0.35603698  0.68321759  0.51493401  1
  Ge  Ge25  1  0.31069429  0.67913736  0.31255356  1
  Ge  Ge26  1  0.35437917  0.68481912  0.80796284  1
  S  S27  1  0.70987415  0.71248563  0.24974062  1
  S  S28  1  0.00009524  0.71189719  0.74962038  1
  S  S29  1  0.95551492  0.33628894  0.58416565  1
  S  S30  1  0.37505700  0.04422448  0.58259784  1
  S  S31  1  0.66733050  0.04323219  0.08247488  1
  S  S32  1  0.37712167  0.33621122  0.08235771  1
  S  S33  1  0.62047015  0.66790745  0.91805796  1
  S  S34  1  0.04419589  0.37944580  0.91635792  1
  S  S35  1  0.33490242  0.38160231  0.41637834  1
  O  O36  1  0.20169377  0.04110057  0.31008261  1
  O  O37  1  0.82540764  0.78675528  0.30448452  1
  O  O38  1  0.96135693  0.15615515  0.30951185  1
  O  O39  1  0.21374186  0.16830127  0.80992856  1
  O  O40  1  0.96374998  0.78785779  0.80634862  1
  O  O41  1  0.83851197  0.03607795  0.81302509  1
  O  O42  1  0.79311942  0.95548832  0.69080052  1
  O  O43  1  0.15984388  0.19542033  0.68837651  1
  O  O44  1  0.03678531  0.82441945  0.69556028  1
  O  O45  1  0.78559751  0.82193177  0.19315699  1
  O  O46  1  0.03307099  0.19542475  0.18657312  1
  O  O47  1  0.17031630  0.95360021  0.18842970  1
  O  O48  1  0.87482147  0.36497569  0.63961277  1
  O  O49  1  0.49045341  0.11860395  0.63993605  1
  O  O50  1  0.63257679  0.49642784  0.64394590  1
  O  O51  1  0.85351664  0.48852313  0.14219451  1
  O  O52  1  0.62598887  0.11799238  0.13686406  1
  O  O53  1  0.48956429  0.37027223  0.13683369  1
  O  O54  1  0.45282081  0.29640949  0.02593826  1
  O  O55  1  0.82652838  0.53101110  0.02179346  1
  O  O56  1  0.69682664  0.15377768  0.02675841  1
  O  O57  1  0.45574521  0.15496457  0.52935212  1
  O  O58  1  0.69946743  0.52526840  0.52393793  1
  O  O59  1  0.84042486  0.29430618  0.52843720  1
  O  O60  1  0.53878112  0.69734399  0.97344073  1
  O  O61  1  0.16066919  0.45576020  0.97338495  1
  O  O62  1  0.29481980  0.83494596  0.97627571  1
  O  O63  1  0.55040064  0.83645352  0.47682131  1
  O  O64  1  0.29994907  0.45732494  0.47332024  1
  O  O65  1  0.17327978  0.70122100  0.48001305  1
  O  O66  1  0.12161925  0.61775946  0.35767230  1
  O  O67  1  0.49572425  0.86115102  0.35549456  1
  O  O68  1  0.36813442  0.49059817  0.36211374  1
  O  O69  1  0.12293290  0.48931808  0.86282576  1
  O  O70  1  0.36832791  0.86218967  0.85723475  1
  O  O71  1  0.50608396  0.62706282  0.86198367  1
  O  O72  1  0.03176403  0.85240903  0.40915939  1
  O  O73  1  0.82514428  0.98168154  0.40835272  1
  O  O74  1  0.17015075  0.19894902  0.41277080  1
  O  O75  1  0.02420592  0.19381813  0.91280361  1
  O  O76  1  0.14624682  0.97309310  0.90816016  1
  O  O77  1  0.80092853  0.82991869  0.91232424  1
  O  O78  1  0.97397216  0.16755587  0.58808259  1
  O  O79  1  0.19480448  0.02809416  0.59026236  1
  O  O80  1  0.85203003  0.82083046  0.59098127  1
  O  O81  1  0.96739443  0.82415282  0.09109845  1
  O  O82  1  0.82938501  0.02565981  0.08798706  1
  O  O83  1  0.19523502  0.17502282  0.08552214  1
  O  O84  1  0.70116402  0.18988476  0.74016698  1
  O  O85  1  0.48669201  0.31397085  0.74376326  1
  O  O86  1  0.83819908  0.52917004  0.74377282  1
  O  O87  1  0.69374550  0.52844485  0.24214724  1
  O  O88  1  0.83145010  0.30990038  0.24483187  1
  O  O89  1  0.48956060  0.19012782  0.23826392  1
  O  O90  1  0.63779414  0.49934286  0.92270226  1
  O  O91  1  0.86221389  0.36185389  0.92357802  1
  O  O92  1  0.51499627  0.15931811  0.92644221  1
  O  O93  1  0.63175708  0.15248618  0.42746079  1
  O  O94  1  0.49621386  0.35827503  0.42361799  1
  O  O95  1  0.84956942  0.49350764  0.42276821  1
  O  O96  1  0.36610204  0.50781672  0.07359023  1
  O  O97  1  0.14867288  0.63731123  0.07740881  1
  O  O98  1  0.50250502  0.85508587  0.07506047  1
  O  O99  1  0.35670129  0.85914240  0.57906324  1
  O  O100  1  0.48119413  0.63830403  0.57568876  1
  O  O101  1  0.13614252  0.49765336  0.57873188  1
  O  O102  1  0.31727411  0.82898776  0.25426958  1
  O  O103  1  0.53075621  0.69141187  0.25452920  1
  O  O104  1  0.19314421  0.48474672  0.25769109  1
  O  O105  1  0.29776771  0.48692497  0.76074559  1
  O  O106  1  0.16295820  0.69203741  0.75727679  1
  O  O107  1  0.51746404  0.82938997  0.75591564  1
