# generated using pymatgen
data_Na14Ca4La4Si5S7O48
_symmetry_space_group_name_H-M   'P 1'
_cell_length_a   19.28299960
_cell_length_b   9.61747480
_cell_length_c   23.64322798
_cell_angle_alpha   89.93986249
_cell_angle_beta   89.79635425
_cell_angle_gamma   119.97075182
_symmetry_Int_Tables_number   1
_chemical_formula_structural   Na14Ca4La4Si5S7O48
_chemical_formula_sum   'Na42 Ca12 La12 Si15 S21 O144'
_cell_volume   3798.35821315
_cell_formula_units_Z   3
loop_
 _symmetry_equiv_pos_site_id
 _symmetry_equiv_pos_as_xyz
  1  'x, y, z'
loop_
 _atom_site_type_symbol
 _atom_site_label
 _atom_site_symmetry_multiplicity
 _atom_site_fract_x
 _atom_site_fract_y
 _atom_site_fract_z
 _atom_site_occupancy
  Na  Na0  1  0.80552638  0.99226301  0.24991978  1
  Na  Na1  1  0.18433961  0.34626829  0.25565924  1
  Na  Na2  1  0.68325684  0.34675263  0.25314937  1
  Na  Na3  1  0.00621627  0.65952836  0.24534514  1
  Na  Na4  1  0.51541379  0.66209816  0.23636551  1
  Na  Na5  1  0.31821669  0.61358977  0.75435084  1
  Na  Na6  1  0.01368431  0.36479795  0.73729883  1
  Na  Na7  1  0.50369434  0.37644081  0.74474517  1
  Na  Na8  1  0.18863721  0.02945840  0.75169857  1
  Na  Na9  1  0.66535249  0.99751035  0.75359709  1
  Na  Na10  1  0.14991824  0.32409639  0.58400764  1
  Na  Na11  1  0.65302635  0.31791556  0.58228487  1
  Na  Na12  1  0.32480107  0.97969866  0.59404950  1
  Na  Na13  1  0.83435194  0.00178678  0.58516128  1
  Na  Na14  1  0.16044895  0.00066088  0.06837706  1
  Na  Na15  1  0.64804879  0.97363062  0.07546899  1
  Na  Na16  1  0.33799882  0.67022073  0.07782485  1
  Na  Na17  1  0.82378060  0.67115272  0.08502481  1
  Na  Na18  1  0.48784455  0.69074673  0.91371919  1
  Na  Na19  1  0.99566686  0.69325441  0.91146229  1
  Na  Na20  1  0.33669338  0.03668045  0.90867666  1
  Na  Na21  1  0.83507820  0.02997855  0.91054028  1
  Na  Na22  1  0.17217041  0.27902874  0.90965596  1
  Na  Na23  1  0.66294985  0.27469751  0.91332819  1
  Na  Na24  1  0.49705930  0.29883723  0.41783119  1
  Na  Na25  1  0.98931405  0.29169559  0.43786178  1
  Na  Na26  1  0.16761572  0.05947644  0.42602842  1
  Na  Na27  1  0.67066039  0.06250118  0.42056873  1
  Na  Na28  1  0.34055381  0.64270910  0.41874302  1
  Na  Na29  1  0.83427022  0.63729023  0.41627553  1
  Na  Na30  1  0.01819649  0.02641849  0.50844343  1
  Na  Na31  1  0.52139128  0.01472408  0.50169911  1
  Na  Na32  1  0.02046415  0.03174441  0.99448588  1
  Na  Na33  1  0.51903057  0.00716169  0.00212790  1
  Na  Na34  1  0.32811650  0.33758616  0.82331081  1
  Na  Na35  1  0.80956437  0.31697602  0.83117845  1
  Na  Na36  1  0.31477849  0.30297606  0.33330565  1
  Na  Na37  1  0.80694889  0.30752741  0.33471691  1
  Na  Na38  1  0.17145662  0.67077659  0.16309271  1
  Na  Na39  1  0.64936665  0.64788164  0.16024618  1
  Na  Na40  1  0.15279269  0.64792608  0.66558614  1
  Na  Na41  1  0.65631322  0.66860012  0.67385580  1
  Ca  Ca42  1  0.00746835  0.01284142  0.34895308  1
  Ca  Ca43  1  0.50896923  0.01045840  0.34722614  1
  Ca  Ca44  1  0.00792278  0.00688150  0.84656346  1
  Ca  Ca45  1  0.50535694  0.99276237  0.84560390  1
  Ca  Ca46  1  0.33136308  0.33628902  0.68161335  1
  Ca  Ca47  1  0.82613649  0.32563136  0.18062690  1
  Ca  Ca48  1  0.33363586  0.33828286  0.98618708  1
  Ca  Ca49  1  0.82806478  0.32600483  0.98593244  1
  Ca  Ca50  1  0.32865059  0.33170289  0.48669156  1
  Ca  Ca51  1  0.83362411  0.32992671  0.48731049  1
  Ca  Ca52  1  0.66622582  0.66331902  0.31878442  1
  Ca  Ca53  1  0.16730913  0.66836389  0.81873692  1
  La  La54  1  0.00886611  0.00581973  0.65106405  1
  La  La55  1  0.50842265  0.99068853  0.65407559  1
  La  La56  1  0.00933049  0.01597793  0.15019654  1
  La  La57  1  0.50985909  0.01234809  0.14984297  1
  La  La58  1  0.83067006  0.33336513  0.67986562  1
  La  La59  1  0.33256182  0.32941738  0.17875266  1
  La  La60  1  0.15905086  0.65345605  0.01299053  1
  La  La61  1  0.65224197  0.65127511  0.01784606  1
  La  La62  1  0.15280116  0.65548676  0.52008277  1
  La  La63  1  0.65931851  0.66521985  0.51450683  1
  La  La64  1  0.17213024  0.67915795  0.32003521  1
  La  La65  1  0.66780124  0.66379412  0.81771870  1
  Si  Si66  1  0.15296404  0.99629167  0.25076501  1
  Si  Si67  1  0.65644348  0.99824626  0.25302831  1
  Si  Si68  1  0.15544706  0.31652707  0.75259360  1
  Si  Si69  1  0.65415189  0.30727523  0.75094852  1
  Si  Si70  1  0.49622685  0.68019726  0.75699068  1
  Si  Si71  1  0.98542896  0.32409791  0.58276511  1
  Si  Si72  1  0.18576025  0.03238366  0.58231930  1
  Si  Si73  1  0.68122099  0.02630998  0.57957207  1
  Si  Si74  1  0.48514814  0.64492786  0.08425743  1
  Si  Si75  1  0.18204111  0.33920791  0.08328098  1
  Si  Si76  1  0.68510072  0.34170700  0.08433471  1
  Si  Si77  1  0.16673637  0.97394362  0.91837005  1
  Si  Si78  1  0.66861953  0.97891217  0.91733209  1
  Si  Si79  1  0.16762681  0.36077402  0.41391651  1
  Si  Si80  1  0.66742797  0.35951161  0.41582517  1
  S  S81  1  0.34904212  0.69539253  0.25231968  1
  S  S82  1  0.84984533  0.69758356  0.25196411  1
  S  S83  1  0.99709113  0.30778067  0.25305335  1
  S  S84  1  0.50109828  0.31304723  0.25613490  1
  S  S85  1  0.00171886  0.68940603  0.75612175  1
  S  S86  1  0.34699159  0.99819853  0.75156260  1
  S  S87  1  0.85106492  0.00585465  0.75256848  1
  S  S88  1  0.48132847  0.32571356  0.58201941  1
  S  S89  1  0.33406730  0.64033482  0.58089539  1
  S  S90  1  0.83176242  0.64088664  0.57737294  1
  S  S91  1  0.98200509  0.63293446  0.08503519  1
  S  S92  1  0.32997298  0.01998321  0.07896444  1
  S  S93  1  0.83405306  0.02900431  0.08318684  1
  S  S94  1  0.32052327  0.67067067  0.91566447  1
  S  S95  1  0.82561374  0.67297751  0.92123703  1
  S  S96  1  0.00913432  0.35426551  0.91245028  1
  S  S97  1  0.50649710  0.34491590  0.91348789  1
  S  S98  1  0.32548218  0.98018645  0.42013815  1
  S  S99  1  0.82072427  0.97282750  0.41313512  1
  S  S100  1  0.00711355  0.66482327  0.41152843  1
  S  S101  1  0.50898224  0.66292964  0.41139370  1
  O  O102  1  0.10557748  0.00949903  0.30575313  1
  O  O103  1  0.61353581  0.02219036  0.30919632  1
  O  O104  1  0.39067177  0.78669882  0.30360260  1
  O  O105  1  0.89782160  0.78582987  0.30202296  1
  O  O106  1  0.49420988  0.22244137  0.30866013  1
  O  O107  1  0.98578103  0.21038468  0.30436217  1
  O  O108  1  0.11102106  0.20951887  0.80921678  1
  O  O109  1  0.60836068  0.20226471  0.80743128  1
  O  O110  1  0.48223999  0.75452395  0.81505034  1
  O  O111  1  0.99426836  0.76502538  0.80882580  1
  O  O112  1  0.39527954  0.00898422  0.80185401  1
  O  O113  1  0.89329837  0.99833956  0.80376483  1
  O  O114  1  0.38553922  0.98234319  0.69876751  1
  O  O115  1  0.89068741  0.99438197  0.70035929  1
  O  O116  1  0.09753167  0.22475705  0.69695862  1
  O  O117  1  0.60281976  0.22158996  0.69255102  1
  O  O118  1  0.00343746  0.78495108  0.70622239  1
  O  O119  1  0.50905548  0.80388204  0.70438319  1
  O  O120  1  0.38877456  0.78520020  0.20025641  1
  O  O121  1  0.88799470  0.79341211  0.19941138  1
  O  O122  1  0.00679122  0.22471891  0.20306779  1
  O  O123  1  0.50268529  0.22224570  0.20589184  1
  O  O124  1  0.09932239  0.97633540  0.19321076  1
  O  O125  1  0.59993938  0.97687948  0.19722047  1
  O  O126  1  0.44061436  0.33559885  0.63342324  1
  O  O127  1  0.93897290  0.33227888  0.64001988  1
  O  O128  1  0.23930259  0.12271793  0.63781238  1
  O  O129  1  0.73304047  0.11688431  0.63677880  1
  O  O130  1  0.33296847  0.54872005  0.63143033  1
  O  O131  1  0.82565115  0.54181968  0.62726577  1
  O  O132  1  0.44304832  0.55039585  0.14430254  1
  O  O133  1  0.94296077  0.54383812  0.13757219  1
  O  O134  1  0.32401850  0.10480710  0.12957718  1
  O  O135  1  0.83374548  0.11532561  0.13526659  1
  O  O136  1  0.22939177  0.35025314  0.14296291  1
  O  O137  1  0.73466782  0.35875253  0.14258697  1
  O  O138  1  0.22836282  0.32084331  0.02885659  1
  O  O139  1  0.73111329  0.33003448  0.02812235  1
  O  O140  1  0.43583872  0.54769919  0.02853551  1
  O  O141  1  0.94067299  0.54323632  0.03361820  1
  O  O142  1  0.33680997  0.11088808  0.02707671  1
  O  O143  1  0.84407701  0.12561897  0.03193123  1
  O  O144  1  0.22542207  0.12682704  0.52249481  1
  O  O145  1  0.72595955  0.12626867  0.52244134  1
  O  O146  1  0.34319241  0.56651323  0.52819398  1
  O  O147  1  0.83997241  0.56698465  0.52478082  1
  O  O148  1  0.44192214  0.33616229  0.52964642  1
  O  O149  1  0.94235959  0.32894978  0.52384736  1
  O  O150  1  0.27952771  0.68049540  0.96841090  1
  O  O151  1  0.78730833  0.68924807  0.97364116  1
  O  O152  1  0.06184735  0.42541541  0.96295123  1
  O  O153  1  0.56148267  0.42244688  0.96214145  1
  O  O154  1  0.15620684  0.86954248  0.97805106  1
  O  O155  1  0.66550984  0.87524527  0.97414805  1
  O  O156  1  0.28581429  0.88327702  0.47127556  1
  O  O157  1  0.78041768  0.87573433  0.46489927  1
  O  O158  1  0.16167874  0.46534827  0.46719570  1
  O  O159  1  0.65860051  0.45350333  0.47255748  1
  O  O160  1  0.06348220  0.69774545  0.45912973  1
  O  O161  1  0.56245181  0.69731462  0.46134785  1
  O  O162  1  0.04501314  0.64743279  0.35869673  1
  O  O163  1  0.54950048  0.64778058  0.36049651  1
  O  O164  1  0.27093834  0.90595482  0.37062123  1
  O  O165  1  0.77091321  0.89197108  0.36277630  1
  O  O166  1  0.17444262  0.46129223  0.35475973  1
  O  O167  1  0.67507939  0.46633587  0.35968302  1
  O  O168  1  0.05070459  0.45185512  0.86199209  1
  O  O169  1  0.54534740  0.44185198  0.86172106  1
  O  O170  1  0.17270699  0.87145345  0.86530272  1
  O  O171  1  0.67870425  0.88647780  0.86158841  1
  O  O172  1  0.26933111  0.65066629  0.86605614  1
  O  O173  1  0.77037719  0.63929274  0.87276145  1
  O  O174  1  0.99197223  0.80171152  0.40841168  1
  O  O175  1  0.49167311  0.79749769  0.40766418  1
  O  O176  1  0.40261297  0.98312432  0.41141937  1
  O  O177  1  0.90076292  0.98530012  0.40936986  1
  O  O178  1  0.08562106  0.18257321  0.41771821  1
  O  O179  1  0.58501234  0.17927688  0.41799209  1
  O  O180  1  0.99211242  0.18515054  0.90861906  1
  O  O181  1  0.49192762  0.17844063  0.90931331  1
  O  O182  1  0.08458373  0.99014633  0.91743822  1
  O  O183  1  0.58556400  0.98911870  0.91824500  1
  O  O184  1  0.39874544  0.82169261  0.91263258  1
  O  O185  1  0.90274284  0.82590493  0.91265076  1
  O  O186  1  0.48042159  0.16865837  0.58063865  1
  O  O187  1  0.98505149  0.15071961  0.58204287  1
  O  O188  1  0.09647589  0.01864337  0.58419943  1
  O  O189  1  0.59363741  0.01913703  0.58039875  1
  O  O190  1  0.39982118  0.81111428  0.58295877  1
  O  O191  1  0.89968580  0.80713557  0.58222689  1
  O  O192  1  0.48645900  0.81958237  0.08266310  1
  O  O193  1  0.98042534  0.78850283  0.08377931  1
  O  O194  1  0.39739305  0.98888184  0.08323872  1
  O  O195  1  0.90036346  0.99021062  0.08484973  1
  O  O196  1  0.09268189  0.17156033  0.08199571  1
  O  O197  1  0.59609509  0.17578089  0.08348169  1
  O  O198  1  0.34095192  0.14704679  0.74898116  1
  O  O199  1  0.85209605  0.16280907  0.75400252  1
  O  O200  1  0.24364640  0.32831458  0.74863265  1
  O  O201  1  0.74094586  0.30965289  0.75001175  1
  O  O202  1  0.42123039  0.49870907  0.74785311  1
  O  O203  1  0.93369894  0.52160150  0.75327583  1
  O  O204  1  0.34717078  0.53745818  0.25425185  1
  O  O205  1  0.84767939  0.53985580  0.24929033  1
  O  O206  1  0.43286323  0.34451300  0.25393293  1
  O  O207  1  0.92751904  0.33212225  0.24635790  1
  O  O208  1  0.24099058  0.16400855  0.24980487  1
  O  O209  1  0.74700787  0.16016105  0.24975812  1
  O  O210  1  0.33221749  0.52886366  0.91800350  1
  O  O211  1  0.84301331  0.53835945  0.92437273  1
  O  O212  1  0.42875730  0.33984496  0.92085526  1
  O  O213  1  0.93225022  0.35303483  0.92011661  1
  O  O214  1  0.24884936  0.15188214  0.91815538  1
  O  O215  1  0.74981222  0.15962778  0.91600558  1
  O  O216  1  0.34165162  0.14874089  0.42372760  1
  O  O217  1  0.83107167  0.13691605  0.41672009  1
  O  O218  1  0.25014490  0.34785219  0.41542383  1
  O  O219  1  0.74972174  0.34571682  0.41754485  1
  O  O220  1  0.43182245  0.51037563  0.41947635  1
  O  O221  1  0.92981597  0.51413755  0.41938546  1
  O  O222  1  0.17737853  0.50701085  0.08263863  1
  O  O223  1  0.67891333  0.50866457  0.08311165  1
  O  O224  1  0.06764964  0.67258951  0.08543790  1
  O  O225  1  0.57954233  0.68703082  0.08633065  1
  O  O226  1  0.25312465  0.85976307  0.07930138  1
  O  O227  1  0.75702045  0.87260874  0.08207253  1
  O  O228  1  0.18041063  0.85380517  0.58297056  1
  O  O229  1  0.67673188  0.84901759  0.58132244  1
  O  O230  1  0.25643479  0.64105368  0.58050400  1
  O  O231  1  0.75551904  0.64775766  0.57730529  1
  O  O232  1  0.08023305  0.46955082  0.58739877  1
  O  O233  1  0.56707354  0.45865279  0.58352030  1
  O  O234  1  0.15647077  0.82641293  0.25042978  1
  O  O235  1  0.66428050  0.83429695  0.25302769  1
  O  O236  1  0.26361356  0.65961246  0.25086831  1
  O  O237  1  0.76736652  0.67251080  0.25516201  1
  O  O238  1  0.07191207  0.46902565  0.25547797  1
  O  O239  1  0.57746721  0.47165975  0.25441734  1
  O  O240  1  0.16520563  0.49727336  0.75192401  1
  O  O241  1  0.66229188  0.48636052  0.75033416  1
  O  O242  1  0.07818419  0.68461640  0.75455610  1
  O  O243  1  0.58107880  0.67354224  0.75467040  1
  O  O244  1  0.26514845  0.85502229  0.75487521  1
  O  O245  1  0.76618255  0.87299712  0.75152305  1
