# generated using pymatgen
data_Na6Ca4Sc4SiS11O48
_symmetry_space_group_name_H-M   'P 1'
_cell_length_a   18.12878850
_cell_length_b   9.06743661
_cell_length_c   23.57742868
_cell_angle_alpha   90.00730378
_cell_angle_beta   89.99347957
_cell_angle_gamma   120.11199963
_symmetry_Int_Tables_number   1
_chemical_formula_structural   Na6Ca4Sc4SiS11O48
_chemical_formula_sum   'Na18 Ca12 Sc12 Si3 S33 O144'
_cell_volume   3352.65707174
_cell_formula_units_Z   3
loop_
 _symmetry_equiv_pos_site_id
 _symmetry_equiv_pos_as_xyz
  1  'x, y, z'
loop_
 _atom_site_type_symbol
 _atom_site_label
 _atom_site_symmetry_multiplicity
 _atom_site_fract_x
 _atom_site_fract_y
 _atom_site_fract_z
 _atom_site_occupancy
  Na  Na0  1  0.81764304  0.99517428  0.24853998  1
  Na  Na1  1  0.99632578  0.63434233  0.25414599  1
  Na  Na2  1  0.31697963  0.64368176  0.74775678  1
  Na  Na3  1  0.81569952  0.64264686  0.74618163  1
  Na  Na4  1  0.99628006  0.35854374  0.75066972  1
  Na  Na5  1  0.69121810  0.99961338  0.74852459  1
  Na  Na6  1  0.99981392  0.99944790  0.49840001  1
  Na  Na7  1  0.50239740  0.00148404  0.49640358  1
  Na  Na8  1  0.00284669  0.00300480  0.00155404  1
  Na  Na9  1  0.50079677  0.99947732  0.00084541  1
  Na  Na10  1  0.33438177  0.30748493  0.83579737  1
  Na  Na11  1  0.83392913  0.31840171  0.83757586  1
  Na  Na12  1  0.33470310  0.33520870  0.33223368  1
  Na  Na13  1  0.82672631  0.35057177  0.33564288  1
  Na  Na14  1  0.17631700  0.66853728  0.16584613  1
  Na  Na15  1  0.66354061  0.65203903  0.16884887  1
  Na  Na16  1  0.17538475  0.69525919  0.66414032  1
  Na  Na17  1  0.66972414  0.67230415  0.66214923  1
  Ca  Ca18  1  0.49814932  0.99684660  0.35177527  1
  Ca  Ca19  1  0.83362422  0.32863956  0.68065281  1
  Ca  Ca20  1  0.33187753  0.33126945  0.18006018  1
  Ca  Ca21  1  0.82990767  0.34272577  0.18095950  1
  Ca  Ca22  1  0.33331966  0.33375058  0.98740441  1
  Ca  Ca23  1  0.83269856  0.33311503  0.98626527  1
  Ca  Ca24  1  0.83216195  0.32962995  0.48298526  1
  Ca  Ca25  1  0.16572671  0.66465605  0.51645598  1
  Ca  Ca26  1  0.66884491  0.67033195  0.51679918  1
  Ca  Ca27  1  0.17569549  0.67243369  0.31877091  1
  Ca  Ca28  1  0.17112989  0.68309563  0.81494347  1
  Ca  Ca29  1  0.66444239  0.66305166  0.81595033  1
  Sc  Sc30  1  0.99847257  0.99357150  0.35086726  1
  Sc  Sc31  1  0.99787532  0.00412369  0.85321745  1
  Sc  Sc32  1  0.49225443  0.00603528  0.85204910  1
  Sc  Sc33  1  0.99593180  0.99896219  0.64845470  1
  Sc  Sc34  1  0.49402125  0.99883843  0.64617912  1
  Sc  Sc35  1  0.99298028  0.99027735  0.15090948  1
  Sc  Sc36  1  0.50107759  0.00195815  0.15100145  1
  Sc  Sc37  1  0.33413878  0.31810132  0.68607101  1
  Sc  Sc38  1  0.33414176  0.33539611  0.48266670  1
  Sc  Sc39  1  0.16742805  0.66732505  0.01529312  1
  Sc  Sc40  1  0.66632720  0.66906774  0.01517498  1
  Sc  Sc41  1  0.66599145  0.65566358  0.31431204  1
  Si  Si42  1  0.85232749  0.70700716  0.25244494  1
  Si  Si43  1  0.35507689  0.00326265  0.74780642  1
  Si  Si44  1  0.85496903  0.00103300  0.75091464  1
  S  S45  1  0.14285750  -0.00015538  0.24995215  1
  S  S46  1  0.64571278  0.99178735  0.24979020  1
  S  S47  1  0.35345421  0.70708330  0.24721481  1
  S  S48  1  0.00179567  0.28921212  0.24941123  1
  S  S49  1  0.50145469  0.29626487  0.24968134  1
  S  S50  1  0.14551545  0.28443508  0.74903373  1
  S  S51  1  0.64145064  0.28193838  0.74967745  1
  S  S52  1  0.99952887  0.71528393  0.74997436  1
  S  S53  1  0.49676000  0.71341305  0.74829685  1
  S  S54  1  0.47645893  0.32860336  0.58403620  1
  S  S55  1  0.98685371  0.32984371  0.58641507  1
  S  S56  1  0.18795914  0.04766588  0.58448554  1
  S  S57  1  0.67656620  0.02762816  0.58663696  1
  S  S58  1  0.33579491  0.62181768  0.58624320  1
  S  S59  1  0.83631024  0.64202074  0.58660524  1
  S  S60  1  0.48893786  0.64482939  0.08305844  1
  S  S61  1  0.98988131  0.64344328  0.08384553  1
  S  S62  1  0.33341810  0.02233195  0.08329501  1
  S  S63  1  0.83256361  0.02250622  0.08372136  1
  S  S64  1  0.17759879  0.33405025  0.08256383  1
  S  S65  1  0.67653967  0.33400889  0.08204009  1
  S  S66  1  0.31665858  0.67053428  0.91582140  1
  S  S67  1  0.81697362  0.67163122  0.91578471  1
  S  S68  1  0.02046348  0.36861791  0.91523357  1
  S  S69  1  0.51934445  0.36682951  0.91780335  1
  S  S70  1  0.16337931  0.96245058  0.91817276  1
  S  S71  1  0.66291328  0.96165331  0.91549082  1
  S  S72  1  0.31828612  0.97771332  0.42045207  1
  S  S73  1  0.81606901  0.96244318  0.41153510  1
  S  S74  1  0.16759309  0.35876866  0.41784358  1
  S  S75  1  0.66688263  0.37246412  0.41554276  1
  S  S76  1  0.01619213  0.67116886  0.41364546  1
  S  S77  1  0.51617382  0.65802854  0.41702511  1
  O  O78  1  0.10180130  0.01693541  0.30191834  1
  O  O79  1  0.60883456  0.01766114  0.30086526  1
  O  O80  1  0.39795193  0.78466379  0.30007528  1
  O  O81  1  0.91480022  0.81311303  0.30562763  1
  O  O82  1  0.49187043  0.19926400  0.30097362  1
  O  O83  1  0.99564465  0.19044721  0.30087678  1
  O  O84  1  0.10849068  0.18354344  0.80130843  1
  O  O85  1  0.59998014  0.17859199  0.80133904  1
  O  O86  1  0.48493585  0.79319505  0.80007463  1
  O  O87  1  0.99534108  0.80438359  0.80157300  1
  O  O88  1  0.41084442  0.02390948  0.80618791  1
  O  O89  1  0.91584174  0.01869868  0.80624155  1
  O  O90  1  0.40685242  0.98327666  0.69396679  1
  O  O91  1  0.90620026  0.98448058  0.69568889  1
  O  O92  1  0.09414109  0.19727564  0.69854435  1
  O  O93  1  0.59363532  0.19624302  0.69785208  1
  O  O94  1  0.01022216  0.81568360  0.69816071  1
  O  O95  1  0.51022942  0.82019953  0.69763609  1
  O  O96  1  0.40317448  0.81563015  0.19725578  1
  O  O97  1  0.89689959  0.82880563  0.19562124  1
  O  O98  1  0.01146103  0.20720540  0.19773347  1
  O  O99  1  0.51174393  0.20848525  0.19845545  1
  O  O100  1  0.09060064  0.98560839  0.19904353  1
  O  O101  1  0.59473292  0.97851507  0.19819305  1
  O  O102  1  0.43230148  0.34375117  0.63532091  1
  O  O103  1  0.94872140  0.34800999  0.63992347  1
  O  O104  1  0.24015001  0.13600396  0.63590543  1
  O  O105  1  0.72430052  0.10396812  0.64011915  1
  O  O106  1  0.32873315  0.52340360  0.63879633  1
  O  O107  1  0.82779961  0.54942744  0.64049746  1
  O  O108  1  0.45187248  0.53737173  0.13342274  1
  O  O109  1  0.95532140  0.54315162  0.13653823  1
  O  O110  1  0.31648078  0.09550922  0.13379255  1
  O  O111  1  0.81835396  0.09184900  0.13676486  1
  O  O112  1  0.23090679  0.36742864  0.13337253  1
  O  O113  1  0.72895620  0.36749135  0.13319279  1
  O  O114  1  0.21628835  0.30468145  0.03223385  1
  O  O115  1  0.71442751  0.30146317  0.03218954  1
  O  O116  1  0.43573132  0.57100374  0.03247618  1
  O  O117  1  0.93395138  0.56108860  0.03510439  1
  O  O118  1  0.34957133  0.12870351  0.03283122  1
  O  O119  1  0.84522929  0.13292733  0.03499930  1
  O  O120  1  0.23088039  0.15052395  0.53318457  1
  O  O121  1  0.72017119  0.13419506  0.53700015  1
  O  O122  1  0.34373743  0.53268398  0.53549035  1
  O  O123  1  0.84410959  0.55182287  0.53745066  1
  O  O124  1  0.42509029  0.31110093  0.53278917  1
  O  O125  1  0.93291649  0.30794199  0.53701058  1
  O  O126  1  0.26943336  0.68873769  0.96495626  1
  O  O127  1  0.76935230  0.68852866  0.96485905  1
  O  O128  1  0.07574379  0.46515431  0.96439395  1
  O  O129  1  0.57358359  0.46005613  0.96787543  1
  O  O130  1  0.15521279  0.85290254  0.96824580  1
  O  O131  1  0.65557185  0.84939221  0.96457871  1
  O  O132  1  0.27474831  0.87024256  0.46962546  1
  O  O133  1  0.77904883  0.86467785  0.46351706  1
  O  O134  1  0.15349101  0.43695299  0.46792932  1
  O  O135  1  0.66043083  0.45314687  0.46765857  1
  O  O136  1  0.06786081  0.68912725  0.46391463  1
  O  O137  1  0.56591675  0.67857432  0.46826729  1
  O  O138  1  0.05644660  0.65419642  0.36087798  1
  O  O139  1  0.55835742  0.63774348  0.36560417  1
  O  O140  1  0.26944714  0.90654780  0.36754007  1
  O  O141  1  0.76232087  0.87002586  0.36078459  1
  O  O142  1  0.18336026  0.46263254  0.36628264  1
  O  O143  1  0.67133937  0.47723407  0.36453839  1
  O  O144  1  0.05706198  0.45933519  0.86140084  1
  O  O145  1  0.55724734  0.46144949  0.86545689  1
  O  O146  1  0.17329436  0.88699386  0.86579125  1
  O  O147  1  0.67283747  0.88900394  0.86176008  1
  O  O148  1  0.27029417  0.64989086  0.86228819  1
  O  O149  1  0.77096205  0.65183169  0.86211736  1
  O  O150  1  0.00924178  0.82990858  0.41081674  1
  O  O151  1  0.50400740  0.80679443  0.41232562  1
  O  O152  1  0.40457502  -0.00014964  0.41719693  1
  O  O153  1  0.90356955  0.98513199  0.40577594  1
  O  O154  1  0.09160000  0.18520363  0.41078039  1
  O  O155  1  0.59087973  0.20097038  0.41202654  1
  O  O156  1  0.01620730  0.19842964  0.91441924  1
  O  O157  1  0.51514633  0.19653117  0.91576572  1
  O  O158  1  0.08357001  0.97286401  0.91564680  1
  O  O159  1  0.58346035  0.97222993  0.91397240  1
  O  O160  1  0.40231423  0.83116517  0.91388440  1
  O  O161  1  0.90297423  0.83118387  0.91407546  1
  O  O162  1  0.48342654  0.17129642  0.58773970  1
  O  O163  1  0.99573791  0.17357791  0.58977097  1
  O  O164  1  0.10289791  0.03310625  0.58926852  1
  O  O165  1  0.59076330  0.01390841  0.58989976  1
  O  O166  1  0.41525059  0.79262084  0.58843517  1
  O  O167  1  0.91667748  0.81449666  0.58849173  1
  O  O168  1  0.50028665  0.81951153  0.09161590  1
  O  O169  1  0.00082306  0.81777118  0.09034673  1
  O  O170  1  0.40969903  0.00114673  0.09217581  1
  O  O171  1  0.90993686  0.00379493  0.08819659  1
  O  O172  1  0.09079048  0.18299103  0.09032207  1
  O  O173  1  0.58963805  0.18064406  0.09065569  1
  O  O174  1  0.34521964  0.17420718  0.74276571  1
  O  O175  1  0.84682954  0.17302866  0.75149982  1
  O  O176  1  0.23498717  0.31889070  0.74297450  1
  O  O177  1  0.72851382  0.30098720  0.74793632  1
  O  O178  1  0.41674945  0.54370336  0.74229577  1
  O  O179  1  0.91728480  0.54857902  0.74791635  1
  O  O180  1  0.34422474  0.53606522  0.24253874  1
  O  O181  1  0.84993940  0.52612674  0.24924795  1
  O  O182  1  0.42635855  0.31783044  0.24315239  1
  O  O183  1  0.92061721  0.29429726  0.24572989  1
  O  O184  1  0.22930476  0.14894816  0.24627675  1
  O  O185  1  0.73483666  0.13582057  0.24349346  1
  O  O186  1  0.32797047  0.52198281  0.92285583  1
  O  O187  1  0.82779982  0.52203189  0.92254628  1
  O  O188  1  0.43288365  0.34204645  0.92361465  1
  O  O189  1  0.93417940  0.34457757  0.92167486  1
  O  O190  1  0.23869495  0.13446289  0.92394121  1
  O  O191  1  0.73893777  0.13263941  0.92204668  1
  O  O192  1  0.32623936  0.15073910  0.42758809  1
  O  O193  1  0.82339095  0.13238989  0.41326158  1
  O  O194  1  0.24521633  0.34015056  0.42599866  1
  O  O195  1  0.74572163  0.36104140  0.41488429  1
  O  O196  1  0.42918317  0.49909189  0.42195238  1
  O  O197  1  0.92966729  0.51968127  0.41767894  1
  O  O198  1  0.16853014  0.48976922  0.07359168  1
  O  O199  1  0.66587774  0.48648058  0.07295440  1
  O  O200  1  0.07619842  0.66257464  0.07402776  1
  O  O201  1  0.57623054  0.66635310  0.07390981  1
  O  O202  1  0.25679007  0.84749939  0.07436647  1
  O  O203  1  0.75609326  0.84815979  0.07433745  1
  O  O204  1  0.17969297  0.87752185  0.58196882  1
  O  O205  1  0.66581110  0.85525049  0.58264907  1
  O  O206  1  0.26007587  0.64086862  0.58252847  1
  O  O207  1  0.76137428  0.66547647  0.58298567  1
  O  O208  1  0.07255163  0.48221394  0.58213212  1
  O  O209  1  0.56158578  0.48054913  0.58174371  1
  O  O210  1  0.14472190  0.83682438  0.25213785  1
  O  O211  1  0.65062399  0.83100253  0.25337206  1
  O  O212  1  0.26863742  0.69609664  0.24551211  1
  O  O213  1  0.75866877  0.69613791  0.25931434  1
  O  O214  1  0.07467684  0.46642867  0.25257518  1
  O  O215  1  0.58112515  0.46853397  0.25251865  1
  O  O216  1  0.14892073  0.45231999  0.75270458  1
  O  O217  1  0.65194761  0.45439019  0.75243819  1
  O  O218  1  0.07027686  0.67827978  0.75220034  1
  O  O219  1  0.57246060  0.69333671  0.75286816  1
  O  O220  1  0.26417646  0.82535989  0.74755610  1
  O  O221  1  0.76019003  0.83011874  0.75027744  1
