# generated using pymatgen
data_Na2Mg2Zr2SiS5O24
_symmetry_space_group_name_H-M   'P 1'
_cell_length_a   8.83326696
_cell_length_b   8.82538780
_cell_length_c   23.28614020
_cell_angle_alpha   90.00674754
_cell_angle_beta   90.01290764
_cell_angle_gamma   119.95950210
_symmetry_Int_Tables_number   1
_chemical_formula_structural   Na2Mg2Zr2SiS5O24
_chemical_formula_sum   'Na6 Mg6 Zr6 Si3 S15 O72'
_cell_volume   1572.75238058
_cell_formula_units_Z   3
loop_
 _symmetry_equiv_pos_site_id
 _symmetry_equiv_pos_as_xyz
  1  'x, y, z'
loop_
 _atom_site_type_symbol
 _atom_site_label
 _atom_site_symmetry_multiplicity
 _atom_site_fract_x
 _atom_site_fract_y
 _atom_site_fract_z
 _atom_site_occupancy
  Na  Na0  1  0.00455932  0.00225063  0.49671788  1
  Na  Na1  1  0.99797875  0.99189989  0.99536302  1
  Na  Na2  1  0.66912913  0.31820318  0.82053493  1
  Na  Na3  1  0.65191880  0.32294199  0.34071034  1
  Na  Na4  1  0.31783800  0.67282819  0.16196545  1
  Na  Na5  1  0.34147368  0.67517997  0.65984519  1
  Mg  Mg6  1  0.01392281  0.00623564  0.35466126  1
  Mg  Mg7  1  0.99624461  0.00323426  0.84770436  1
  Mg  Mg8  1  0.66524758  0.32168412  0.68313950  1
  Mg  Mg9  1  0.66297952  0.33135904  0.48453283  1
  Mg  Mg10  1  0.32387977  0.66681903  0.01804482  1
  Mg  Mg11  1  0.33403120  0.66696253  0.51823198  1
  Zr  Zr12  1  0.98622727  0.99644552  0.64702191  1
  Zr  Zr13  1  0.00890953  0.98700067  0.14729507  1
  Zr  Zr14  1  0.67095581  0.33358811  0.18712115  1
  Zr  Zr15  1  0.67671800  0.34451576  0.97920748  1
  Zr  Zr16  1  0.33052197  0.67484511  0.31749635  1
  Zr  Zr17  1  0.34265725  0.67625445  0.80959775  1
  Si  Si18  1  0.29289020  0.00153223  0.25448518  1
  Si  Si19  1  0.71551468  0.01737379  0.75329932  1
  Si  Si20  1  0.97142411  0.62769231  0.08327656  1
  S  S21  1  0.71006660  0.71178815  0.25268571  1
  S  S22  1  0.00130889  0.28645046  0.25209194  1
  S  S23  1  0.29304747  0.28705719  0.75126828  1
  S  S24  1  0.99311225  0.70689110  0.75133083  1
  S  S25  1  0.95983960  0.34110864  0.58200015  1
  S  S26  1  0.37804596  0.04070869  0.58223732  1
  S  S27  1  0.66083342  0.61638007  0.58269971  1
  S  S28  1  0.66375451  0.03766224  0.08216161  1
  S  S29  1  0.37634814  0.33965180  0.08208809  1
  S  S30  1  0.62493128  0.67257462  0.91851480  1
  S  S31  1  0.04786672  0.37114480  0.91783174  1
  S  S32  1  0.32665486  0.95611025  0.91757750  1
  S  S33  1  0.63150989  0.96313361  0.41913737  1
  S  S34  1  0.33352099  0.37408990  0.41903847  1
  S  S35  1  0.03482048  0.66489757  0.42009660  1
  O  O36  1  0.20262788  0.02896528  0.30807958  1
  O  O37  1  0.81389987  0.79381006  0.30310473  1
  O  O38  1  0.97273565  0.18118649  0.30281611  1
  O  O39  1  0.21527646  0.18282178  0.80294731  1
  O  O40  1  0.97868606  0.79151675  0.80323856  1
  O  O41  1  0.82212561  0.02865466  0.80940645  1
  O  O42  1  0.80050630  0.97564582  0.69498008  1
  O  O43  1  0.18311851  0.20608899  0.69907310  1
  O  O44  1  0.03036255  0.81924474  0.69898403  1
  O  O45  1  0.78625205  0.81580533  0.19875783  1
  O  O46  1  0.02088221  0.20755472  0.19820240  1
  O  O47  1  0.17872344  0.96987987  0.19381780  1
  O  O48  1  0.87955711  0.36141319  0.63432014  1
  O  O49  1  0.48023262  0.12236072  0.63428643  1
  O  O50  1  0.64316415  0.51742097  0.63530488  1
  O  O51  1  0.86475997  0.50963774  0.13905697  1
  O  O52  1  0.63719039  0.11982580  0.13435094  1
  O  O53  1  0.47925123  0.35491075  0.13443641  1
  O  O54  1  0.45531576  0.30410338  0.03083115  1
  O  O55  1  0.84139160  0.53046544  0.02730538  1
  O  O56  1  0.68595741  0.14854531  0.03093143  1
  O  O57  1  0.45575862  0.14674300  0.53037743  1
  O  O58  1  0.68887098  0.53923870  0.53086589  1
  O  O59  1  0.85266236  0.30924860  0.53038850  1
  O  O60  1  0.53876222  0.68918850  0.96972777  1
  O  O61  1  0.14886020  0.45823962  0.96930467  1
  O  O62  1  0.30818336  0.85210533  0.96867062  1
  O  O63  1  0.54468483  0.85236316  0.46879590  1
  O  O64  1  0.31417277  0.46379865  0.46894574  1
  O  O65  1  0.14760360  0.68915589  0.46922343  1
  O  O66  1  0.12220406  0.64282537  0.36588683  1
  O  O67  1  0.51956874  0.87626474  0.36534124  1
  O  O68  1  0.35526589  0.48098251  0.36512592  1
  O  O69  1  0.12355169  0.47904561  0.86567804  1
  O  O70  1  0.35489392  0.87423204  0.86523548  1
  O  O71  1  0.51705520  0.64581190  0.86612600  1
  O  O72  1  0.01681754  0.82085204  0.41221480  1
  O  O73  1  0.80339029  0.97753585  0.40952828  1
  O  O74  1  0.17351761  0.20130429  0.41293150  1
  O  O75  1  0.02748460  0.19642410  0.91281112  1
  O  O76  1  0.17304387  0.97668518  0.90981699  1
  O  O77  1  0.80236757  0.82075256  0.91258144  1
  O  O78  1  0.98167852  0.17930751  0.58848676  1
  O  O79  1  0.19792667  0.02095684  0.58906565  1
  O  O80  1  0.82589595  0.79812273  0.58791505  1
  O  O81  1  0.97320851  0.81654562  0.08591542  1
  O  O82  1  0.82744316  0.03201624  0.08872968  1
  O  O83  1  0.19787135  0.18353704  0.08811424  1
  O  O84  1  0.68220927  0.17687292  0.74357795  1
  O  O85  1  0.46989159  0.31846814  0.74245672  1
  O  O86  1  0.83875276  0.53587509  0.74260146  1
  O  O87  1  0.69137050  0.53494294  0.24460712  1
  O  O88  1  0.84673319  0.31258741  0.24530569  1
  O  O89  1  0.48845223  0.16940818  0.24245956  1
  O  O90  1  0.63482280  0.50504933  0.92204078  1
  O  O91  1  0.86553081  0.35054891  0.92328391  1
  O  O92  1  0.48819131  0.13335650  0.92278932  1
  O  O93  1  0.64499400  0.13643081  0.42281431  1
  O  O94  1  0.49182028  0.35693895  0.42269508  1
  O  O95  1  0.86268876  0.50388084  0.42346643  1
  O  O96  1  0.36660621  0.49805814  0.07501250  1
  O  O97  1  0.15973940  0.64834532  0.07848546  1
  O  O98  1  0.51284343  0.86379321  0.07519808  1
  O  O99  1  0.35587844  0.86284178  0.57593144  1
  O  O100  1  0.50975007  0.64481826  0.57677409  1
  O  O101  1  0.13792560  0.49403988  0.57565975  1
  O  O102  1  0.31469772  0.82533296  0.25705362  1
  O  O103  1  0.53027029  0.68560203  0.25695966  1
  O  O104  1  0.15974737  0.46376923  0.25701224  1
  O  O105  1  0.30151412  0.46243477  0.75757203  1
  O  O106  1  0.15257090  0.68510494  0.75695825  1
  O  O107  1  0.51755502  0.82986252  0.75623597  1
