# generated using pymatgen
data_MgV2(OF3)2
_symmetry_space_group_name_H-M   'P 1'
_cell_length_a   5.60534030
_cell_length_b   5.78657990
_cell_length_c   5.09385224
_cell_angle_alpha   90.00215808
_cell_angle_beta   89.93369272
_cell_angle_gamma   116.69375817
_symmetry_Int_Tables_number   1
_chemical_formula_structural   MgV2(OF3)2
_chemical_formula_sum   'Mg1 V2 O2 F6'
_cell_volume   147.61339155
_cell_formula_units_Z   1
loop_
 _symmetry_equiv_pos_site_id
 _symmetry_equiv_pos_as_xyz
  1  'x, y, z'
loop_
 _atom_site_type_symbol
 _atom_site_label
 _atom_site_symmetry_multiplicity
 _atom_site_fract_x
 _atom_site_fract_y
 _atom_site_fract_z
 _atom_site_occupancy
  Mg  Mg0  1  0.91673600  0.35565100  0.75667300  1
  V  V1  1  0.37046300  0.33075500  0.26457600  1
  V  V2  1  0.60041000  0.64469300  0.74899400  1
  O  O3  1  0.30160100  0.49872400  0.93471600  1
  O  O4  1  0.53629300  0.32360400  0.55443700  1
  F  F5  1  0.24118400  0.02265400  0.10951100  1
  F  F6  1  0.49548200  0.71953400  0.42048700  1
  F  F7  1  0.74215400  0.99610800  0.86809500  1
  F  F8  1  0.71568700  0.46073900  0.05174200  1
  F  F9  1  0.95918900  0.71232800  0.66711400  1
  F  F10  1  0.03764700  0.26872200  0.42365500  1
