# generated using pymatgen
data_GaSnP(SO6)2
_symmetry_space_group_name_H-M   'P 1'
_cell_length_a   8.63051476
_cell_length_b   8.62342834
_cell_length_c   22.40370121
_cell_angle_alpha   90.17856655
_cell_angle_beta   90.00000000
_cell_angle_gamma   120.02718746
_symmetry_Int_Tables_number   1
_chemical_formula_structural   GaSnP(SO6)2
_chemical_formula_sum   'Ga6 Sn6 P6 S12 O72'
_cell_volume   1443.59445162
_cell_formula_units_Z   6
loop_
 _symmetry_equiv_pos_site_id
 _symmetry_equiv_pos_as_xyz
  1  'x, y, z'
loop_
 _atom_site_type_symbol
 _atom_site_label
 _atom_site_symmetry_multiplicity
 _atom_site_fract_x
 _atom_site_fract_y
 _atom_site_fract_z
 _atom_site_occupancy
  Ga  Ga0  1  -0.00021394  0.99945682  0.35406311  1
  Ga  Ga1  1  0.99967076  0.99945682  0.85406311  1
  Ga  Ga2  1  0.68509511  0.34498100  0.68771221  1
  Ga  Ga3  1  0.65988688  0.34498100  0.18771221  1
  Ga  Ga4  1  0.32676609  0.64775146  0.02065213  1
  Ga  Ga5  1  0.32098438  0.64775146  0.52065213  1
  Sn  Sn6  1  0.00092216  0.00145089  0.64642545  1
  Sn  Sn7  1  0.00052873  0.00145089  0.14642545  1
  Sn  Sn8  1  0.66630092  0.33246900  0.97978423  1
  Sn  Sn9  1  0.66616908  0.33246900  0.47978423  1
  Sn  Sn10  1  0.34037195  0.66285863  0.31300670  1
  Sn  Sn11  1  0.32248568  0.66285863  0.81300670  1
  P  P12  1  0.71769069  0.71160980  0.25130251  1
  P  P13  1  0.99391911  0.71160980  0.75130251  1
  P  P14  1  0.95822234  0.33729060  0.58409334  1
  P  P15  1  0.37906926  0.33729060  0.08409334  1
  P  P16  1  0.04308883  0.36935701  0.91757205  1
  P  P17  1  0.32626717  0.36935701  0.41757205  1
  S  S18  1  0.29433447  0.00322826  0.25131054  1
  S  S19  1  0.99265180  0.28938948  0.25061948  1
  S  S20  1  0.29673768  0.28938948  0.75061948  1
  S  S21  1  0.70889380  0.00322826  0.75131054  1
  S  S22  1  0.37938619  0.03910549  0.58452928  1
  S  S23  1  0.66119341  0.62217343  0.58424624  1
  S  S24  1  0.96098102  0.62217343  0.08424624  1
  S  S25  1  0.65972030  0.03910549  0.08452928  1
  S  S26  1  0.62551612  0.67229523  0.91701458  1
  S  S27  1  0.32859562  0.95376605  0.91820661  1
  S  S28  1  0.62516943  0.95376605  0.41820661  1
  S  S29  1  0.04677811  0.67229523  0.41701458  1
  O  O30  1  0.21286183  0.03535328  0.30392885  1
  O  O31  1  0.83463044  0.80099656  0.30656737  1
  O  O32  1  0.96509891  0.17863350  0.30366768  1
  O  O33  1  0.21353459  0.17863350  0.80366768  1
  O  O34  1  0.96636612  0.80099656  0.80656737  1
  O  O35  1  0.82249145  0.03535328  0.80392885  1
  O  O36  1  0.78153059  0.96338668  0.69636085  1
  O  O37  1  0.18118742  0.21814488  0.69623268  1
  O  O38  1  0.03567845  0.82787961  0.69398704  1
  O  O39  1  0.79220117  0.82787961  0.19398704  1
  O  O40  1  0.03695746  0.21814488  0.19623268  1
  O  O41  1  0.18185609  0.96338668  0.19636085  1
  O  O42  1  0.87086033  0.36689509  0.63897891  1
  O  O43  1  0.49005057  0.12438346  0.63781246  1
  O  O44  1  0.62903508  0.50875091  0.63703736  1
  O  O45  1  0.87971683  0.50875091  0.13703736  1
  O  O46  1  0.63433388  0.12438346  0.13781246  1
  O  O47  1  0.49603575  0.36689509  0.13897891  1
  O  O48  1  0.45467859  0.29498102  0.02703526  1
  O  O49  1  0.84785563  0.54949513  0.02952519  1
  O  O50  1  0.70215314  0.15295008  0.02980019  1
  O  O51  1  0.45079794  0.15295008  0.52980019  1
  O  O52  1  0.70164050  0.54949513  0.52952519  1
  O  O53  1  0.84030344  0.29498102  0.52703526  1
  O  O54  1  0.54420273  0.70334775  0.97027043  1
  O  O55  1  0.16086300  0.45813951  0.97227637  1
  O  O56  1  0.30223611  0.84252459  0.97129655  1
  O  O57  1  0.54028748  0.84252459  0.47129655  1
  O  O58  1  0.29727551  0.45813951  0.47227637  1
  O  O59  1  0.15914401  0.70334775  0.47027043  1
  O  O60  1  0.12125391  0.63392051  0.36208167  1
  O  O61  1  0.51151410  0.88307448  0.36321688  1
  O  O62  1  0.37105988  0.48866047  0.36120114  1
  O  O63  1  0.11759959  0.48866047  0.86120114  1
  O  O64  1  0.37155938  0.88307448  0.86321688  1
  O  O65  1  0.51266560  0.63392051  0.86208167  1
  O  O66  1  0.02732802  0.83033071  0.40892507  1
  O  O67  1  0.80189586  0.97189081  0.40930456  1
  O  O68  1  0.16088584  0.18529386  0.40616320  1
  O  O69  1  0.02440801  0.18529386  0.90616320  1
  O  O70  1  0.16999495  0.97189081  0.90930456  1
  O  O71  1  0.80300269  0.83033071  0.90892507  1
  O  O72  1  0.97673575  0.16771230  0.59123198  1
  O  O73  1  0.19861859  0.02219238  0.58986205  1
  O  O74  1  0.82501497  0.80155758  0.59017446  1
  O  O75  1  0.97654261  0.80155758  0.09017446  1
  O  O76  1  0.82357379  0.02219238  0.08986205  1
  O  O77  1  0.19097655  0.16771230  0.09123198  1
  O  O78  1  0.68734817  0.16029648  0.74223475  1
  O  O79  1  0.47253085  0.30516151  0.74055114  1
  O  O80  1  0.82820308  0.52669527  0.74234122  1
  O  O81  1  0.69849319  0.52669527  0.24234122  1
  O  O82  1  0.83263166  0.30516151  0.24055114  1
  O  O83  1  0.47294931  0.16029648  0.24223475  1
  O  O84  1  0.64150689  0.50832775  0.92301312  1
  O  O85  1  0.85599707  0.35337168  0.92501740  1
  O  O86  1  0.49163748  0.13465999  0.92319398  1
  O  O87  1  0.64302350  0.13465999  0.42319398  1
  O  O88  1  0.49737561  0.35337168  0.42501740  1
  O  O89  1  0.86682186  0.50832775  0.42301312  1
  O  O90  1  0.36222574  0.50403704  0.07522364  1
  O  O91  1  0.13970280  0.64396690  0.07531919  1
  O  O92  1  0.50033641  0.86249850  0.07450152  1
  O  O93  1  0.36216109  0.86249850  0.57450152  1
  O  O94  1  0.50426310  0.64396690  0.57531919  1
  O  O95  1  0.14181030  0.50403704  0.57522364  1
  O  O96  1  0.30820927  0.83820529  0.25813337  1
  O  O97  1  0.52969259  0.69412809  0.25631257  1
  O  O98  1  0.15475881  0.47097323  0.25668145  1
  O  O99  1  0.31621342  0.47097323  0.75668145  1
  O  O100  1  0.16443450  0.69412809  0.75631257  1
  O  O101  1  0.52999501  0.83820529  0.75813337  1
