# generated using pymatgen
data_Na5La2Zn2P3(SO8)3
_symmetry_space_group_name_H-M   'P 1'
_cell_length_a   9.39926999
_cell_length_b   9.34435371
_cell_length_c   23.64490542
_cell_angle_alpha   89.21440752
_cell_angle_beta   90.23180359
_cell_angle_gamma   119.99058097
_symmetry_Int_Tables_number   1
_chemical_formula_structural   Na5La2Zn2P3(SO8)3
_chemical_formula_sum   'Na15 La6 Zn6 P9 S9 O72'
_cell_volume   1798.49697847
_cell_formula_units_Z   3
loop_
 _symmetry_equiv_pos_site_id
 _symmetry_equiv_pos_as_xyz
  1  'x, y, z'
loop_
 _atom_site_type_symbol
 _atom_site_label
 _atom_site_symmetry_multiplicity
 _atom_site_fract_x
 _atom_site_fract_y
 _atom_site_fract_z
 _atom_site_occupancy
  Na  Na0  1  0.63647007  0.02135329  0.25217677  1
  Na  Na1  1  0.99688314  0.63056015  0.24134485  1
  Na  Na2  1  0.62785726  0.62386264  0.74247399  1
  Na  Na3  1  0.99030111  0.34884741  0.74401568  1
  Na  Na4  1  0.30268312  0.35296223  0.58523716  1
  Na  Na5  1  0.66492587  0.96365917  0.57694616  1
  Na  Na6  1  0.29808571  0.95253198  0.07935675  1
  Na  Na7  1  0.69530238  0.02659873  0.90954910  1
  Na  Na8  1  0.96126762  0.28051922  0.41276393  1
  Na  Na9  1  0.97850352  0.96633446  0.48887648  1
  Na  Na10  1  0.00806772  0.98438300  0.98893835  1
  Na  Na11  1  0.62876095  0.30524541  0.82244067  1
  Na  Na12  1  0.63544245  0.31286430  0.32447000  1
  Na  Na13  1  0.31422356  0.63352060  0.15611105  1
  Na  Na14  1  0.32534447  0.66665758  0.65674768  1
  La  La15  1  0.99992105  0.99875429  0.65201208  1
  La  La16  1  0.00325638  0.00939192  0.14995403  1
  La  La17  1  0.67425443  0.35157387  0.98375967  1
  La  La18  1  0.67220368  0.34078179  0.48349903  1
  La  La19  1  0.34015931  0.67297916  0.31923979  1
  La  La20  1  0.33487130  0.67692307  0.81838533  1
  Zn  Zn21  1  0.01037857  0.01515866  0.34036458  1
  Zn  Zn22  1  0.04647366  0.01773028  0.84690109  1
  Zn  Zn23  1  0.66134155  0.32673329  0.67826255  1
  Zn  Zn24  1  0.67977306  0.33822890  0.18058985  1
  Zn  Zn25  1  0.28232753  0.65910076  0.01217073  1
  Zn  Zn26  1  0.35000523  0.67146545  0.51354684  1
  P  P27  1  0.30698899  0.01570198  0.24987821  1
  P  P28  1  0.98310768  0.29822518  0.25322406  1
  P  P29  1  0.31279821  0.30102805  0.74870179  1
  P  P30  1  0.70930641  0.01558182  0.75256566  1
  P  P31  1  0.97903095  0.35032444  0.58484523  1
  P  P32  1  0.64974519  0.62810700  0.58660364  1
  P  P33  1  0.97941397  0.63037594  0.08814229  1
  P  P34  1  0.32233541  0.96612860  0.92133949  1
  P  P35  1  0.65047328  0.96475265  0.41850600  1
  S  S36  1  0.70993709  0.69554812  0.25227148  1
  S  S37  1  0.98186366  0.68691278  0.75328713  1
  S  S38  1  0.37564892  0.02809361  0.58527137  1
  S  S39  1  0.64882046  0.02289250  0.08408770  1
  S  S40  1  0.37814202  0.35071880  0.08529091  1
  S  S41  1  0.64091779  0.68684049  0.91701163  1
  S  S42  1  0.03630115  0.35202929  0.91763227  1
  S  S43  1  0.31508956  0.35313884  0.42014052  1
  S  S44  1  0.04409652  0.68274573  0.41725842  1
  O  O45  1  0.20761297  0.02392212  0.30046291  1
  O  O46  1  0.81343229  0.78263746  0.30171555  1
  O  O47  1  0.96635403  0.19486184  0.30788361  1
  O  O48  1  0.21783043  0.18970353  0.79960210  1
  O  O49  1  0.97621332  0.78101020  0.80196580  1
  O  O50  1  0.81595207  0.03075355  0.80481210  1
  O  O51  1  0.78574591  0.99006256  0.69785822  1
  O  O52  1  0.21763120  0.23170469  0.69261353  1
  O  O53  1  0.00876297  0.78045542  0.69973151  1
  O  O54  1  0.78210138  0.79368822  0.19977347  1
  O  O55  1  0.00155553  0.21250286  0.20117329  1
  O  O56  1  0.20864478  0.98481800  0.19419398  1
  O  O57  1  0.88804496  0.35827385  0.63844875  1
  O  O58  1  0.47887619  0.11416420  0.63507542  1
  O  O59  1  0.63540610  0.52619224  0.64117202  1
  O  O60  1  0.89184490  0.53468678  0.14341234  1
  O  O61  1  0.63827351  0.11316736  0.13450980  1
  O  O62  1  0.47630015  0.36026039  0.13579260  1
  O  O63  1  0.45246992  0.32583156  0.03361556  1
  O  O64  1  0.87825607  0.54504839  0.03551129  1
  O  O65  1  0.66700599  0.11953829  0.03136124  1
  O  O66  1  0.44829268  0.12630927  0.53303970  1
  O  O67  1  0.66469604  0.54166332  0.53418727  1
  O  O68  1  0.87285414  0.32076513  0.53122461  1
  O  O69  1  0.54118352  0.69051700  0.96429033  1
  O  O70  1  0.13952029  0.44826590  0.96580048  1
  O  O71  1  0.30429277  0.86499107  0.97668298  1
  O  O72  1  0.55265683  0.86271065  0.47199001  1
  O  O73  1  0.30442238  0.44022915  0.47123860  1
  O  O74  1  0.14646384  0.68948528  0.46602723  1
  O  O75  1  0.11296921  0.66074433  0.36339998  1
  O  O76  1  0.55457155  0.88817190  0.36317051  1
  O  O77  1  0.33280953  0.45191118  0.36848856  1
  O  O78  1  0.10442784  0.44040951  0.86318714  1
  O  O79  1  0.34966641  0.88238911  0.86979098  1
  O  O80  1  0.55374684  0.66739432  0.86202570  1
  O  O81  1  0.02536313  0.83005214  0.41364448  1
  O  O82  1  0.82396488  0.98269850  0.41552614  1
  O  O83  1  0.15855798  0.19181336  0.41649661  1
  O  O84  1  0.01888499  0.18506970  0.91718337  1
  O  O85  1  0.16618855  0.98087889  0.91351197  1
  O  O86  1  0.80169289  0.84414520  0.91509216  1
  O  O87  1  0.00144340  0.19340789  0.58798435  1
  O  O88  1  0.20919318  0.00866273  0.58963977  1
  O  O89  1  0.79694229  0.80900926  0.58728233  1
  O  O90  1  0.01178018  0.81170160  0.08789820  1
  O  O91  1  0.79302219  0.99895052  0.08707333  1
  O  O92  1  0.21132952  0.19696830  0.08786432  1
  O  O93  1  0.70094207  0.17781099  0.74585151  1
  O  O94  1  0.48949384  0.32821487  0.74549322  1
  O  O95  1  0.82531605  0.52587185  0.75068557  1
  O  O96  1  0.69901028  0.53128109  0.24795980  1
  O  O97  1  0.82045721  0.30707601  0.24796275  1
  O  O98  1  0.48372830  0.16780683  0.24524295  1
  O  O99  1  0.66945480  0.54390137  0.92003869  1
  O  O100  1  0.86534752  0.32670707  0.92206448  1
  O  O101  1  0.48423352  0.13693575  0.92399346  1
  O  O102  1  0.67745456  0.14508313  0.42054789  1
  O  O103  1  0.45834321  0.32803110  0.42189752  1
  O  O104  1  0.87808410  0.52851685  0.42080644  1
  O  O105  1  0.35971718  0.49808670  0.07944191  1
  O  O106  1  0.15372586  0.64574955  0.08320061  1
  O  O107  1  0.49360705  0.86105173  0.08183926  1
  O  O108  1  0.36644082  0.86452174  0.58116515  1
  O  O109  1  0.48860229  0.64056799  0.58184432  1
  O  O110  1  0.15448972  0.50328446  0.57832653  1
  O  O111  1  0.33063222  0.85999419  0.25583447  1
  O  O112  1  0.54277624  0.67624669  0.25631814  1
  O  O113  1  0.12992156  0.47847377  0.25532625  1
  O  O114  1  0.32624173  0.47549134  0.75454986  1
  O  O115  1  0.11950181  0.64897012  0.75669046  1
  O  O116  1  0.53559144  0.85729162  0.75563358  1
