# generated using pymatgen
data_MgNb4VO12
_symmetry_space_group_name_H-M   'P 1'
_cell_length_a   5.73413889
_cell_length_b   11.33576586
_cell_length_c   9.99130206
_cell_angle_alpha   27.84099967
_cell_angle_beta   49.83865192
_cell_angle_gamma   55.25258651
_symmetry_Int_Tables_number   1
_chemical_formula_structural   MgNb4VO12
_chemical_formula_sum   'Mg1 Nb4 V1 O12'
_cell_volume   231.79326521
_cell_formula_units_Z   1
loop_
 _symmetry_equiv_pos_site_id
 _symmetry_equiv_pos_as_xyz
  1  'x, y, z'
loop_
 _atom_site_type_symbol
 _atom_site_label
 _atom_site_symmetry_multiplicity
 _atom_site_fract_x
 _atom_site_fract_y
 _atom_site_fract_z
 _atom_site_occupancy
  Mg  Mg0  1  0.79507100  0.99912300  0.78735800  1
  Nb  Nb1  1  0.02837100  0.01565600  0.96979600  1
  Nb  Nb2  1  0.98108500  0.48954500  0.01749400  1
  Nb  Nb3  1  0.52421000  0.98288400  0.50470400  1
  Nb  Nb4  1  0.48384500  0.50900900  0.49718700  1
  V  V5  1  0.29420100  0.99969300  0.29326900  1
  O  O6  1  0.32866000  0.29305000  0.12905600  1
  O  O7  1  0.20654800  0.08938700  0.64132900  1
  O  O8  1  0.13442400  0.31353900  0.71372400  1
  O  O9  1  0.86079800  0.18188900  0.24016300  1
  O  O10  1  0.37329700  0.82214800  0.09152600  1
  O  O11  1  0.73408000  0.36043200  0.37707100  1
  O  O12  1  0.22867100  0.63060300  0.60762700  1
  O  O13  1  0.60695300  0.18480000  0.85329600  1
  O  O14  1  0.09725500  0.81640900  0.72660500  1
  O  O15  1  0.82108900  0.71178000  0.21123900  1
  O  O16  1  0.71484200  0.90349900  0.32660200  1
  O  O17  1  0.63161200  0.68464600  0.84625500  1
