# generated using pymatgen
data_Na18Mg4Ta8Si15(SO24)3
_symmetry_space_group_name_H-M   'P 1'
_cell_length_a   9.07147878
_cell_length_b   9.07469698
_cell_length_c   22.40040380
_cell_angle_alpha   90.01498742
_cell_angle_beta   90.03418851
_cell_angle_gamma   119.98067782
_symmetry_Int_Tables_number   1
_chemical_formula_structural   Na18Mg4Ta8Si15(SO24)3
_chemical_formula_sum   'Na18 Mg4 Ta8 Si15 S3 O72'
_cell_volume   1597.28001499
_cell_formula_units_Z   1
loop_
 _symmetry_equiv_pos_site_id
 _symmetry_equiv_pos_as_xyz
  1  'x, y, z'
loop_
 _atom_site_type_symbol
 _atom_site_label
 _atom_site_symmetry_multiplicity
 _atom_site_fract_x
 _atom_site_fract_y
 _atom_site_fract_z
 _atom_site_occupancy
  Na  Na0  1  0.65256607  0.63179358  0.74372551  1
  Na  Na1  1  0.97572391  0.36304845  0.74461198  1
  Na  Na2  1  0.02207974  0.67976674  0.58929422  1
  Na  Na3  1  0.65688452  0.98379149  0.59056221  1
  Na  Na4  1  0.33145339  0.98192014  0.09120165  1
  Na  Na5  1  0.66044515  0.68115295  0.09013791  1
  Na  Na6  1  0.96224374  0.68465010  0.90622089  1
  Na  Na7  1  0.72093068  0.03827264  0.90703668  1
  Na  Na8  1  0.32031565  0.28735188  0.91277934  1
  Na  Na9  1  0.96408702  0.28470812  0.41155512  1
  Na  Na10  1  0.31719777  0.03691762  0.40608592  1
  Na  Na11  1  0.71478007  0.68189545  0.41138154  1
  Na  Na12  1  0.01492186  0.01482760  0.49334853  1
  Na  Na13  1  0.99698646  0.01050947  0.99190469  1
  Na  Na14  1  0.66547029  0.31857248  0.82211383  1
  Na  Na15  1  0.65248448  0.32321345  0.32019844  1
  Na  Na16  1  0.31642908  0.65402216  0.16744155  1
  Na  Na17  1  0.33431029  0.67346628  0.66619223  1
  Mg  Mg18  1  0.00809545  0.00135386  0.35414007  1
  Mg  Mg19  1  0.99267482  0.99403284  0.85481961  1
  Mg  Mg20  1  0.67088676  0.32861341  0.68321066  1
  Mg  Mg21  1  0.65372823  0.32140903  0.18229313  1
  Ta  Ta22  1  0.99335020  0.98762576  0.64526748  1
  Ta  Ta23  1  0.01169359  0.00202908  0.14532425  1
  Ta  Ta24  1  0.67111038  0.33337447  0.98050457  1
  Ta  Ta25  1  0.66224278  0.32981410  0.48023938  1
  Ta  Ta26  1  0.32779740  0.66421067  0.02153085  1
  Ta  Ta27  1  0.33566362  0.66600452  0.52084341  1
  Ta  Ta28  1  0.33090204  0.67360674  0.31198322  1
  Ta  Ta29  1  0.33619437  0.67945519  0.81213941  1
  Si  Si30  1  0.30102919  0.00581413  0.25529377  1
  Si  Si31  1  0.00014581  0.70577882  0.75466074  1
  Si  Si32  1  0.70682985  0.00130499  0.75390540  1
  Si  Si33  1  0.96110172  0.33290217  0.58574780  1
  Si  Si34  1  0.37624846  0.04574715  0.58445637  1
  Si  Si35  1  0.65918887  0.61708188  0.58777840  1
  Si  Si36  1  0.95501948  0.61442371  0.08876316  1
  Si  Si37  1  0.66970143  0.04387739  0.08509216  1
  Si  Si38  1  0.38033061  0.33772296  0.08476155  1
  Si  Si39  1  0.61912349  0.66071959  0.91676743  1
  Si  Si40  1  0.04183236  0.38015272  0.91446928  1
  Si  Si41  1  0.33806563  0.96436990  0.91821537  1
  Si  Si42  1  0.62349375  0.96073752  0.41612433  1
  Si  Si43  1  0.33909836  0.38190618  0.41383899  1
  Si  Si44  1  0.03869210  0.66179885  0.41709774  1
  S  S45  1  0.70721044  0.71224840  0.25222476  1
  S  S46  1  0.00435636  0.29051003  0.25247728  1
  S  S47  1  0.28552630  0.28804849  0.75199567  1
  O  O48  1  0.20580639  0.00783756  0.31511753  1
  O  O49  1  0.79856899  0.80181314  0.30668757  1
  O  O50  1  0.99262570  0.20019806  0.30837459  1
  O  O51  1  0.20813190  0.19995574  0.80818198  1
  O  O52  1  0.98808893  0.79898963  0.81317801  1
  O  O53  1  0.81434807  0.02276805  0.81324208  1
  O  O54  1  0.81046901  0.97608231  0.69423833  1
  O  O55  1  0.17568088  0.19400852  0.69906431  1
  O  O56  1  0.01954656  0.82451706  0.69317146  1
  O  O57  1  0.79570307  0.81797451  0.19712705  1
  O  O58  1  0.01642242  0.19192916  0.19962218  1
  O  O59  1  0.17253721  0.98540439  0.19545002  1
  O  O60  1  0.89619735  0.38530282  0.64366194  1
  O  O61  1  0.51002373  0.12369599  0.63678126  1
  O  O62  1  0.63507133  0.51718851  0.64795227  1
  O  O63  1  0.87113106  0.50229475  0.14518657  1
  O  O64  1  0.60434524  0.11405802  0.13699449  1
  O  O65  1  0.50659663  0.39335768  0.13930034  1
  O  O66  1  0.46463622  0.29588991  0.02454191  1
  O  O67  1  0.83413576  0.53191440  0.02690858  1
  O  O68  1  0.70171488  0.16257338  0.02306848  1
  O  O69  1  0.46232713  0.15792755  0.52164885  1
  O  O70  1  0.69094756  0.52395989  0.52850972  1
  O  O71  1  0.83148241  0.29987705  0.52683983  1
  O  O72  1  0.51374722  0.67468850  0.97381190  1
  O  O73  1  0.15905628  0.48772278  0.97168203  1
  O  O74  1  0.32024676  0.84841834  0.97657912  1
  O  O75  1  0.53010857  0.84762081  0.47596630  1
  O  O76  1  0.32632306  0.48878876  0.47131246  1
  O  O77  1  0.16014640  0.68483228  0.47480614  1
  O  O78  1  0.13644133  0.63056034  0.35894431  1
  O  O79  1  0.49237825  0.86075606  0.35895930  1
  O  O80  1  0.36990571  0.50543723  0.35558930  1
  O  O81  1  0.13501047  0.49884814  0.85473087  1
  O  O82  1  0.36532012  0.86351929  0.85961493  1
  O  O83  1  0.49696775  0.63080707  0.85706971  1
  O  O84  1  0.01071690  0.82274552  0.41491286  1
  O  O85  1  0.80963708  0.98254368  0.41059544  1
  O  O86  1  0.17113015  0.19762815  0.41363307  1
  O  O87  1  0.02477513  0.19584841  0.91400378  1
  O  O88  1  0.17569863  0.98925506  0.91487505  1
  O  O89  1  0.80489106  0.82689210  0.91702673  1
  O  O90  1  0.97038841  0.15619243  0.59090523  1
  O  O91  1  0.18362102  0.02128841  0.59094225  1
  O  O92  1  0.83907572  0.81031853  0.58906009  1
  O  O93  1  0.97190812  0.81078547  0.09405130  1
  O  O94  1  0.83686641  0.01821967  0.09441532  1
  O  O95  1  0.19036720  0.16007717  0.09190899  1
  O  O96  1  0.68006121  0.16096753  0.74453843  1
  O  O97  1  0.45916230  0.31770203  0.74631474  1
  O  O98  1  0.83364199  0.51824878  0.74916818  1
  O  O99  1  0.69041568  0.54351339  0.24908646  1
  O  O100  1  0.85934935  0.31746002  0.24633643  1
  O  O101  1  0.48716941  0.16556131  0.24684972  1
  O  O102  1  0.62901527  0.48366662  0.92231652  1
  O  O103  1  0.85592864  0.37231345  0.92042707  1
  O  O104  1  0.51868257  0.14703111  0.92010383  1
  O  O105  1  0.63109919  0.14605521  0.42024624  1
  O  O106  1  0.51602670  0.37200731  0.42133722  1
  O  O107  1  0.85527120  0.48236477  0.42232992  1
  O  O108  1  0.34108144  0.49430704  0.07304131  1
  O  O109  1  0.15577301  0.66595842  0.07795227  1
  O  O110  1  0.50972819  0.84545983  0.07336006  1
  O  O111  1  0.33966530  0.84708019  0.57500707  1
  O  O112  1  0.50777719  0.66524556  0.57730184  1
  O  O113  1  0.15221194  0.49632933  0.57240076  1
  O  O114  1  0.30464694  0.81719021  0.25359076  1
  O  O115  1  0.53211708  0.69826917  0.25121768  1
  O  O116  1  0.17132850  0.46023335  0.25129614  1
  O  O117  1  0.29028906  0.45913795  0.75024984  1
  O  O118  1  0.17639326  0.68649836  0.75309723  1
  O  O119  1  0.52262043  0.81086568  0.75376002  1
