# generated using pymatgen
data_Na7In4SiP5O24
_symmetry_space_group_name_H-M   'P 1'
_cell_length_a   9.17405183
_cell_length_b   9.17785459
_cell_length_c   22.61964775
_cell_angle_alpha   90.04694566
_cell_angle_beta   89.78148784
_cell_angle_gamma   119.95554833
_symmetry_Int_Tables_number   1
_chemical_formula_structural   Na7In4SiP5O24
_chemical_formula_sum   'Na21 In12 Si3 P15 O72'
_cell_volume   1650.09781591
_cell_formula_units_Z   3
loop_
 _symmetry_equiv_pos_site_id
 _symmetry_equiv_pos_as_xyz
  1  'x, y, z'
loop_
 _atom_site_type_symbol
 _atom_site_label
 _atom_site_symmetry_multiplicity
 _atom_site_fract_x
 _atom_site_fract_y
 _atom_site_fract_z
 _atom_site_occupancy
  Na  Na0  1  0.36521405  0.36512116  0.25068201  1
  Na  Na1  1  0.99799625  0.63216723  0.24738058  1
  Na  Na2  1  0.63572253  0.64028920  0.74865033  1
  Na  Na3  1  0.99356031  0.35996899  0.75246934  1
  Na  Na4  1  0.37191031  0.00116632  0.74762978  1
  Na  Na5  1  0.29966541  0.32568009  0.58138056  1
  Na  Na6  1  0.03615135  0.70258781  0.58269228  1
  Na  Na7  1  0.66233959  0.96720191  0.58709438  1
  Na  Na8  1  0.29757137  0.96468845  0.08326397  1
  Na  Na9  1  0.67318058  0.69896898  0.08227147  1
  Na  Na10  1  0.03247249  0.33996426  0.08479925  1
  Na  Na11  1  0.96537912  0.66545248  0.92002357  1
  Na  Na12  1  0.70129584  0.03379495  0.91364540  1
  Na  Na13  1  0.96837426  0.30174527  0.41558184  1
  Na  Na14  1  0.33476525  0.03405888  0.41924378  1
  Na  Na15  1  0.99263009  0.98820954  0.49976429  1
  Na  Na16  1  0.01154359  0.00712879  0.99943127  1
  Na  Na17  1  0.65496100  0.32840004  0.83388639  1
  Na  Na18  1  0.66671873  0.33350211  0.33321165  1
  Na  Na19  1  0.34001129  0.67806459  0.16712346  1
  Na  Na20  1  0.33925936  0.67656832  0.66656924  1
  In  In21  1  0.99238124  0.99360163  0.34921454  1
  In  In22  1  0.00370329  0.00579486  0.84964639  1
  In  In23  1  0.00006027  0.00009035  0.65161372  1
  In  In24  1  0.99528896  0.99616912  0.15206338  1
  In  In25  1  0.66495660  0.32729535  0.68174393  1
  In  In26  1  0.66997837  0.32883551  0.18298193  1
  In  In27  1  0.66343344  0.33635639  0.98415449  1
  In  In28  1  0.66178124  0.33576028  0.48327396  1
  In  In29  1  0.33069286  0.66401763  0.01504568  1
  In  In30  1  0.33880786  0.67067234  0.51444620  1
  In  In31  1  0.34115352  0.67316571  0.31739393  1
  In  In32  1  0.33664002  0.66792576  0.81854677  1
  Si  Si33  1  0.70059484  0.00042429  0.75073641  1
  Si  Si34  1  0.36385776  0.03115048  0.58271910  1
  Si  Si35  1  0.96736742  0.63401493  0.08341594  1
  P  P36  1  0.29945669  0.00086567  0.25066976  1
  P  P37  1  0.69836213  0.69784248  0.24840134  1
  P  P38  1  0.00070275  0.29993917  0.25134349  1
  P  P39  1  0.29893310  0.29931285  0.74883363  1
  P  P40  1  0.99930809  0.70009595  0.75087566  1
  P  P41  1  0.96617327  0.33482797  0.58181200  1
  P  P42  1  0.66747337  0.63003525  0.58457002  1
  P  P43  1  0.66621259  0.03581343  0.08117332  1
  P  P44  1  0.36888190  0.33252193  0.08572566  1
  P  P45  1  0.63401403  0.66583927  0.91630163  1
  P  P46  1  0.03283350  0.36562142  0.91723052  1
  P  P47  1  0.33340073  0.96829097  0.91677187  1
  P  P48  1  0.63516497  0.96857197  0.41822531  1
  P  P49  1  0.33239614  0.36657230  0.41518765  1
  P  P50  1  0.03382977  0.66555925  0.41590013  1
  O  O51  1  0.21793976  0.02932882  0.30659087  1
  O  O52  1  0.81603577  0.78525941  0.30093862  1
  O  O53  1  0.98344069  0.19870407  0.30793011  1
  O  O54  1  0.21767187  0.17900816  0.80139334  1
  O  O55  1  0.97292074  0.78096231  0.80692401  1
  O  O56  1  0.81548039  0.03268385  0.80963337  1
  O  O57  1  0.78131160  0.96580069  0.69122865  1
  O  O58  1  0.19758038  0.22666544  0.69102780  1
  O  O59  1  0.03415215  0.81013590  0.69492796  1
  O  O60  1  0.77131334  0.79491645  0.18981491  1
  O  O61  1  0.02560101  0.21748824  0.19504892  1
  O  O62  1  0.19093990  0.97267786  0.19460099  1
  O  O63  1  0.89177027  0.37012625  0.63818937  1
  O  O64  1  0.47877288  0.11060720  0.64192946  1
  O  O65  1  0.64143737  0.52884373  0.64236425  1
  O  O66  1  0.88663426  0.51707263  0.14245539  1
  O  O67  1  0.62532169  0.11378829  0.13448536  1
  O  O68  1  0.47184201  0.36060489  0.14296563  1
  O  O69  1  0.44734655  0.29218057  0.03238548  1
  O  O70  1  0.85098426  0.55334892  0.02450492  1
  O  O71  1  0.69447179  0.13874830  0.02378832  1
  O  O72  1  0.44428829  0.14819158  0.52374964  1
  O  O73  1  0.70299364  0.54830721  0.53133134  1
  O  O74  1  0.85831046  0.30955171  0.52629726  1
  O  O75  1  0.55013002  0.69053419  0.97221809  1
  O  O76  1  0.13269671  0.44758485  0.97419216  1
  O  O77  1  0.30583492  0.85937006  0.97276951  1
  O  O78  1  0.56230435  0.87167457  0.47677593  1
  O  O79  1  0.30757890  0.44893314  0.47156660  1
  O  O80  1  0.14252561  0.69380631  0.47192910  1
  O  O81  1  0.11553550  0.63741115  0.35994171  1
  O  O82  1  0.51744885  0.88175598  0.36566118  1
  O  O83  1  0.34958459  0.46805461  0.35868829  1
  O  O84  1  0.11691171  0.47417655  0.86137074  1
  O  O85  1  0.36089335  0.88698642  0.86068967  1
  O  O86  1  0.53414337  0.64803013  0.85940965  1
  O  O87  1  0.02398734  0.82948300  0.41175386  1
  O  O88  1  0.81507926  0.99413150  0.41251444  1
  O  O89  1  0.16947307  0.18866388  0.41331912  1
  O  O90  1  0.00927671  0.18656086  0.91480969  1
  O  O91  1  0.16928167  0.97725726  0.91265109  1
  O  O92  1  0.81204367  0.82777348  0.91472293  1
  O  O93  1  0.97831379  0.17243868  0.58629109  1
  O  O94  1  0.17502265  0.01160334  0.58671521  1
  O  O95  1  0.82267029  0.80972757  0.58701332  1
  O  O96  1  0.98740108  0.82331164  0.08695133  1
  O  O97  1  0.83020627  0.02680620  0.08808792  1
  O  O98  1  0.18708692  0.17945896  0.08973105  1
  O  O99  1  0.68480398  0.17177776  0.74816321  1
  O  O100  1  0.48027248  0.32763413  0.74566306  1
  O  O101  1  0.83698482  0.52591113  0.74568679  1
  O  O102  1  0.68136939  0.51954547  0.24691861  1
  O  O103  1  0.84539221  0.32429380  0.24882814  1
  O  O104  1  0.47332561  0.16344856  0.24617933  1
  O  O105  1  0.65737669  0.51014016  0.91876659  1
  O  O106  1  0.85509289  0.35046531  0.91885781  1
  O  O107  1  0.49664276  0.14150929  0.92088015  1
  O  O108  1  0.65266630  0.14720327  0.41976936  1
  O  O109  1  0.48753629  0.34200425  0.41746809  1
  O  O110  1  0.86018878  0.50270843  0.42042659  1
  O  O111  1  0.35906831  0.49614972  0.07871414  1
  O  O112  1  0.15668048  0.65374227  0.08001246  1
  O  O113  1  0.51305978  0.85425150  0.07730127  1
  O  O114  1  0.34537782  0.84268441  0.57929836  1
  O  O115  1  0.50350457  0.63998624  0.57880720  1
  O  O116  1  0.14622356  0.49000076  0.57716788  1
  O  O117  1  0.30908828  0.83686513  0.25482276  1
  O  O118  1  0.51848780  0.67265713  0.25404925  1
  O  O119  1  0.16350876  0.47797766  0.25324654  1
  O  O120  1  0.30787994  0.47224422  0.75564712  1
  O  O121  1  0.15487311  0.67547022  0.75542604  1
  O  O122  1  0.51137423  0.83104455  0.75347245  1
