# generated using pymatgen
data_Na12Nb2Zn10Si3(S5O24)3
_symmetry_space_group_name_H-M   'P 1'
_cell_length_a   8.87393131
_cell_length_b   8.92789359
_cell_length_c   22.57168343
_cell_angle_alpha   89.54029728
_cell_angle_beta   90.57333674
_cell_angle_gamma   119.76145810
_symmetry_Int_Tables_number   1
_chemical_formula_structural   Na12Nb2Zn10Si3(S5O24)3
_chemical_formula_sum   'Na12 Nb2 Zn10 Si3 S15 O72'
_cell_volume   1552.29450695
_cell_formula_units_Z   1
loop_
 _symmetry_equiv_pos_site_id
 _symmetry_equiv_pos_as_xyz
  1  'x, y, z'
loop_
 _atom_site_type_symbol
 _atom_site_label
 _atom_site_symmetry_multiplicity
 _atom_site_fract_x
 _atom_site_fract_y
 _atom_site_fract_z
 _atom_site_occupancy
  Na  Na0  1  0.30090594  0.33629168  0.57918850  1
  Na  Na1  1  0.67142494  0.96929595  0.59048135  1
  Na  Na2  1  0.29613857  0.96849191  0.09010379  1
  Na  Na3  1  0.03054031  0.33298479  0.08318787  1
  Na  Na4  1  0.33047523  0.04547357  0.40966190  1
  Na  Na5  1  0.69342218  0.65657840  0.41565588  1
  Na  Na6  1  0.00937391  0.01347263  0.49749168  1
  Na  Na7  1  0.98750468  0.99018927  0.99556622  1
  Na  Na8  1  0.67093797  0.32109803  0.82925087  1
  Na  Na9  1  0.65282752  0.32159934  0.32763536  1
  Na  Na10  1  0.34372104  0.67607028  0.16478728  1
  Na  Na11  1  0.32672893  0.67104876  0.66444128  1
  Nb  Nb12  1  0.33312865  0.66166125  0.31167805  1
  Nb  Nb13  1  0.34248372  0.67376903  0.81217159  1
  Zn  Zn14  1  0.03257589  0.03295355  0.34660712  1
  Zn  Zn15  1  0.99365524  0.00332573  0.84663046  1
  Zn  Zn16  1  0.98592956  0.98689645  0.66015242  1
  Zn  Zn17  1  0.00070319  0.98533929  0.15889473  1
  Zn  Zn18  1  0.67227073  0.32453338  0.68677248  1
  Zn  Zn19  1  0.64910211  0.32117493  0.18604463  1
  Zn  Zn20  1  0.66936948  0.33667476  0.98197134  1
  Zn  Zn21  1  0.66003803  0.33689335  0.48338494  1
  Zn  Zn22  1  0.33860891  0.66572589  0.01154167  1
  Zn  Zn23  1  0.32006993  0.65217330  0.51262388  1
  Si  Si24  1  0.30118883  0.00842603  0.24942513  1
  Si  Si25  1  0.71809049  0.01591781  0.74874433  1
  Si  Si26  1  0.32919499  0.36622848  0.42158229  1
  S  S27  1  0.71034630  0.70813004  0.25218927  1
  S  S28  1  0.99562314  0.29423998  0.24872406  1
  S  S29  1  0.29593529  0.29470194  0.75063421  1
  S  S30  1  0.99871662  0.70699252  0.75187503  1
  S  S31  1  0.95933774  0.33698362  0.58260358  1
  S  S32  1  0.36701223  0.03424360  0.58256065  1
  S  S33  1  0.67215847  0.62918889  0.58373019  1
  S  S34  1  0.95531198  0.62394925  0.08255229  1
  S  S35  1  0.66866379  0.03847132  0.08252416  1
  S  S36  1  0.37447124  0.33804707  0.08134245  1
  S  S37  1  0.62817899  0.66533305  0.91827803  1
  S  S38  1  0.03981937  0.37264777  0.91873733  1
  S  S39  1  0.33051765  0.95982153  0.91746601  1
  S  S40  1  0.62711764  0.95737223  0.41741480  1
  S  S41  1  0.04052950  0.66358375  0.41687377  1
  O  O42  1  0.21791260  0.02229451  0.31072582  1
  O  O43  1  0.80464099  0.78782743  0.30739036  1
  O  O44  1  0.96873609  0.18832515  0.30176919  1
  O  O45  1  0.21655846  0.18780772  0.80303957  1
  O  O46  1  0.98218231  0.78895560  0.80515681  1
  O  O47  1  0.82221785  0.02983926  0.80788496  1
  O  O48  1  0.76822778  0.95934551  0.68692058  1
  O  O49  1  0.19265493  0.22836569  0.69520480  1
  O  O50  1  0.04372147  0.81393176  0.69757829  1
  O  O51  1  0.77773233  0.81692668  0.19880796  1
  O  O52  1  0.03088127  0.22612847  0.19423880  1
  O  O53  1  0.19073201  0.96096445  0.18763301  1
  O  O54  1  0.87751445  0.35588542  0.63612048  1
  O  O55  1  0.48094269  0.11803388  0.63433046  1
  O  O56  1  0.64577871  0.51499791  0.63501318  1
  O  O57  1  0.87590831  0.51595875  0.13576252  1
  O  O58  1  0.63819987  0.11736704  0.13528758  1
  O  O59  1  0.47778660  0.36290687  0.13551983  1
  O  O60  1  0.45500755  0.30833750  0.02873103  1
  O  O61  1  0.85477672  0.54226155  0.02813714  1
  O  O62  1  0.69868139  0.14722004  0.02861298  1
  O  O63  1  0.44155851  0.13770922  0.52684649  1
  O  O64  1  0.68923503  0.55254802  0.52744918  1
  O  O65  1  0.85035616  0.30978591  0.52882037  1
  O  O66  1  0.54670651  0.69016947  0.97080887  1
  O  O67  1  0.13874655  0.45249406  0.97452228  1
  O  O68  1  0.30775688  0.85875731  0.97260804  1
  O  O69  1  0.55020491  0.85641315  0.47249331  1
  O  O70  1  0.31099736  0.45177353  0.48149811  1
  O  O71  1  0.15309183  0.70261881  0.46969232  1
  O  O72  1  0.13449666  0.64855603  0.36359283  1
  O  O73  1  0.50699696  0.86721598  0.36470912  1
  O  O74  1  0.35468023  0.50211168  0.36462791  1
  O  O75  1  0.13620035  0.48686529  0.86659284  1
  O  O76  1  0.34936139  0.86018574  0.86539985  1
  O  O77  1  0.51228947  0.64873155  0.86454200  1
  O  O78  1  0.01053891  0.81238217  0.41011421  1
  O  O79  1  0.79412014  0.96352243  0.40821995  1
  O  O80  1  0.16180802  0.17439284  0.41595175  1
  O  O81  1  0.02827903  0.20275719  0.91350998  1
  O  O82  1  0.17403148  0.97468609  0.90805895  1
  O  O83  1  0.80044959  0.81775337  0.91130696  1
  O  O84  1  0.98263180  0.18021701  0.58613077  1
  O  O85  1  0.19383883  0.02196275  0.58958018  1
  O  O86  1  0.82814663  0.80489074  0.58742054  1
  O  O87  1  0.97805837  0.80126403  0.08563928  1
  O  O88  1  0.82867950  0.02328171  0.08996263  1
  O  O89  1  0.19544556  0.18078789  0.08557059  1
  O  O90  1  0.67236505  0.16880765  0.74569251  1
  O  O91  1  0.47513589  0.33130663  0.74442984  1
  O  O92  1  0.84800043  0.53457228  0.74460355  1
  O  O93  1  0.68795037  0.53539970  0.24520902  1
  O  O94  1  0.85254721  0.33022162  0.24287896  1
  O  O95  1  0.49588792  0.16984955  0.24592487  1
  O  O96  1  0.63207713  0.50185881  0.91916157  1
  O  O97  1  0.86714001  0.36136906  0.91992286  1
  O  O98  1  0.49184776  0.12830104  0.91892315  1
  O  O99  1  0.63936516  0.12826415  0.41940342  1
  O  O100  1  0.51226175  0.35874728  0.41872255  1
  O  O101  1  0.87272563  0.50225592  0.41999496  1
  O  O102  1  0.34823313  0.49181469  0.07584028  1
  O  O103  1  0.13653200  0.64398857  0.07865647  1
  O  O104  1  0.50789172  0.86474947  0.07600576  1
  O  O105  1  0.35482329  0.86103102  0.57685617  1
  O  O106  1  0.51300749  0.65102506  0.58133303  1
  O  O107  1  0.13724455  0.49275128  0.57957785  1
  O  O108  1  0.31639757  0.82506887  0.26186990  1
  O  O109  1  0.52586191  0.68813977  0.25749635  1
  O  O110  1  0.16274465  0.47172785  0.25757601  1
  O  O111  1  0.30614069  0.47294003  0.76008360  1
  O  O112  1  0.15984508  0.68302721  0.76073289  1
  O  O113  1  0.51365569  0.82863891  0.76305291  1
