# generated using pymatgen
data_SnH5CBr3N2
_symmetry_space_group_name_H-M   'P 1'
_cell_length_a   6.22020500
_cell_length_b   5.91955718
_cell_length_c   5.91955718
_cell_angle_alpha   92.67628545
_cell_angle_beta   90.00000000
_cell_angle_gamma   90.00000000
_symmetry_Int_Tables_number   1
_chemical_formula_structural   SnH5CBr3N2
_chemical_formula_sum   'Sn1 H5 C1 Br3 N2'
_cell_volume   217.72544569
_cell_formula_units_Z   1
loop_
 _symmetry_equiv_pos_site_id
 _symmetry_equiv_pos_as_xyz
  1  'x, y, z'
loop_
 _atom_site_type_symbol
 _atom_site_label
 _atom_site_symmetry_multiplicity
 _atom_site_fract_x
 _atom_site_fract_y
 _atom_site_fract_z
 _atom_site_occupancy
  Sn  Sn0  1  0.50000000  0.36726700  0.63273300  1
  H  H1  1  0.79838800  0.72935700  0.27064300  1
  H  H2  1  0.20161200  0.72935700  0.27064300  1
  H  H3  1  0.67902500  0.91445900  0.08554100  1
  H  H4  1  0.32097500  0.91445900  0.08554100  1
  H  H5  1  0.00000000  0.04675700  0.95324300  1
  C  C6  1  0.00000000  0.91904100  0.08095900  1
  Br  Br7  1  0.50000000  0.86872900  0.64893900  1
  Br  Br8  1  0.50000000  0.35106100  0.13127100  1
  Br  Br9  1  0.00000000  0.39080700  0.60919300  1
  N  N10  1  0.81384600  0.84775200  0.15224800  1
  N  N11  1  0.18615400  0.84775200  0.15224800  1
