# generated using pymatgen
data_Zr6CI14
_symmetry_space_group_name_H-M   'P 1'
_cell_length_a   10.85667314
_cell_length_b   10.85667314
_cell_length_c   13.09095039
_cell_angle_alpha   90.00000000
_cell_angle_beta   90.00000000
_cell_angle_gamma   94.48620823
_symmetry_Int_Tables_number   1
_chemical_formula_structural   Zr6CI14
_chemical_formula_sum   'Zr12 C2 I28'
_cell_volume   1538.26820856
_cell_formula_units_Z   2
loop_
 _symmetry_equiv_pos_site_id
 _symmetry_equiv_pos_as_xyz
  1  'x, y, z'
loop_
 _atom_site_type_symbol
 _atom_site_label
 _atom_site_symmetry_multiplicity
 _atom_site_fract_x
 _atom_site_fract_y
 _atom_site_fract_z
 _atom_site_occupancy
  Zr  Zr0  1  0.62992259  0.62992259  0.09383283  1
  Zr  Zr1  1  0.87007741  0.87007741  0.59383283  1
  Zr  Zr2  1  0.12992259  0.12992259  0.40616717  1
  Zr  Zr3  1  0.37007741  0.37007741  0.90616717  1
  Zr  Zr4  1  0.45556257  0.66723284  0.89168390  1
  Zr  Zr5  1  0.04443743  0.83276716  0.39168390  1
  Zr  Zr6  1  0.16723284  0.95556257  0.60831610  1
  Zr  Zr7  1  0.33276716  0.54443743  0.10831610  1
  Zr  Zr8  1  0.54443743  0.33276716  0.10831610  1
  Zr  Zr9  1  0.95556257  0.16723284  0.60831610  1
  Zr  Zr10  1  0.83276716  0.04443743  0.39168390  1
  Zr  Zr11  1  0.66723284  0.45556257  0.89168390  1
  C  C12  1  0.50000000  0.50000000  0.00000000  1
  C  C13  1  0.00000000  -0.00000000  0.50000000  1
  I  I14  1  0.11188169  0.36050507  0.50934929  1
  I  I15  1  0.38811831  0.13949493  0.00934929  1
  I  I16  1  0.10345737  0.60345737  0.25000000  1
  I  I17  1  0.39654263  0.89654263  0.75000000  1
  I  I18  1  0.89654263  0.39654263  0.75000000  1
  I  I19  1  0.60345737  0.10345737  0.25000000  1
  I  I20  1  0.14888660  0.14888660  0.76086470  1
  I  I21  1  0.35111340  0.35111340  0.26086470  1
  I  I22  1  0.64888660  0.64888660  0.73913530  1
  I  I23  1  0.85111340  0.85111340  0.23913530  1
  I  I24  1  0.75117202  0.24882798  0.00000000  1
  I  I25  1  0.74882798  0.25117202  0.50000000  1
  I  I26  1  0.24882798  0.75117202  0.00000000  1
  I  I27  1  0.25117202  0.74882798  0.50000000  1
  I  I28  1  0.63949493  0.88811831  0.49065071  1
  I  I29  1  0.86050507  0.61188169  0.99065071  1
  I  I30  1  0.61188169  0.86050507  0.99065071  1
  I  I31  1  0.88811831  0.63949493  0.49065071  1
  I  I32  1  0.36050507  0.11188169  0.50934929  1
  I  I33  1  0.13949493  0.38811831  0.00934929  1
  I  I34  1  0.21369024  0.96696392  0.25395917  1
  I  I35  1  0.28630976  0.53303608  0.75395917  1
  I  I36  1  0.46696392  0.71369024  0.24604083  1
  I  I37  1  0.03303608  0.78630976  0.74604083  1
  I  I38  1  0.78630976  0.03303608  0.74604083  1
  I  I39  1  0.71369024  0.46696392  0.24604083  1
  I  I40  1  0.53303608  0.28630976  0.75395917  1
  I  I41  1  0.96696392  0.21369024  0.25395917  1
