# generated using pymatgen
data_Na6In4Si5Ge4S7O48
_symmetry_space_group_name_H-M   'P 1'
_cell_length_a   17.56142728
_cell_length_b   8.82024346
_cell_length_c   22.49891830
_cell_angle_alpha   90.02508348
_cell_angle_beta   89.85979656
_cell_angle_gamma   120.23779183
_symmetry_Int_Tables_number   1
_chemical_formula_structural   Na6In4Si5Ge4S7O48
_chemical_formula_sum   'Na18 In12 Si15 Ge12 S21 O144'
_cell_volume   3010.82518555
_cell_formula_units_Z   3
loop_
 _symmetry_equiv_pos_site_id
 _symmetry_equiv_pos_as_xyz
  1  'x, y, z'
loop_
 _atom_site_type_symbol
 _atom_site_label
 _atom_site_symmetry_multiplicity
 _atom_site_fract_x
 _atom_site_fract_y
 _atom_site_fract_z
 _atom_site_occupancy
  Na  Na0  1  0.99669103  0.62361287  0.25502329  1
  Na  Na1  1  0.50113988  0.63261171  0.25024698  1
  Na  Na2  1  0.00191707  0.37546245  0.74898607  1
  Na  Na3  1  0.49624755  0.36123483  0.75322553  1
  Na  Na4  1  0.66381589  0.30436151  0.91739856  1
  Na  Na5  1  0.16645290  0.01827445  0.42870966  1
  Na  Na6  1  0.99784500  0.99817568  0.50640915  1
  Na  Na7  1  0.50037637  0.98609577  0.50065919  1
  Na  Na8  1  0.99919462  0.01138293  0.99658189  1
  Na  Na9  1  0.50083339  0.00315596  0.00361576  1
  Na  Na10  1  0.32668503  0.31566591  0.83919690  1
  Na  Na11  1  0.82896363  0.32752710  0.82388960  1
  Na  Na12  1  0.34170367  0.34802199  0.33074454  1
  Na  Na13  1  0.82119248  0.32960580  0.34189015  1
  Na  Na14  1  0.18743995  0.66303876  0.16262756  1
  Na  Na15  1  0.67036250  0.65245992  0.16274269  1
  Na  Na16  1  0.17318649  0.69230505  0.66477761  1
  Na  Na17  1  0.68404745  0.69339310  0.66806084  1
  In  In18  1  0.99388069  0.98543348  0.35784633  1
  In  In19  1  0.49678612  0.00789030  0.85557204  1
  In  In20  1  0.32422809  0.33913803  0.67669317  1
  In  In21  1  0.82643021  0.30586036  0.68799710  1
  In  In22  1  0.33241790  0.35357194  0.18469103  1
  In  In23  1  0.82017117  0.30681714  0.17465811  1
  In  In24  1  0.82856445  0.31637982  0.99003982  1
  In  In25  1  0.33086951  0.34967107  0.49390123  1
  In  In26  1  0.17040285  0.66797995  0.31586964  1
  In  In27  1  0.66723697  0.64920054  0.31566851  1
  In  In28  1  0.16907409  0.68759807  0.81517883  1
  In  In29  1  0.66659568  0.65367133  0.81079125  1
  Si  Si30  1  0.36360872  0.73826113  0.25208408  1
  Si  Si31  1  0.49842296  0.29363217  0.24859850  1
  Si  Si32  1  0.64051881  0.27870591  0.74791557  1
  Si  Si33  1  0.00122516  0.70407733  0.74835900  1
  Si  Si34  1  0.86553248  0.99046233  0.75236825  1
  Si  Si35  1  0.17477818  0.03055731  0.58388332  1
  Si  Si36  1  0.69141700  0.03038893  0.57856486  1
  Si  Si37  1  0.33453865  0.65434521  0.58372025  1
  Si  Si38  1  0.83107651  0.01750325  0.08243272  1
  Si  Si39  1  0.19063855  0.34974826  0.08009476  1
  Si  Si40  1  0.67454030  0.32437098  0.08310629  1
  Si  Si41  1  0.51623472  0.38382627  0.92072663  1
  Si  Si42  1  0.16363080  0.95969802  0.91907173  1
  Si  Si43  1  0.66470196  0.36875574  0.41823369  1
  Si  Si44  1  0.01799930  0.64704466  0.41961290  1
  Ge  Ge45  1  0.50129354  0.03074143  0.35040888  1
  Ge  Ge46  1  0.00251360  0.97167392  0.84933401  1
  Ge  Ge47  1  0.00179723  0.97707053  0.65295222  1
  Ge  Ge48  1  0.51379960  0.99815459  0.63992559  1
  Ge  Ge49  1  0.00550792  0.02046635  0.13665892  1
  Ge  Ge50  1  0.49943502  0.02359376  0.15088776  1
  Ge  Ge51  1  0.32493879  0.31344766  0.98081276  1
  Ge  Ge52  1  0.82583519  0.34128642  0.48201139  1
  Ge  Ge53  1  0.16254951  0.66388962  0.01417791  1
  Ge  Ge54  1  0.66451605  0.65039087  0.02371717  1
  Ge  Ge55  1  0.16183105  0.67898306  0.52764436  1
  Ge  Ge56  1  0.66089513  0.65528486  0.51653170  1
  S  S57  1  0.14029075  0.00225570  0.24706328  1
  S  S58  1  0.64535349  0.00867777  0.25395600  1
  S  S59  1  0.85735251  0.71074716  0.24391568  1
  S  S60  1  0.99802797  0.28328254  0.24605958  1
  S  S61  1  0.14553316  0.28195878  0.75418470  1
  S  S62  1  0.49575629  0.70872593  0.74713487  1
  S  S63  1  0.35340975  0.00201161  0.74509509  1
  S  S64  1  0.48876458  0.33760235  0.58354186  1
  S  S65  1  0.97856780  0.33108517  0.57983449  1
  S  S66  1  0.83105139  0.62818073  0.57989654  1
  S  S67  1  0.48094776  0.63212920  0.08054721  1
  S  S68  1  0.98946213  0.64143771  0.08672301  1
  S  S69  1  0.33013182  0.03416464  0.08112860  1
  S  S70  1  0.30977940  0.66036327  0.91916300  1
  S  S71  1  0.81747746  0.67023422  0.92079500  1
  S  S72  1  0.01886420  0.37075365  0.91764106  1
  S  S73  1  0.66678904  0.95250632  0.91822265  1
  S  S74  1  0.31833956  0.96807923  0.41958776  1
  S  S75  1  0.80899802  0.95885185  0.41867198  1
  S  S76  1  0.16831145  0.37272425  0.41767462  1
  S  S77  1  0.51774260  0.66787430  0.41689084  1
  O  O78  1  0.10386319  0.02091975  0.30442634  1
  O  O79  1  0.60446956  0.02976529  0.30911334  1
  O  O80  1  0.42826938  0.83162648  0.31135393  1
  O  O81  1  0.90710077  0.78252987  0.30061458  1
  O  O82  1  0.49043183  0.18967404  0.31003288  1
  O  O83  1  0.98921794  0.18530615  0.30096586  1
  O  O84  1  0.10535715  0.17897420  0.80937837  1
  O  O85  1  0.60524878  0.18929213  0.81303174  1
  O  O86  1  0.48134408  0.78214725  0.80166197  1
  O  O87  1  0.99286080  0.79144113  0.81003826  1
  O  O88  1  0.39991662  0.02350970  0.80264877  1
  O  O89  1  0.93030747  0.02537960  0.81200096  1
  O  O90  1  0.39941699  0.99072329  0.69333858  1
  O  O91  1  0.91371407  0.97879484  0.68890573  1
  O  O92  1  0.09268103  0.20240853  0.69954095  1
  O  O93  1  0.57353561  0.16626672  0.69153154  1
  O  O94  1  0.02150439  0.82789361  0.69037322  1
  O  O95  1  0.49908723  0.80417636  0.69210699  1
  O  O96  1  0.41231391  0.84402400  0.18897019  1
  O  O97  1  0.90574146  0.81788493  0.19237761  1
  O  O98  1  0.00641690  0.19562663  0.19201052  1
  O  O99  1  0.51705245  0.20914406  0.19048437  1
  O  O100  1  0.08286740  0.98174975  0.19546918  1
  O  O101  1  0.59271366  0.98258197  0.19943460  1
  O  O102  1  0.45039681  0.36300001  0.63862170  1
  O  O103  1  0.94916379  0.37247170  0.63592536  1
  O  O104  1  0.23960657  0.10778054  0.63964084  1
  O  O105  1  0.74710882  0.08811939  0.63849102  1
  O  O106  1  0.30875439  0.53338732  0.64211043  1
  O  O107  1  0.81690617  0.52220301  0.63311245  1
  O  O108  1  0.45306443  0.53355701  0.13775469  1
  O  O109  1  0.95082659  0.53961693  0.14198182  1
  O  O110  1  0.31503588  0.10848169  0.13505554  1
  O  O111  1  0.81131481  0.08438390  0.14416214  1
  O  O112  1  0.24219114  0.39500958  0.14196296  1
  O  O113  1  0.73768029  0.37714550  0.14018075  1
  O  O114  1  0.24054388  0.31018212  0.02656843  1
  O  O115  1  0.71184008  0.29000492  0.02130172  1
  O  O116  1  0.42061248  0.53474826  0.03122869  1
  O  O117  1  0.93329842  0.56364726  0.03431756  1
  O  O118  1  0.34692808  0.14701167  0.02749694  1
  O  O119  1  0.86226515  0.15163030  0.02729914  1
  O  O120  1  0.21249779  0.13655724  0.52137859  1
  O  O121  1  0.73948163  0.16927432  0.52410436  1
  O  O122  1  0.36500505  0.58836699  0.52619614  1
  O  O123  1  0.84874724  0.55116519  0.52521459  1
  O  O124  1  0.43422764  0.31178968  0.53058597  1
  O  O125  1  0.92185224  0.31235960  0.52852148  1
  O  O126  1  0.26640008  0.69222028  0.97093540  1
  O  O127  1  0.77711864  0.69519029  0.97490298  1
  O  O128  1  0.07660693  0.46187464  0.97100724  1
  O  O129  1  0.59310356  0.49533308  0.97076243  1
  O  O130  1  0.14574976  0.82395444  0.97645845  1
  O  O131  1  0.66615470  0.85916619  0.97230401  1
  O  O132  1  0.27632213  0.85915077  0.47245526  1
  O  O133  1  0.76424330  0.84013613  0.46931318  1
  O  O134  1  0.16355490  0.46439363  0.47011256  1
  O  O135  1  0.64607147  0.46881784  0.47474947  1
  O  O136  1  0.09579879  0.69009264  0.46915652  1
  O  O137  1  0.57512424  0.68818106  0.46897960  1
  O  O138  1  0.05164045  0.62155246  0.35408547  1
  O  O139  1  0.55659042  0.65168797  0.36007944  1
  O  O140  1  0.26235839  0.89702914  0.36549116  1
  O  O141  1  0.76323431  0.88908470  0.36149173  1
  O  O142  1  0.17721761  0.46297431  0.36074260  1
  O  O143  1  0.69201507  0.48079758  0.35829017  1
  O  O144  1  0.05983147  0.46658052  0.86179472  1
  O  O145  1  0.54804122  0.47814175  0.85591536  1
  O  O146  1  0.19125683  0.90034405  0.85997303  1
  O  O147  1  0.67468854  0.87351392  0.86277179  1
  O  O148  1  0.26069019  0.63258023  0.86329379  1
  O  O149  1  0.76146472  0.63200747  0.86758949  1
  O  O150  1  0.01445931  0.83117794  0.41941185  1
  O  O151  1  0.50945728  0.82595018  0.41598080  1
  O  O152  1  0.40457016  0.97594948  0.41245887  1
  O  O153  1  0.89870456  0.97887959  0.41783196  1
  O  O154  1  0.08627328  0.19423237  0.41664096  1
  O  O155  1  0.57459143  0.16840810  0.40999033  1
  O  O156  1  0.00973850  0.19597138  0.91701660  1
  O  O157  1  0.50902904  0.19009669  0.92270005  1
  O  O158  1  0.07410343  0.98072234  0.91052647  1
  O  O159  1  0.58434637  0.96401359  0.91920409  1
  O  O160  1  0.39871746  0.81845574  0.91670648  1
  O  O161  1  0.90447515  0.83291424  0.91407573  1
  O  O162  1  0.50186433  0.18539683  0.58666812  1
  O  O163  1  0.98551179  0.17306122  0.58373874  1
  O  O164  1  0.07830065  0.02596374  0.59320898  1
  O  O165  1  0.59263316  0.01116031  0.58545447  1
  O  O166  1  0.42047531  0.85455707  0.59537885  1
  O  O167  1  0.90953989  0.80638361  0.58465464  1
  O  O168  1  0.48632507  0.80364198  0.08572776  1
  O  O169  1  0.00441206  0.82333641  0.09247674  1
  O  O170  1  0.40941196  0.01422292  0.08614257  1
  O  O171  1  0.91639316  0.98593016  0.09090675  1
  O  O172  1  0.09170626  0.16839632  0.08767074  1
  O  O173  1  0.57832572  0.13458335  0.09327306  1
  O  O174  1  0.34519366  0.16353569  0.74338007  1
  O  O175  1  0.86244914  0.17005624  0.75080095  1
  O  O176  1  0.23417794  0.30207581  0.75141363  1
  O  O177  1  0.73640644  0.30385551  0.74510079  1
  O  O178  1  0.42018645  0.52308352  0.74367429  1
  O  O179  1  0.91453404  0.51453338  0.74388381  1
  O  O180  1  0.35662668  0.54736458  0.25123143  1
  O  O181  1  0.84874249  0.53339670  0.24147561  1
  O  O182  1  0.40951666  0.30604044  0.24492271  1
  O  O183  1  0.92033071  0.30801244  0.24275119  1
  O  O184  1  0.22867492  0.15496400  0.24311559  1
  O  O185  1  0.73416347  0.16736393  0.25159631  1
  O  O186  1  0.31831619  0.50327817  0.92719088  1
  O  O187  1  0.82884180  0.51410700  0.92627335  1
  O  O188  1  0.41887028  0.36587179  0.93384592  1
  O  O189  1  0.93383472  0.36557699  0.92305012  1
  O  O190  1  0.24837203  0.15500477  0.92963461  1
  O  O191  1  0.74333298  0.13811304  0.91783069  1
  O  O192  1  0.33025443  0.14662712  0.42551745  1
  O  O193  1  0.81916124  0.13447882  0.42536564  1
  O  O194  1  0.24484777  0.34229204  0.41845251  1
  O  O195  1  0.75044286  0.34584593  0.42884164  1
  O  O196  1  0.43109024  0.50412923  0.42170982  1
  O  O197  1  0.91997127  0.47499642  0.43200721  1
  O  O198  1  0.17308084  0.51660606  0.06587415  1
  O  O199  1  0.65788270  0.48992650  0.07652211  1
  O  O200  1  0.07701492  0.65403485  0.07957290  1
  O  O201  1  0.57144771  0.66086231  0.07104684  1
  O  O202  1  0.25101988  0.85605863  0.07255169  1
  O  O203  1  0.74130485  0.82631288  0.07055622  1
  O  O204  1  0.15633681  0.83085652  0.57739981  1
  O  O205  1  0.67353431  0.82839219  0.56403574  1
  O  O206  1  0.24308093  0.66247272  0.56992615  1
  O  O207  1  0.75113495  0.64413415  0.57099713  1
  O  O208  1  0.07104785  0.48576567  0.57136475  1
  O  O209  1  0.57707830  0.50322577  0.57753721  1
  O  O210  1  0.14337301  0.83655234  0.24778587  1
  O  O211  1  0.65330416  0.84898642  0.25794230  1
  O  O212  1  0.26724820  0.72141166  0.25390487  1
  O  O213  1  0.77136452  0.70118987  0.24672245  1
  O  O214  1  0.07840105  0.46138448  0.24678556  1
  O  O215  1  0.58280300  0.49533404  0.24932633  1
  O  O216  1  0.15265228  0.45665833  0.75817844  1
  O  O217  1  0.63868158  0.46269738  0.74422575  1
  O  O218  1  0.08634696  0.67508000  0.74889046  1
  O  O219  1  0.57816322  0.70187556  0.74847993  1
  O  O220  1  0.26623930  0.83949579  0.74716853  1
  O  O221  1  0.76954870  0.81786650  0.75469125  1
