# generated using pymatgen
data_U(OF)2
_symmetry_space_group_name_H-M   'P 1'
_cell_length_a   5.80754675
_cell_length_b   5.80754675
_cell_length_c   5.80754639
_cell_angle_alpha   42.47974245
_cell_angle_beta   42.47974245
_cell_angle_gamma   42.47974540
_symmetry_Int_Tables_number   1
_chemical_formula_structural   U(OF)2
_chemical_formula_sum   'U1 O2 F2'
_cell_volume   80.88558889
_cell_formula_units_Z   1
loop_
 _symmetry_equiv_pos_site_id
 _symmetry_equiv_pos_as_xyz
  1  'x, y, z'
loop_
 _atom_site_type_symbol
 _atom_site_label
 _atom_site_symmetry_multiplicity
 _atom_site_fract_x
 _atom_site_fract_y
 _atom_site_fract_z
 _atom_site_occupancy
  U  U0  1  -0.00000000  -0.00000000  -0.00000000  1
  O  O1  1  0.11148785  0.11148785  0.11148785  1
  O  O2  1  0.88851215  0.88851215  0.88851215  1
  F  F3  1  0.33279781  0.33279781  0.33279781  1
  F  F4  1  0.66720219  0.66720219  0.66720219  1
