# generated using pymatgen
data_MgFe3PO7
_symmetry_space_group_name_H-M   'P 1'
_cell_length_a   5.60757731
_cell_length_b   5.32236709
_cell_length_c   5.42945687
_cell_angle_alpha   100.20541298
_cell_angle_beta   107.20007390
_cell_angle_gamma   101.76565711
_symmetry_Int_Tables_number   1
_chemical_formula_structural   MgFe3PO7
_chemical_formula_sum   'Mg1 Fe3 P1 O7'
_cell_volume   146.57876221
_cell_formula_units_Z   1
loop_
 _symmetry_equiv_pos_site_id
 _symmetry_equiv_pos_as_xyz
  1  'x, y, z'
loop_
 _atom_site_type_symbol
 _atom_site_label
 _atom_site_symmetry_multiplicity
 _atom_site_fract_x
 _atom_site_fract_y
 _atom_site_fract_z
 _atom_site_occupancy
  Mg  Mg0  1  0.99196542  0.08801489  0.54926216  1
  Fe  Fe1  1  0.53685852  0.51965781  0.14402975  1
  Fe  Fe2  1  0.16931686  0.58661907  0.50087952  1
  Fe  Fe3  1  0.53315467  0.17179118  0.53963959  1
  P  P4  1  0.00337494  0.99427914  0.01180568  1
  O  O5  1  0.08710864  0.84139867  0.79808736  1
  O  O6  1  0.89267610  0.82409566  0.17946685  1
  O  O7  1  0.81969146  0.14165907  0.86208374  1
  O  O8  1  0.79434500  0.34457510  0.41392166  1
  O  O9  1  0.23886210  0.21974647  0.22260390  1
  O  O10  1  0.35539220  0.34983290  0.74146469  1
  O  O11  1  0.45275408  0.79382804  0.39975109  1
