# generated using pymatgen
data_Na14Ca4Y4Si5S7O48
_symmetry_space_group_name_H-M   'P 1'
_cell_length_a   18.99039618
_cell_length_b   9.48452965
_cell_length_c   23.49947210
_cell_angle_alpha   90.00322788
_cell_angle_beta   90.00694372
_cell_angle_gamma   119.93861455
_symmetry_Int_Tables_number   1
_chemical_formula_structural   Na14Ca4Y4Si5S7O48
_chemical_formula_sum   'Na42 Ca12 Y12 Si15 S21 O144'
_cell_volume   3667.81025135
_cell_formula_units_Z   3
loop_
 _symmetry_equiv_pos_site_id
 _symmetry_equiv_pos_as_xyz
  1  'x, y, z'
loop_
 _atom_site_type_symbol
 _atom_site_label
 _atom_site_symmetry_multiplicity
 _atom_site_fract_x
 _atom_site_fract_y
 _atom_site_fract_z
 _atom_site_occupancy
  Na  Na0  1  0.80315676  0.99421707  0.24925316  1
  Na  Na1  1  0.18447724  0.34455049  0.25291434  1
  Na  Na2  1  0.68125152  0.34499301  0.25187637  1
  Na  Na3  1  0.00686821  0.65867093  0.24545801  1
  Na  Na4  1  0.51225793  0.65627480  0.23746703  1
  Na  Na5  1  0.31864083  0.61330122  0.75268282  1
  Na  Na6  1  0.01137855  0.36566980  0.73792850  1
  Na  Na7  1  0.50535995  0.37768460  0.74537307  1
  Na  Na8  1  0.18599327  0.02452959  0.75070521  1
  Na  Na9  1  0.66882669  0.00162319  0.75140132  1
  Na  Na10  1  0.14591077  0.31795239  0.58366971  1
  Na  Na11  1  0.65226942  0.31379773  0.58312284  1
  Na  Na12  1  0.32342474  0.97708088  0.59148731  1
  Na  Na13  1  0.83457897  0.00026231  0.58562621  1
  Na  Na14  1  0.15780121  0.99685856  0.07401274  1
  Na  Na15  1  0.64445543  0.97085809  0.07739101  1
  Na  Na16  1  0.33743351  0.67169760  0.08087511  1
  Na  Na17  1  0.82131981  0.66948002  0.08464642  1
  Na  Na18  1  0.48940262  0.68781977  0.91661216  1
  Na  Na19  1  0.99482869  0.68890149  0.91463884  1
  Na  Na20  1  0.33839255  0.03499278  0.91082496  1
  Na  Na21  1  0.83539442  0.02533557  0.91186447  1
  Na  Na22  1  0.16987409  0.27415419  0.91313948  1
  Na  Na23  1  0.66357541  0.26983351  0.91403248  1
  Na  Na24  1  0.49648185  0.30358656  0.41950508  1
  Na  Na25  1  0.99001227  0.29716856  0.43436687  1
  Na  Na26  1  0.16744257  0.06270312  0.42248205  1
  Na  Na27  1  0.66893277  0.06414098  0.41972806  1
  Na  Na28  1  0.34031615  0.64611678  0.41805419  1
  Na  Na29  1  0.83504378  0.63996596  0.41666614  1
  Na  Na30  1  0.01645165  0.02766174  0.50900170  1
  Na  Na31  1  0.52027491  0.01390288  0.50394484  1
  Na  Na32  1  0.01839659  0.02592647  0.99626868  1
  Na  Na33  1  0.51732428  0.00491813  0.00197540  1
  Na  Na34  1  0.32604308  0.33397929  0.82488685  1
  Na  Na35  1  0.81116798  0.31900227  0.82963939  1
  Na  Na36  1  0.31587053  0.30714053  0.33222195  1
  Na  Na37  1  0.80949904  0.31358754  0.33544622  1
  Na  Na38  1  0.17029873  0.66940722  0.16396069  1
  Na  Na39  1  0.65036151  0.64813931  0.16043561  1
  Na  Na40  1  0.15321401  0.65232564  0.66472897  1
  Na  Na41  1  0.65845453  0.66837762  0.67323706  1
  Ca  Ca42  1  0.00869747  0.01270517  0.34901704  1
  Ca  Ca43  1  0.50866521  0.01205775  0.34741237  1
  Ca  Ca44  1  0.00747020  0.00386332  0.84692385  1
  Ca  Ca45  1  0.50819438  0.99648126  0.84535862  1
  Ca  Ca46  1  0.33032649  0.33328145  0.68094771  1
  Ca  Ca47  1  0.82582902  0.32656541  0.17877168  1
  Ca  Ca48  1  0.33131899  0.33598289  0.98798108  1
  Ca  Ca49  1  0.82633126  0.32183473  0.98624500  1
  Ca  Ca50  1  0.32612470  0.33157616  0.48782242  1
  Ca  Ca51  1  0.83146817  0.32784597  0.48948213  1
  Ca  Ca52  1  0.66557108  0.66247188  0.31788248  1
  Ca  Ca53  1  0.16695711  0.66921922  0.81710124  1
  Y  Y54  1  0.00774376  0.00691011  0.65019504  1
  Y  Y55  1  0.50988636  0.99621872  0.65486475  1
  Y  Y56  1  0.00865522  0.01181840  0.15107131  1
  Y  Y57  1  0.50874779  0.00920970  0.14930442  1
  Y  Y58  1  0.82908191  0.32802353  0.67896570  1
  Y  Y59  1  0.33052703  0.32980128  0.17836891  1
  Y  Y60  1  0.16270987  0.65885021  0.01543818  1
  Y  Y61  1  0.65340784  0.65675802  0.01959625  1
  Y  Y62  1  0.15410317  0.65006104  0.52134803  1
  Y  Y63  1  0.66260138  0.66546223  0.51674722  1
  Y  Y64  1  0.17175806  0.67621400  0.31698738  1
  Y  Y65  1  0.66754340  0.66823462  0.81480243  1
  Si  Si66  1  0.15341273  0.99726815  0.25012459  1
  Si  Si67  1  0.65478257  0.99818068  0.25185010  1
  Si  Si68  1  0.15283648  0.31116790  0.75188585  1
  Si  Si69  1  0.65508684  0.30927484  0.75044312  1
  Si  Si70  1  0.49739710  0.68681500  0.75479653  1
  Si  Si71  1  0.98322967  0.32521573  0.58404621  1
  Si  Si72  1  0.18285793  0.02689483  0.58229885  1
  Si  Si73  1  0.68008438  0.02489022  0.58071799  1
  Si  Si74  1  0.48328321  0.63979538  0.08513629  1
  Si  Si75  1  0.18077734  0.33830964  0.08369309  1
  Si  Si76  1  0.68243864  0.34094297  0.08380528  1
  Si  Si77  1  0.16719499  0.96927283  0.91800396  1
  Si  Si78  1  0.66914962  0.96988602  0.91724828  1
  Si  Si79  1  0.16802420  0.36969016  0.41431426  1
  Si  Si80  1  0.66797901  0.36549472  0.41611743  1
  S  S81  1  0.34967151  0.69849985  0.25069336  1
  S  S82  1  0.85309200  0.70468814  0.25010818  1
  S  S83  1  0.99943051  0.30313768  0.25148899  1
  S  S84  1  0.49716306  0.30139493  0.25178788  1
  S  S85  1  0.99759141  0.69291482  0.75161766  1
  S  S86  1  0.35118040  0.99886969  0.74979154  1
  S  S87  1  0.85154734  0.00342205  0.75062263  1
  S  S88  1  0.48332345  0.32876830  0.58240644  1
  S  S89  1  0.33484976  0.64520833  0.58192930  1
  S  S90  1  0.83172258  0.63696993  0.58097783  1
  S  S91  1  0.98424265  0.63716582  0.08438605  1
  S  S92  1  0.33111831  0.02604002  0.08132070  1
  S  S93  1  0.83570429  0.02642422  0.08335835  1
  S  S94  1  0.31624516  0.67017852  0.91706023  1
  S  S95  1  0.81708835  0.67022845  0.91901825  1
  S  S96  1  0.01459929  0.36581496  0.91574765  1
  S  S97  1  0.51524330  0.36422457  0.91480870  1
  S  S98  1  0.31716926  0.96475423  0.41855429  1
  S  S99  1  0.81691010  0.96443965  0.41523444  1
  S  S100  1  0.01636995  0.66519466  0.41352586  1
  S  S101  1  0.51433651  0.66334207  0.41526812  1
  O  O102  1  0.11196461  0.02285370  0.30719201  1
  O  O103  1  0.61399780  0.02238514  0.30964983  1
  O  O104  1  0.39503315  0.77944079  0.30316045  1
  O  O105  1  0.90031225  0.78811705  0.30186918  1
  O  O106  1  0.48752011  0.21150286  0.30550373  1
  O  O107  1  0.98568464  0.20520021  0.30359961  1
  O  O108  1  0.11073539  0.20712907  0.80992363  1
  O  O109  1  0.61564058  0.20328460  0.80847132  1
  O  O110  1  0.47867690  0.75688802  0.81268706  1
  O  O111  1  0.98749922  0.76266617  0.80556553  1
  O  O112  1  0.39861765  0.01335406  0.80189257  1
  O  O113  1  0.89773783  0.01527461  0.80297918  1
  O  O114  1  0.39313620  0.98284811  0.69818404  1
  O  O115  1  0.89185725  0.98451355  0.69944392  1
  O  O116  1  0.09332491  0.21220309  0.69687068  1
  O  O117  1  0.59761228  0.22120964  0.69335547  1
  O  O118  1  0.00281381  0.79750963  0.70292819  1
  O  O119  1  0.51159847  0.81277258  0.70175974  1
  O  O120  1  0.38945252  0.79732507  0.19963459  1
  O  O121  1  0.89405765  0.80617840  0.19873728  1
  O  O122  1  0.00933366  0.21606858  0.20200016  1
  O  O123  1  0.50256507  0.20852564  0.20287814  1
  O  O124  1  0.09423796  0.97064588  0.19418175  1
  O  O125  1  0.59644600  0.98047160  0.19689007  1
  O  O126  1  0.44540951  0.34878292  0.63282639  1
  O  O127  1  0.93712619  0.34390621  0.64008351  1
  O  O128  1  0.23942121  0.10919528  0.63842132  1
  O  O129  1  0.73741922  0.11692240  0.63675053  1
  O  O130  1  0.32603167  0.54559014  0.63190826  1
  O  O131  1  0.82030191  0.52700874  0.62923860  1
  O  O132  1  0.43931793  0.53249583  0.14290949  1
  O  O133  1  0.94708795  0.54190083  0.13676321  1
  O  O134  1  0.31916632  0.11134623  0.13073859  1
  O  O135  1  0.82795933  0.10778020  0.13524535  1
  O  O136  1  0.23590219  0.35939693  0.14111402  1
  O  O137  1  0.73636665  0.37247878  0.14204936  1
  O  O138  1  0.21916297  0.30401167  0.02709190  1
  O  O139  1  0.72378324  0.31038525  0.02752677  1
  O  O140  1  0.43259407  0.55586757  0.02740525  1
  O  O141  1  0.93721809  0.55394161  0.03302827  1
  O  O142  1  0.34310134  0.11679318  0.02901878  1
  O  O143  1  0.84955803  0.12723068  0.03231191  1
  O  O144  1  0.21969610  0.13301581  0.52341269  1
  O  O145  1  0.71873184  0.12933777  0.52252989  1
  O  O146  1  0.34812668  0.57377892  0.52912904  1
  O  O147  1  0.84476425  0.57131461  0.52730811  1
  O  O148  1  0.43801197  0.32079345  0.52925816  1
  O  O149  1  0.93668539  0.31272011  0.52414230  1
  O  O150  1  0.27208344  0.67917755  0.96908416  1
  O  O151  1  0.77746089  0.68542141  0.97158334  1
  O  O152  1  0.06951050  0.44776217  0.96558187  1
  O  O153  1  0.56862143  0.44502915  0.96505645  1
  O  O154  1  0.15865930  0.85744868  0.97541037  1
  O  O155  1  0.66520154  0.86367203  0.97386227  1
  O  O156  1  0.27711451  0.86885365  0.46976501  1
  O  O157  1  0.77378684  0.86488796  0.46644304  1
  O  O158  1  0.16258899  0.47117890  0.46903231  1
  O  O159  1  0.66077885  0.46678044  0.47140044  1
  O  O160  1  0.06972736  0.69043859  0.46298027  1
  O  O161  1  0.56934596  0.69008118  0.46445757  1
  O  O162  1  0.05717959  0.65023967  0.36102200  1
  O  O163  1  0.55186786  0.64591941  0.36254782  1
  O  O164  1  0.26365355  0.88605256  0.36782169  1
  O  O165  1  0.76765746  0.88691402  0.36347951  1
  O  O166  1  0.17441333  0.47538631  0.35642727  1
  O  O167  1  0.67662520  0.46839229  0.35815814  1
  O  O168  1  0.05278178  0.45885017  0.86360265  1
  O  O169  1  0.55683875  0.46182152  0.86318884  1
  O  O170  1  0.17405583  0.87679797  0.86159848  1
  O  O171  1  0.67859685  0.87482740  0.86168624  1
  O  O172  1  0.26655445  0.64933640  0.86606038  1
  O  O173  1  0.76365748  0.64359864  0.86928608  1
  O  O174  1  0.00391685  0.80725738  0.41003245  1
  O  O175  1  0.50052891  0.80460164  0.41306242  1
  O  O176  1  0.39649828  0.97059802  0.41097688  1
  O  O177  1  0.89690257  0.97161476  0.41224319  1
  O  O178  1  0.08482965  0.18900644  0.41715058  1
  O  O179  1  0.58329035  0.18489244  0.41888189  1
  O  O180  1  0.00109215  0.19671092  0.91376197  1
  O  O181  1  0.50305416  0.19717559  0.91139640  1
  O  O182  1  0.08236916  0.98099460  0.91946822  1
  O  O183  1  0.58613136  0.98438746  0.91928973  1
  O  O184  1  0.39519012  0.82522258  0.91549361  1
  O  O185  1  0.89662258  0.82442897  0.91248104  1
  O  O186  1  0.48651397  0.17325522  0.58485147  1
  O  O187  1  0.98416287  0.15065238  0.58765010  1
  O  O188  1  0.09258641  0.01286880  0.58802454  1
  O  O189  1  0.59149657  0.01813401  0.58590873  1
  O  O190  1  0.40326355  0.81625234  0.58786144  1
  O  O191  1  0.90019371  0.80345994  0.59048104  1
  O  O192  1  0.48543133  0.81762272  0.08892712  1
  O  O193  1  0.98652671  0.79848032  0.08769471  1
  O  O194  1  0.39963866  0.99595350  0.09146472  1
  O  O195  1  0.90437744  0.99274009  0.08974022  1
  O  O196  1  0.09062649  0.16982435  0.08905823  1
  O  O197  1  0.59234469  0.17436926  0.08819384  1
  O  O198  1  0.34386250  0.14719596  0.74572912  1
  O  O199  1  0.84749546  0.15735365  0.74687545  1
  O  O200  1  0.24261956  0.32488399  0.74825020  1
  O  O201  1  0.74295562  0.31242450  0.74438705  1
  O  O202  1  0.42240720  0.50111507  0.74583189  1
  O  O203  1  0.92812209  0.52465272  0.74542157  1
  O  O204  1  0.34455783  0.53518511  0.24754740  1
  O  O205  1  0.85027966  0.54478221  0.24612667  1
  O  O206  1  0.42743079  0.33073407  0.24609484  1
  O  O207  1  0.93009013  0.33066875  0.24330820  1
  O  O208  1  0.24217092  0.16597188  0.24441835  1
  O  O209  1  0.74709516  0.16182742  0.24903748  1
  O  O210  1  0.32821858  0.52742974  0.92081170  1
  O  O211  1  0.83233836  0.53065144  0.92202090  1
  O  O212  1  0.43601314  0.35730990  0.92021768  1
  O  O213  1  0.93594811  0.36098234  0.92388663  1
  O  O214  1  0.24978495  0.15044540  0.91923860  1
  O  O215  1  0.75245983  0.15209562  0.91548391  1
  O  O216  1  0.33114385  0.13442091  0.42123267  1
  O  O217  1  0.82858385  0.13137765  0.41912473  1
  O  O218  1  0.25170096  0.35554883  0.41400996  1
  O  O219  1  0.75092502  0.34943085  0.41809508  1
  O  O220  1  0.43501312  0.51046829  0.42309594  1
  O  O221  1  0.93665708  0.51311600  0.41852530  1
  O  O222  1  0.17902893  0.51104965  0.08107255  1
  O  O223  1  0.68072836  0.51301980  0.07778858  1
  O  O224  1  0.06999621  0.67051602  0.08073011  1
  O  O225  1  0.57886475  0.68080627  0.08489431  1
  O  O226  1  0.25409121  0.86178879  0.07891850  1
  O  O227  1  0.75938563  0.86545193  0.07833250  1
  O  O228  1  0.18118979  0.85129393  0.57668364  1
  O  O229  1  0.67885724  0.84915936  0.57866950  1
  O  O230  1  0.25815063  0.65294515  0.57642969  1
  O  O231  1  0.75498673  0.64643888  0.57748216  1
  O  O232  1  0.07909126  0.47485241  0.58504231  1
  O  O233  1  0.56958735  0.46813841  0.57862956  1
  O  O234  1  0.15390972  0.82224799  0.25214554  1
  O  O235  1  0.66222416  0.83144263  0.25023402  1
  O  O236  1  0.26419115  0.66880733  0.25277591  1
  O  O237  1  0.76993969  0.68235321  0.25225440  1
  O  O238  1  0.07638166  0.46487549  0.25505409  1
  O  O239  1  0.57415435  0.46284588  0.25225477  1
  O  O240  1  0.16080887  0.49251484  0.74985807  1
  O  O241  1  0.66010608  0.48746628  0.75301471  1
  O  O242  1  0.07469645  0.68657532  0.75199902  1
  O  O243  1  0.58455746  0.68381737  0.75527585  1
  O  O244  1  0.26889333  0.85138191  0.75180228  1
  O  O245  1  0.76721043  0.86295456  0.75297716  1
