# generated using pymatgen
data_Na8La3TaSi4(PO12)2
_symmetry_space_group_name_H-M   'P 1'
_cell_length_a   9.62557072
_cell_length_b   9.63789087
_cell_length_c   23.08977788
_cell_angle_alpha   90.14274203
_cell_angle_beta   89.97350915
_cell_angle_gamma   119.94833761
_symmetry_Int_Tables_number   1
_chemical_formula_structural   Na8La3TaSi4(PO12)2
_chemical_formula_sum   'Na24 La9 Ta3 Si12 P6 O72'
_cell_volume   1856.02237552
_cell_formula_units_Z   3
loop_
 _symmetry_equiv_pos_site_id
 _symmetry_equiv_pos_as_xyz
  1  'x, y, z'
loop_
 _atom_site_type_symbol
 _atom_site_label
 _atom_site_symmetry_multiplicity
 _atom_site_fract_x
 _atom_site_fract_y
 _atom_site_fract_z
 _atom_site_occupancy
  Na  Na0  1  0.62878050  0.99679151  0.25746662  1
  Na  Na1  1  0.36965919  0.37192573  0.25259013  1
  Na  Na2  1  0.00269595  0.62928668  0.25244440  1
  Na  Na3  1  0.63739119  0.64710488  0.73950844  1
  Na  Na4  1  0.00391989  0.35502240  0.74242246  1
  Na  Na5  1  0.35584217  0.00078085  0.75076528  1
  Na  Na6  1  0.29628926  0.34251040  0.57892176  1
  Na  Na7  1  0.03712488  0.69858800  0.57446713  1
  Na  Na8  1  0.66438666  0.95524283  0.57424916  1
  Na  Na9  1  0.29456800  0.95597518  0.07293119  1
  Na  Na10  1  0.65561126  0.69360739  0.07548557  1
  Na  Na11  1  0.04716236  0.34819099  0.07616525  1
  Na  Na12  1  0.98046790  0.68018025  0.91259622  1
  Na  Na13  1  0.70407277  0.03192968  0.90966801  1
  Na  Na14  1  0.31887439  0.29248794  0.90960378  1
  Na  Na15  1  0.97934041  0.31102871  0.42072330  1
  Na  Na16  1  0.33850341  0.02594417  0.42115767  1
  Na  Na17  1  0.68659743  0.66752083  0.42032024  1
  Na  Na18  1  0.99515420  0.99857262  0.49861530  1
  Na  Na19  1  0.00575027  0.99989153  0.99603183  1
  Na  Na20  1  0.65793934  0.32348672  0.82892780  1
  Na  Na21  1  0.66399244  0.33094304  0.33828921  1
  Na  Na22  1  0.32296876  0.65533144  0.16613848  1
  Na  Na23  1  0.33338270  0.65418117  0.66059743  1
  La  La24  1  0.00068395  0.99963971  0.34881490  1
  La  La25  1  0.99902822  0.00230443  0.84455823  1
  La  La26  1  0.99282758  0.00415358  0.65137516  1
  La  La27  1  0.00331576  0.99885415  0.14381353  1
  La  La28  1  0.66718365  0.33499544  0.68150098  1
  La  La29  1  0.66683275  0.33679939  0.17849103  1
  La  La30  1  0.33178356  0.66431242  0.00801072  1
  La  La31  1  0.33322490  0.66363259  0.51094126  1
  La  La32  1  0.33315142  0.66537256  0.32691642  1
  Ta  Ta33  1  0.66506949  0.33734512  0.97814429  1
  Ta  Ta34  1  0.67145062  0.33834568  0.48563545  1
  Ta  Ta35  1  0.33637064  0.66512992  0.82338696  1
  Si  Si36  1  0.31207172  0.32523822  0.75505360  1
  Si  Si37  1  0.67177285  0.98548290  0.75535822  1
  Si  Si38  1  0.96309363  0.32888103  0.58444651  1
  Si  Si39  1  0.67317167  0.63609864  0.58414122  1
  Si  Si40  1  0.95912621  0.63115433  0.07888350  1
  Si  Si41  1  0.36810027  0.32821420  0.07933707  1
  Si  Si42  1  0.63206378  0.65386187  0.91995055  1
  Si  Si43  1  0.02137339  0.36949392  0.91912970  1
  Si  Si44  1  0.34580187  0.97624291  0.91992327  1
  Si  Si45  1  0.64848779  0.99294133  0.41926575  1
  Si  Si46  1  0.34471945  0.35041551  0.41879263  1
  Si  Si47  1  0.00815238  0.65691779  0.41935654  1
  P  P48  1  0.30949476  0.99133131  0.24898970  1
  P  P49  1  0.68375185  0.69211078  0.24871686  1
  P  P50  1  0.00616007  0.31415853  0.24874469  1
  P  P51  1  0.02050831  0.69093925  0.75499802  1
  P  P52  1  0.36816223  0.04274835  0.58098609  1
  P  P53  1  0.67454308  0.04794425  0.07640658  1
  O  O54  1  0.22111213  -0.00268456  0.30412664  1
  O  O55  1  0.77617392  0.78256499  0.30394425  1
  O  O56  1  0.00536506  0.22242587  0.30377900  1
  O  O57  1  0.23505299  0.21083546  0.81105960  1
  O  O58  1  0.99073539  0.76606563  0.80904879  1
  O  O59  1  0.78371414  0.01891134  0.81180982  1
  O  O60  1  0.75281246  0.94779285  0.69850690  1
  O  O61  1  0.19569730  0.24357384  0.69771020  1
  O  O62  1  0.04697467  0.79781299  0.70081607  1
  O  O63  1  0.77643509  0.78753103  0.19399699  1
  O  O64  1  0.00869162  0.22147047  0.19373632  1
  O  O65  1  0.21285246  0.98800030  0.19434687  1
  O  O66  1  0.88949524  0.33381667  0.64706538  1
  O  O67  1  0.44610242  0.11114028  0.64003919  1
  O  O68  1  0.66171985  0.55354515  0.64636448  1
  O  O69  1  0.88628924  0.54451826  0.14064070  1
  O  O70  1  0.66416186  0.11810461  0.13512634  1
  O  O71  1  0.45123177  0.33511570  0.14129517  1
  O  O72  1  0.49205063  0.32533949  0.02586798  1
  O  O73  1  0.83404852  0.50566014  0.02515231  1
  O  O74  1  0.67350502  0.16006166  0.02573192  1
  O  O75  1  0.48397832  0.15370530  0.53123172  1
  O  O76  1  0.66575040  0.50650282  0.53214151  1
  O  O77  1  0.83864902  0.33154875  0.53252395  1
  O  O78  1  0.57577429  0.69168529  0.98044156  1
  O  O79  1  0.11464751  0.42858737  0.97989673  1
  O  O80  1  0.31217774  0.88292520  0.98041840  1
  O  O81  1  0.56834825  0.87035063  0.47337226  1
  O  O82  1  0.30209932  0.43075512  0.47296577  1
  O  O83  1  0.12771809  0.69684041  0.47420899  1
  O  O84  1  0.08226144  0.61667954  0.36155235  1
  O  O85  1  0.53541863  0.91740777  0.36104658  1
  O  O86  1  0.38426244  0.46442274  0.36094239  1
  O  O87  1  0.14169839  0.50607193  0.86847592  1
  O  O88  1  0.36018146  0.85565338  0.86870880  1
  O  O89  1  0.49350349  0.63704643  0.86953276  1
  O  O90  1  0.96407030  0.79882963  0.41434064  1
  O  O91  1  0.83422823  0.03448388  0.41424336  1
  O  O92  1  0.19983320  0.16538219  0.41401813  1
  O  O93  1  0.98840785  0.18911367  0.90869509  1
  O  O94  1  0.19865483  0.00969102  0.90939584  1
  O  O95  1  0.81344721  0.79261964  0.90693757  1
  O  O96  1  0.96565303  0.16048938  0.57596326  1
  O  O97  1  0.20731596  0.04158094  0.57516343  1
  O  O98  1  0.84554411  0.80271009  0.57649708  1
  O  O99  1  0.95266490  0.79797933  0.07200820  1
  O  O100  1  0.83567084  0.04800011  0.07118250  1
  O  O101  1  0.19713101  0.15948056  0.07169119  1
  O  O102  1  0.63357983  0.13247129  0.75041677  1
  O  O103  1  0.49867179  0.36725785  0.75108092  1
  O  O104  1  0.88098666  0.51692699  0.74978011  1
  O  O105  1  0.66526553  0.52204591  0.25160005  1
  O  O106  1  0.85403472  0.33195647  0.25180631  1
  O  O107  1  0.48119475  0.14065478  0.25098242  1
  O  O108  1  0.62521015  0.47519411  0.92201389  1
  O  O109  1  0.84666324  0.36980049  0.92073704  1
  O  O110  1  0.52216883  0.14974077  0.92187504  1
  O  O111  1  0.65369256  0.16659896  0.43135315  1
  O  O112  1  0.51178626  0.34250370  0.43072121  1
  O  O113  1  0.83269358  0.48797230  0.43088969  1
  O  O114  1  0.34958327  0.48756417  0.07754871  1
  O  O115  1  0.14075340  0.65920107  0.07663346  1
  O  O116  1  0.52897632  0.87763047  0.07326949  1
  O  O117  1  0.34514603  0.87244392  0.57640328  1
  O  O118  1  0.51735207  0.66171531  0.58009059  1
  O  O119  1  0.14131772  0.48889079  0.58063589  1
  O  O120  1  0.32062310  0.83544734  0.24806761  1
  O  O121  1  0.51503848  0.67769554  0.24759177  1
  O  O122  1  0.16046568  0.48265804  0.24753165  1
  O  O123  1  0.31058929  0.49768939  0.76660828  1
  O  O124  1  0.18164334  0.68770898  0.76369140  1
  O  O125  1  0.49729810  0.81450102  0.76675424  1
