# generated using pymatgen
data_Na3LaSiGe(PO6)2
_symmetry_space_group_name_H-M   'P 1'
_cell_length_a   9.42893905
_cell_length_b   9.42893870
_cell_length_c   22.11851810
_cell_angle_alpha   92.96255006
_cell_angle_beta   87.03744991
_cell_angle_gamma   121.01384364
_symmetry_Int_Tables_number   1
_chemical_formula_structural   Na3LaSiGe(PO6)2
_chemical_formula_sum   'Na18 La6 Si6 Ge6 P12 O72'
_cell_volume   1682.35345709
_cell_formula_units_Z   6
loop_
 _symmetry_equiv_pos_site_id
 _symmetry_equiv_pos_as_xyz
  1  'x, y, z'
loop_
 _atom_site_type_symbol
 _atom_site_label
 _atom_site_symmetry_multiplicity
 _atom_site_fract_x
 _atom_site_fract_y
 _atom_site_fract_z
 _atom_site_occupancy
  Na  Na0  1  0.00170136  0.98410668  0.50271796  1
  Na  Na1  1  0.01589332  0.99829864  0.00271796  1
  Na  Na2  1  0.67928318  0.31896179  0.83427433  1
  Na  Na3  1  0.68103821  0.32071682  0.33427433  1
  Na  Na4  1  0.38627611  0.69831953  0.16888633  1
  Na  Na5  1  0.30168047  0.61372389  0.66888633  1
  Na  Na6  1  0.34069871  0.33675691  0.24753990  1
  Na  Na7  1  0.99533882  0.64369091  0.23961039  1
  Na  Na8  1  0.66324309  0.65930129  0.74753990  1
  Na  Na9  1  0.35630909  0.00466118  0.73961039  1
  Na  Na10  1  0.03575449  0.70520883  0.58404874  1
  Na  Na11  1  0.65342455  0.98310461  0.58194724  1
  Na  Na12  1  0.29479117  0.96424551  0.08404874  1
  Na  Na13  1  0.01689539  0.34657545  0.08194724  1
  Na  Na14  1  0.00466907  0.69616542  0.91272658  1
  Na  Na15  1  0.68761680  0.02333095  0.91863535  1
  Na  Na16  1  0.97666905  0.31238320  0.41863535  1
  Na  Na17  1  0.30383458  0.99533093  0.41272658  1
  La  La18  1  0.97952547  0.98373174  0.35075067  1
  La  La19  1  0.01626826  0.02047453  0.85075067  1
  La  La20  1  0.68138407  0.34008495  0.68453955  1
  La  La21  1  0.65991505  0.31861593  0.18453955  1
  La  La22  1  0.33221082  0.66106662  0.01477011  1
  La  La23  1  0.33893338  0.66778918  0.51477011  1
  Si  Si24  1  0.01890333  0.30637082  0.25422964  1
  Si  Si25  1  0.69362918  0.98109667  0.75422964  1
  Si  Si26  1  0.35787036  0.06126315  0.58364204  1
  Si  Si27  1  0.93873685  0.64212964  0.08364204  1
  Si  Si28  1  0.36214163  0.98429372  0.92349148  1
  Si  Si29  1  0.01570628  0.63785837  0.42349148  1
  Ge  Ge30  1  0.01016929  0.04004163  0.64598801  1
  Ge  Ge31  1  0.95995837  0.98983071  0.14598801  1
  Ge  Ge32  1  0.65128493  0.36571714  0.97442264  1
  Ge  Ge33  1  0.63428286  0.34871507  0.47442264  1
  Ge  Ge34  1  0.31525148  0.65760500  0.31235739  1
  Ge  Ge35  1  0.34239500  0.68474852  0.81235739  1
  P  P36  1  0.28451082  0.96065816  0.25473975  1
  P  P37  1  0.67500394  0.71359146  0.24740068  1
  P  P38  1  0.28640854  0.32499606  0.74740068  1
  P  P39  1  0.03934184  0.71548918  0.75473975  1
  P  P40  1  0.97378307  0.30840045  0.57926079  1
  P  P41  1  0.69686575  0.64997700  0.58494961  1
  P  P42  1  0.69159955  0.02621693  0.07926079  1
  P  P43  1  0.35002300  0.30313425  0.08494961  1
  P  P44  1  0.62350334  0.64390442  0.90683259  1
  P  P45  1  0.01929077  0.39783625  0.91904909  1
  P  P46  1  0.60216375  0.98070923  0.41904909  1
  P  P47  1  0.35609558  0.37649666  0.40683259  1
  O  O48  1  0.20556962  0.96572976  0.31606211  1
  O  O49  1  0.78559606  0.75452798  0.30121701  1
  O  O50  1  0.01799678  0.22629136  0.31647265  1
  O  O51  1  0.24547202  0.21440394  0.80121701  1
  O  O52  1  0.03427024  0.79443038  0.81606211  1
  O  O53  1  0.77370864  0.98200322  0.81647265  1
  O  O54  1  0.81791111  0.96904470  0.69519992  1
  O  O55  1  0.16147060  0.22439497  0.69453561  1
  O  O56  1  0.06577421  0.82698159  0.70127026  1
  O  O57  1  0.77560503  0.83852940  0.19453561  1
  O  O58  1  0.03095530  0.18208889  0.19519992  1
  O  O59  1  0.17301841  0.93422579  0.20127026  1
  O  O60  1  0.89666755  0.34018046  0.63722828  1
  O  O61  1  0.45779555  0.12351513  0.64541354  1
  O  O62  1  0.69223065  0.57329205  0.64441706  1
  O  O63  1  0.87648487  0.54220445  0.14541354  1
  O  O64  1  0.65981954  0.10333245  0.13722828  1
  O  O65  1  0.42670795  0.30776935  0.14441706  1
  O  O66  1  0.46577375  0.29899182  0.02979577  1
  O  O67  1  0.81079797  0.53077296  0.02446029  1
  O  O68  1  0.71807780  0.12491909  0.02306494  1
  O  O69  1  0.46922704  0.18920203  0.52446029  1
  O  O70  1  0.70100818  0.53422625  0.52979577  1
  O  O71  1  0.87508091  0.28192220  0.52306494  1
  O  O72  1  0.55605532  0.68720641  0.96366091  1
  O  O73  1  0.07784658  0.43852187  0.98409015  1
  O  O74  1  0.35879198  0.89988308  0.98514125  1
  O  O75  1  0.56147813  0.92215342  0.48409015  1
  O  O76  1  0.31279359  0.44394468  0.46366091  1
  O  O77  1  0.10011692  0.64120802  0.48514125  1
  O  O78  1  0.12718369  0.61175927  0.36302990  1
  O  O79  1  0.46354043  0.84611067  0.37628052  1
  O  O80  1  0.37259861  0.47510993  0.34967923  1
  O  O81  1  0.15388933  0.53645957  0.87628052  1
  O  O82  1  0.38824073  0.87281631  0.86302990  1
  O  O83  1  0.52489007  0.62740139  0.84967923  1
  O  O84  1  0.00544772  0.80368981  0.41950093  1
  O  O85  1  0.77917071  0.02120987  0.40403390  1
  O  O86  1  0.22579626  0.19034193  0.40343997  1
  O  O87  1  0.97879013  0.22082929  0.90403390  1
  O  O88  1  0.19631019  0.99455228  0.91950093  1
  O  O89  1  0.80965807  0.77420374  0.90343997  1
  O  O90  1  0.94986257  0.12778969  0.58674087  1
  O  O91  1  0.17397441  0.05030101  0.59203528  1
  O  O92  1  0.86817661  0.81646286  0.58144181  1
  O  O93  1  0.94969899  0.82602559  0.09203528  1
  O  O94  1  0.87221031  0.05013743  0.08674087  1
  O  O95  1  0.18353714  0.13182339  0.08144181  1
  O  O96  1  0.65105418  0.12724505  0.75025271  1
  O  O97  1  0.46596463  0.38496401  0.72893565  1
  O  O98  1  0.88108389  0.54342554  0.75132502  1
  O  O99  1  0.61503599  0.53403537  0.22893565  1
  O  O100  1  0.87275495  0.34894582  0.25025271  1
  O  O101  1  0.45657446  0.11891611  0.25132502  1
  O  O102  1  0.60704294  0.46807021  0.91430065  1
  O  O103  1  0.85672933  0.40732506  0.91485951  1
  O  O104  1  0.54415054  0.17085037  0.92429146  1
  O  O105  1  0.59267494  0.14327067  0.41485951  1
  O  O106  1  0.53192979  0.39295706  0.41430065  1
  O  O107  1  0.82914963  0.45584946  0.42429146  1
  O  O108  1  0.31418717  0.44429785  0.08098911  1
  O  O109  1  0.12674513  0.68001806  0.07298771  1
  O  O110  1  0.55685106  0.84211427  0.07949910  1
  O  O111  1  0.31998194  0.87325487  0.57298771  1
  O  O112  1  0.55570215  0.68581283  0.58098911  1
  O  O113  1  0.15788573  0.44314894  0.57949910  1
  O  O114  1  0.29271104  0.79531342  0.25484238  1
  O  O115  1  0.52285525  0.73633564  0.26199864  1
  O  O116  1  0.20497157  0.48843959  0.25069506  1
  O  O117  1  0.26366436  0.47714475  0.76199864  1
  O  O118  1  0.20468658  0.70728896  0.75484238  1
  O  O119  1  0.51156041  0.79502843  0.75069506  1
