# generated using pymatgen
data_Ho2MgMo2(ClO4)2
_symmetry_space_group_name_H-M   'P 1'
_cell_length_a   6.48030918
_cell_length_b   6.49142217
_cell_length_c   6.94854768
_cell_angle_alpha   72.98595525
_cell_angle_beta   72.99932188
_cell_angle_gamma   66.22450802
_symmetry_Int_Tables_number   1
_chemical_formula_structural   Ho2MgMo2(ClO4)2
_chemical_formula_sum   'Ho2 Mg1 Mo2 Cl2 O8'
_cell_volume   250.65395745
_cell_formula_units_Z   1
loop_
 _symmetry_equiv_pos_site_id
 _symmetry_equiv_pos_as_xyz
  1  'x, y, z'
loop_
 _atom_site_type_symbol
 _atom_site_label
 _atom_site_symmetry_multiplicity
 _atom_site_fract_x
 _atom_site_fract_y
 _atom_site_fract_z
 _atom_site_occupancy
  Ho  Ho0  1  0.23411600  0.24452800  0.89358900  1
  Ho  Ho1  1  0.75462700  0.76487400  0.10626600  1
  Mg  Mg2  1  0.69011200  0.30969300  0.50028700  1
  Mo  Mo3  1  0.64331000  0.63888000  0.73244300  1
  Mo  Mo4  1  0.36138800  0.35515200  0.26722100  1
  Cl  Cl5  1  0.95249500  0.04758400  0.24883600  1
  Cl  Cl6  1  0.95330400  0.04545500  0.75135500  1
  O  O7  1  0.55042300  0.52615000  0.22380100  1
  O  O8  1  0.75493100  0.61855500  0.45588400  1
  O  O9  1  0.48524900  0.88107000  0.86959800  1
  O  O10  1  0.90603400  0.53984300  0.84443300  1
  O  O11  1  0.38111200  0.24432600  0.54409100  1
  O  O12  1  0.45977600  0.09314200  0.15518400  1
  O  O13  1  0.11824300  0.51328300  0.13062900  1
  O  O14  1  0.47363100  0.44829700  0.77638300  1
