# generated using pymatgen
data_MgV2Bi4O11
_symmetry_space_group_name_H-M   'P 1'
_cell_length_a   6.59686916
_cell_length_b   6.26492632
_cell_length_c   8.43838748
_cell_angle_alpha   97.42239748
_cell_angle_beta   113.40715099
_cell_angle_gamma   71.64733139
_symmetry_Int_Tables_number   1
_chemical_formula_structural   MgV2Bi4O11
_chemical_formula_sum   'Mg1 V2 Bi4 O11'
_cell_volume   303.76676970
_cell_formula_units_Z   1
loop_
 _symmetry_equiv_pos_site_id
 _symmetry_equiv_pos_as_xyz
  1  'x, y, z'
loop_
 _atom_site_type_symbol
 _atom_site_label
 _atom_site_symmetry_multiplicity
 _atom_site_fract_x
 _atom_site_fract_y
 _atom_site_fract_z
 _atom_site_occupancy
  Mg  Mg0  1  0.58730276  0.41970450  0.35437367  1
  V  V1  1  0.48839944  0.44386777  0.00135387  1
  V  V2  1  0.97242187  0.94992041  0.97604657  1
  Bi  Bi3  1  0.06843829  0.41645740  0.32622772  1
  Bi  Bi4  1  0.20417549  0.93402668  0.62564006  1
  Bi  Bi5  1  0.57626319  0.92101863  0.34492959  1
  Bi  Bi6  1  0.72355021  0.43322104  0.73633872  1
  O  O7  1  0.99268115  0.73716713  0.46271630  1
  O  O8  1  0.93592065  0.25430679  0.45973097  1
  O  O9  1  0.38009413  0.32788441  0.11606707  1
  O  O10  1  0.19491559  0.95915152  0.18056432  1
  O  O11  1  0.39854098  0.60372413  0.80428021  1
  O  O12  1  0.53588327  0.70184567  0.49729295  1
  O  O13  1  0.46761402  0.27634849  0.49249953  1
  O  O14  1  0.73106792  0.22508761  0.95833688  1
  O  O15  1  0.65795902  0.58764922  0.19305283  1
  O  O16  1  0.00082589  0.05422812  0.78644244  1
  O  O17  1  0.89119612  0.70379050  0.92023829  1
