# generated using pymatgen
data_Na6Ti7Zn(PO4)12
_symmetry_space_group_name_H-M   'P 1'
_cell_length_a   17.33945259
_cell_length_b   8.67397743
_cell_length_c   22.24973441
_cell_angle_alpha   90.01947004
_cell_angle_beta   89.98763869
_cell_angle_gamma   120.00067798
_symmetry_Int_Tables_number   1
_chemical_formula_structural   Na6Ti7Zn(PO4)12
_chemical_formula_sum   'Na18 Ti21 Zn3 P36 O144'
_cell_volume   2898.05177784
_cell_formula_units_Z   3
loop_
 _symmetry_equiv_pos_site_id
 _symmetry_equiv_pos_as_xyz
  1  'x, y, z'
loop_
 _atom_site_type_symbol
 _atom_site_label
 _atom_site_symmetry_multiplicity
 _atom_site_fract_x
 _atom_site_fract_y
 _atom_site_fract_z
 _atom_site_occupancy
  Na  Na0  1  0.68559904  0.36627526  0.24795804  1
  Na  Na1  1  0.99719843  0.62848143  0.24793294  1
  Na  Na2  1  0.99632458  0.36454436  0.74669141  1
  Na  Na3  1  0.49642318  0.36463148  0.74675850  1
  Na  Na4  1  0.18524181  0.00461895  0.74672751  1
  Na  Na5  1  0.68525913  0.00466347  0.74681935  1
  Na  Na6  1  0.00005489  0.99964958  0.49957962  1
  Na  Na7  1  0.50010544  0.00033440  0.49967859  1
  Na  Na8  1  0.99966723  0.99927962  0.00054830  1
  Na  Na9  1  0.50050565  0.00122941  0.00040402  1
  Na  Na10  1  0.33311049  0.34031549  0.83287185  1
  Na  Na11  1  0.83292676  0.34009338  0.83349441  1
  Na  Na12  1  0.33322224  0.33338746  0.33428853  1
  Na  Na13  1  0.83319311  0.32539787  0.33341927  1
  Na  Na14  1  0.16921846  0.66641578  0.16612102  1
  Na  Na15  1  0.66750166  0.67448399  0.16574094  1
  Na  Na16  1  0.17001456  0.66565392  0.66318230  1
  Na  Na17  1  0.66999291  0.66570806  0.66334092  1
  Ti  Ti18  1  0.00098988  0.00314949  0.35437669  1
  Ti  Ti19  1  0.49908136  0.99860633  0.35447653  1
  Ti  Ti20  1  0.99996664  0.99863858  0.85432358  1
  Ti  Ti21  1  0.50047071  0.99894737  0.85436044  1
  Ti  Ti22  1  0.99890359  0.99872845  0.64264456  1
  Ti  Ti23  1  0.49899100  0.99847363  0.64268759  1
  Ti  Ti24  1  0.99816481  0.00080516  0.14540614  1
  Ti  Ti25  1  0.50093184  0.99890369  0.14583695  1
  Ti  Ti26  1  0.33316308  0.33482849  0.18647714  1
  Ti  Ti27  1  0.33362857  0.33264243  0.98035397  1
  Ti  Ti28  1  0.83331574  0.33210892  0.98228610  1
  Ti  Ti29  1  0.33332988  0.33377963  0.48175041  1
  Ti  Ti30  1  0.83358202  0.33510635  0.48133681  1
  Ti  Ti31  1  0.16556105  0.66643804  0.02102649  1
  Ti  Ti32  1  0.66754555  0.66658907  0.02105622  1
  Ti  Ti33  1  0.16659161  0.66711512  0.52022065  1
  Ti  Ti34  1  0.66679043  0.66656408  0.52039572  1
  Ti  Ti35  1  0.17013274  0.66593893  0.31472328  1
  Ti  Ti36  1  0.66595217  0.67353283  0.31550590  1
  Ti  Ti37  1  0.16933689  0.66547874  0.81584857  1
  Ti  Ti38  1  0.66927086  0.66597635  0.81608354  1
  Zn  Zn39  1  0.33306923  0.33932331  0.68166866  1
  Zn  Zn40  1  0.83300400  0.33915965  0.68166380  1
  Zn  Zn41  1  0.83324619  0.32593423  0.18277951  1
  P  P42  1  0.14482553  0.00273818  0.24979199  1
  P  P43  1  0.64324597  0.99659198  0.25070548  1
  P  P44  1  0.35674486  0.71315608  0.24976694  1
  P  P45  1  0.85524887  0.71564980  0.25074852  1
  P  P46  1  0.00042770  0.28714462  0.25064672  1
  P  P47  1  0.49837358  0.28679827  0.25010285  1
  P  P48  1  0.14455772  0.28908361  0.75034166  1
  P  P49  1  0.64464711  0.28942098  0.75027613  1
  P  P50  1  0.99830722  0.71109962  0.75048914  1
  P  P51  1  0.49829950  0.71106112  0.75047079  1
  P  P52  1  0.35591723  0.99552307  0.75040618  1
  P  P53  1  0.85579033  0.99543202  0.75034205  1
  P  P54  1  0.47887886  0.33491447  0.58405481  1
  P  P55  1  0.97885499  0.33509668  0.58399347  1
  P  P56  1  0.18874594  0.04245850  0.58421081  1
  P  P57  1  0.68885966  0.04255483  0.58408241  1
  P  P58  1  0.33218671  0.62189330  0.58347763  1
  P  P59  1  0.83228530  0.62191801  0.58352899  1
  P  P60  1  0.47723885  0.62092760  0.08325318  1
  P  P61  1  0.97858818  0.62453694  0.08399981  1
  P  P62  1  0.33348518  0.04561432  0.08355908  1
  P  P63  1  0.83292324  0.04254365  0.08329631  1
  P  P64  1  0.18938407  0.33338014  0.08320228  1
  P  P65  1  0.68806093  0.33339544  0.08411404  1
  P  P66  1  0.31143703  0.66655048  0.91806965  1
  P  P67  1  0.81162408  0.66550017  0.91773704  1
  P  P68  1  0.02171707  0.37755409  0.91705996  1
  P  P69  1  0.52213066  0.37782791  0.91708088  1
  P  P70  1  0.16702468  0.95595406  0.91702284  1
  P  P71  1  0.66722692  0.95629971  0.91732281  1
  P  P72  1  0.31078283  0.95609544  0.41707479  1
  P  P73  1  0.81126806  0.95660178  0.41738302  1
  P  P74  1  0.16725838  0.37809647  0.41744897  1
  P  P75  1  0.66692582  0.37840896  0.41635568  1
  P  P76  1  0.02238751  0.66620763  0.41634682  1
  P  P77  1  0.52165969  0.66581029  0.41741752  1
  O  O78  1  0.10131225  0.03079085  0.30620860  1
  O  O79  1  0.59648090  0.02613692  0.30576146  1
  O  O80  1  0.41451066  0.79891105  0.30608804  1
  O  O81  1  0.91647557  0.80584367  0.30577999  1
  O  O82  1  0.48421211  0.17015007  0.30610703  1
  O  O83  1  0.98877858  0.17013974  0.30638798  1
  O  O84  1  0.09776772  0.16926506  0.80625222  1
  O  O85  1  0.59775290  0.16928274  0.80620312  1
  O  O86  1  0.48801246  0.80566140  0.80673240  1
  O  O87  1  0.98806579  0.80576895  0.80675176  1
  O  O88  1  0.41585858  0.02609367  0.80615555  1
  O  O89  1  0.91586106  0.02614792  0.80608663  1
  O  O90  1  0.39933789  0.96704350  0.69407610  1
  O  O91  1  0.89943498  0.96709017  0.69407697  1
  O  O92  1  0.08342309  0.20416053  0.69481301  1
  O  O93  1  0.58339674  0.20402866  0.69479275  1
  O  O94  1  0.01799435  0.83395003  0.69506413  1
  O  O95  1  0.51786649  0.83381725  0.69504293  1
  O  O96  1  0.39986729  0.83054285  0.19367603  1
  O  O97  1  0.89967596  0.83117653  0.19417112  1
  O  O98  1  0.01546886  0.19960649  0.19430820  1
  O  O99  1  0.51682523  0.20145076  0.19447766  1
  O  O100  1  0.08396661  0.96567532  0.19425459  1
  O  O101  1  0.58438380  0.96828919  0.19420124  1
  O  O102  1  0.44488145  0.37004419  0.64229286  1
  O  O103  1  0.94487000  0.36995767  0.64230753  1
  O  O104  1  0.24086312  0.10999968  0.64229400  1
  O  O105  1  0.74077790  0.10976249  0.64227758  1
  O  O106  1  0.31319033  0.51427535  0.63995188  1
  O  O107  1  0.81313077  0.51426983  0.63999811  1
  O  O108  1  0.43330646  0.50314614  0.13925732  1
  O  O109  1  0.94485323  0.51893962  0.14201877  1
  O  O110  1  0.31821018  0.13388933  0.13933263  1
  O  O111  1  0.81289000  0.11250839  0.13976701  1
  O  O112  1  0.24851827  0.36417506  0.13927916  1
  O  O113  1  0.74104129  0.37154359  0.14207590  1
  O  O114  1  0.23358260  0.30346502  0.02723333  1
  O  O115  1  0.73332776  0.30317363  0.02829966  1
  O  O116  1  0.41818305  0.53319560  0.02719987  1
  O  O117  1  0.91853853  0.53302621  0.02816952  1
  O  O118  1  0.34834253  0.16341121  0.02731405  1
  O  O119  1  0.84849279  0.16199644  0.02695347  1
  O  O120  1  0.23350040  0.16373990  0.52844958  1
  O  O121  1  0.73356519  0.16388569  0.52838198  1
  O  O122  1  0.34862833  0.53475203  0.52706956  1
  O  O123  1  0.84864221  0.53503150  0.52707048  1
  O  O124  1  0.41835966  0.30374421  0.52832806  1
  O  O125  1  0.91830730  0.30363267  0.52829885  1
  O  O126  1  0.26689068  0.69701665  0.97283388  1
  O  O127  1  0.76712442  0.69686873  0.97234276  1
  O  O128  1  0.08222830  0.46754414  0.97200055  1
  O  O129  1  0.58159850  0.46719144  0.97182566  1
  O  O130  1  0.15230159  0.83667960  0.97194511  1
  O  O131  1  0.65140890  0.83591670  0.97200573  1
  O  O132  1  0.26740027  0.83746659  0.47216521  1
  O  O133  1  0.76735256  0.83744848  0.47219325  1
  O  O134  1  0.15149366  0.46537584  0.47240563  1
  O  O135  1  0.65145583  0.46643087  0.47142687  1
  O  O136  1  0.08171845  0.69666964  0.47153590  1
  O  O137  1  0.58122832  0.69760600  0.47230165  1
  O  O138  1  0.06492026  0.63663088  0.35875875  1
  O  O139  1  0.56631605  0.63678751  0.36077375  1
  O  O140  1  0.25193494  0.86658147  0.36047007  1
  O  O141  1  0.75172292  0.86677541  0.36073111  1
  O  O142  1  0.18173698  0.49611953  0.36077964  1
  O  O143  1  0.68143063  0.49246276  0.35867633  1
  O  O144  1  0.06512289  0.49316985  0.85947527  1
  O  O145  1  0.56448595  0.49264319  0.85928877  1
  O  O146  1  0.18182949  0.87072704  0.85935852  1
  O  O147  1  0.68142958  0.87000751  0.85943124  1
  O  O148  1  0.25198907  0.63685765  0.86123159  1
  O  O149  1  0.75199038  0.63714680  0.86101681  1
  O  O150  1  0.01290690  0.83342745  0.40876585  1
  O  O151  1  0.51268542  0.83316015  0.40881407  1
  O  O152  1  0.40360401  0.97399962  0.40874953  1
  O  O153  1  0.90378608  0.97425809  0.40879316  1
  O  O154  1  0.08364964  0.19263561  0.40930272  1
  O  O155  1  0.58310700  0.19183670  0.40857491  1
  O  O156  1  0.01316350  0.19272822  0.90932867  1
  O  O157  1  0.51255693  0.19222053  0.90918250  1
  O  O158  1  0.08357531  0.97446867  0.90963523  1
  O  O159  1  0.58341725  0.97448421  0.90943567  1
  O  O160  1  0.40358951  0.83316913  0.90941467  1
  O  O161  1  0.90361255  0.83340120  0.90916389  1
  O  O162  1  0.48835071  0.16537024  0.58924293  1
  O  O163  1  0.98837214  0.16541803  0.58932169  1
  O  O164  1  0.09458065  0.02392145  0.58980485  1
  O  O165  1  0.59457182  0.02381261  0.58984400  1
  O  O166  1  0.41734472  0.81045119  0.58945501  1
  O  O167  1  0.91731984  0.81049879  0.58947317  1
  O  O168  1  0.48629054  0.80662949  0.09056395  1
  O  O169  1  0.98904381  0.81254251  0.08902253  1
  O  O170  1  0.41676308  0.02644464  0.09102815  1
  O  O171  1  0.91746725  0.02376093  0.08885495  1
  O  O172  1  0.09670618  0.16718277  0.09080114  1
  O  O173  1  0.59394656  0.16431806  0.08943449  1
  O  O174  1  0.34525647  0.16011739  0.74741037  1
  O  O175  1  0.84533907  0.16021586  0.74738252  1
  O  O176  1  0.23522293  0.30410680  0.74725136  1
  O  O177  1  0.73519885  0.30404490  0.74719653  1
  O  O178  1  0.41900303  0.52463331  0.74754654  1
  O  O179  1  0.91903994  0.52472383  0.74754739  1
  O  O180  1  0.34647280  0.52644731  0.24205578  1
  O  O181  1  0.84569220  0.53016397  0.24702992  1
  O  O182  1  0.41600569  0.30782750  0.24241079  1
  O  O183  1  0.91972097  0.31266884  0.24735788  1
  O  O184  1  0.23782171  0.16816791  0.24227865  1
  O  O185  1  0.73403138  0.16497821  0.24699540  1
  O  O186  1  0.32002437  0.49896246  0.92394619  1
  O  O187  1  0.82020984  0.49866789  0.92363545  1
  O  O188  1  0.42917135  0.35943057  0.92393548  1
  O  O189  1  0.92943155  0.36005168  0.92370670  1
  O  O190  1  0.25050385  0.14159865  0.92391388  1
  O  O191  1  0.75043548  0.14164079  0.92370153  1
  O  O192  1  0.32036089  0.14158259  0.42375040  1
  O  O193  1  0.82024185  0.14154311  0.42375081  1
  O  O194  1  0.25052862  0.35906028  0.42373449  1
  O  O195  1  0.75011278  0.35854368  0.42372394  1
  O  O196  1  0.42910819  0.49880103  0.42367633  1
  O  O197  1  0.92935700  0.49921444  0.42382279  1
  O  O198  1  0.18010071  0.50063458  0.07581749  1
  O  O199  1  0.67604682  0.49726390  0.07274648  1
  O  O200  1  0.07265849  0.64658057  0.07257246  1
  O  O201  1  0.57019944  0.64107553  0.07602950  1
  O  O202  1  0.25014009  0.85984516  0.07576031  1
  O  O203  1  0.75105219  0.85391762  0.07242576  1
  O  O204  1  0.17618011  0.85455442  0.57319182  1
  O  O205  1  0.67618278  0.85440872  0.57313484  1
  O  O206  1  0.25123244  0.64877488  0.57268522  1
  O  O207  1  0.75125274  0.64869015  0.57272253  1
  O  O208  1  0.07286913  0.49818561  0.57326416  1
  O  O209  1  0.57282234  0.49804777  0.57317641  1
  O  O210  1  0.15205845  0.83169421  0.25690352  1
  O  O211  1  0.65057684  0.82707648  0.25753827  1
  O  O212  1  0.26326100  0.69329001  0.25722890  1
  O  O213  1  0.76100991  0.69295285  0.25702088  1
  O  O214  1  0.08513806  0.47593961  0.25718774  1
  O  O215  1  0.58409350  0.47153522  0.25704577  1
  O  O216  1  0.14983594  0.47322210  0.75793418  1
  O  O217  1  0.64978147  0.47326235  0.75788214  1
  O  O218  1  0.08527905  0.69700744  0.75752149  1
  O  O219  1  0.58523253  0.69697124  0.75738142  1
  O  O220  1  0.26126850  0.82894538  0.75753601  1
  O  O221  1  0.76123174  0.82890487  0.75743111  1
