# generated using pymatgen
data_Na6La4Si5Sn4S7O48
_symmetry_space_group_name_H-M   'P 1'
_cell_length_a   18.47490567
_cell_length_b   9.20517218
_cell_length_c   23.90370388
_cell_angle_alpha   89.97878879
_cell_angle_beta   89.55860458
_cell_angle_gamma   119.89284572
_symmetry_Int_Tables_number   1
_chemical_formula_structural   Na6La4Si5Sn4S7O48
_chemical_formula_sum   'Na18 La12 Si15 Sn12 S21 O144'
_cell_volume   3524.19467836
_cell_formula_units_Z   3
loop_
 _symmetry_equiv_pos_site_id
 _symmetry_equiv_pos_as_xyz
  1  'x, y, z'
loop_
 _atom_site_type_symbol
 _atom_site_label
 _atom_site_symmetry_multiplicity
 _atom_site_fract_x
 _atom_site_fract_y
 _atom_site_fract_z
 _atom_site_occupancy
  Na  Na0  1  0.99594519  0.61881731  0.25545753  1
  Na  Na1  1  0.50031307  0.62571052  0.25171181  1
  Na  Na2  1  0.99900621  0.37795157  0.75113310  1
  Na  Na3  1  0.49896355  0.36158428  0.75087310  1
  Na  Na4  1  0.66227885  0.31071635  0.92507101  1
  Na  Na5  1  0.16343522  0.00853009  0.43588745  1
  Na  Na6  1  -0.00021354  0.99411197  0.51110998  1
  Na  Na7  1  0.50656546  0.99197554  0.50335216  1
  Na  Na8  1  0.00467526  0.01772262  0.99695599  1
  Na  Na9  1  0.50238829  0.01522124  0.00550017  1
  Na  Na10  1  0.32691681  0.31466747  0.84568278  1
  Na  Na11  1  0.83195337  0.33397972  0.81812407  1
  Na  Na12  1  0.34994663  0.35682070  0.32762142  1
  Na  Na13  1  0.81973064  0.32989374  0.34927669  1
  Na  Na14  1  0.19299195  0.65579324  0.15974890  1
  Na  Na15  1  0.66864106  0.64090343  0.15800036  1
  Na  Na16  1  0.17058713  0.70127461  0.66174408  1
  Na  Na17  1  0.68781300  0.70100519  0.66850557  1
  La  La18  1  0.99226224  0.98667435  0.36102975  1
  La  La19  1  0.49740827  0.00674699  0.85636203  1
  La  La20  1  0.32117427  0.33660365  0.67546126  1
  La  La21  1  0.82318912  0.30823744  0.68463210  1
  La  La22  1  0.33080551  0.34919958  0.18166762  1
  La  La23  1  0.81858962  0.30391450  0.17345740  1
  La  La24  1  0.83185114  0.32094689  0.99264348  1
  La  La25  1  0.33308051  0.34823324  0.49689661  1
  La  La26  1  0.17097838  0.66640901  0.31408290  1
  La  La27  1  0.67097506  0.64580896  0.31448426  1
  La  La28  1  0.17302795  0.69702480  0.81435789  1
  La  La29  1  0.66821833  0.65880327  0.81066050  1
  Si  Si30  1  0.36557359  0.73312063  0.25139526  1
  Si  Si31  1  0.49741712  0.29338591  0.24996886  1
  Si  Si32  1  0.64097596  0.28701652  0.74771816  1
  Si  Si33  1  0.00032401  0.70153384  0.74963613  1
  Si  Si34  1  0.86616964  0.99925470  0.75168713  1
  Si  Si35  1  0.16794200  0.01656683  0.57966406  1
  Si  Si36  1  0.68385061  0.01958865  0.57872826  1
  Si  Si37  1  0.33464321  0.66547078  0.58335771  1
  Si  Si38  1  0.83110487  0.00413172  0.08306756  1
  Si  Si39  1  0.18475003  0.34856625  0.08030075  1
  Si  Si40  1  0.66794665  0.32327299  0.07953827  1
  Si  Si41  1  0.51472738  0.37866543  0.92090580  1
  Si  Si42  1  0.16293818  0.96885862  0.92103704  1
  Si  Si43  1  0.66442691  0.35777155  0.42058256  1
  Si  Si44  1  0.01630202  0.64808938  0.41940360  1
  Sn  Sn45  1  0.50158148  0.02307871  0.35251738  1
  Sn  Sn46  1  0.00175632  0.97804532  0.85149543  1
  Sn  Sn47  1  -0.00017878  0.98001308  0.65179336  1
  Sn  Sn48  1  0.51111914  0.99766276  0.64237714  1
  Sn  Sn49  1  0.00533100  0.02030495  0.13945618  1
  Sn  Sn50  1  0.49838852  0.01760004  0.14980655  1
  Sn  Sn51  1  0.32690229  0.32063390  0.98446167  1
  Sn  Sn52  1  0.82826481  0.33635724  0.48601417  1
  Sn  Sn53  1  0.16039056  0.66326259  0.01337335  1
  Sn  Sn54  1  0.66617432  0.65818197  0.01954735  1
  Sn  Sn55  1  0.16523786  0.67465211  0.52186828  1
  Sn  Sn56  1  0.65999092  0.65412550  0.51467061  1
  S  S57  1  0.13752160  0.99497247  0.24565811  1
  S  S58  1  0.64094343  0.00411633  0.25274416  1
  S  S59  1  0.86041661  0.71517754  0.24125821  1
  S  S60  1  0.99985788  0.29193782  0.24511189  1
  S  S61  1  0.14109903  0.27832719  0.75292927  1
  S  S62  1  0.49792330  0.70333708  0.74532803  1
  S  S63  1  0.35637428  0.00257695  0.74123519  1
  S  S64  1  0.49542498  0.33719282  0.58546193  1
  S  S65  1  0.98331489  0.32810959  0.57905535  1
  S  S66  1  0.83177109  0.63879161  0.57851288  1
  S  S67  1  0.48478579  0.64324455  0.07976928  1
  S  S68  1  0.99611412  0.65281099  0.08796388  1
  S  S69  1  0.33017515  0.02365648  0.07977644  1
  S  S70  1  0.31173638  0.65425787  0.92400419  1
  S  S71  1  0.82030127  0.67740118  0.92049410  1
  S  S72  1  0.01969039  0.36012295  0.91571196  1
  S  S73  1  0.66650792  0.95973032  0.92166332  1
  S  S74  1  0.31973747  0.96632823  0.41965441  1
  S  S75  1  0.81049321  0.96961433  0.42319541  1
  S  S76  1  0.16840772  0.36908196  0.42164120  1
  S  S77  1  0.51759477  0.67743199  0.41462290  1
  O  O78  1  0.09874926  0.00353650  0.29926551  1
  O  O79  1  0.60032124  0.01713639  0.30505638  1
  O  O80  1  0.42197285  0.82354014  0.30808557  1
  O  O81  1  0.90157245  0.79485285  0.29495717  1
  O  O82  1  0.49495004  0.19786276  0.30889902  1
  O  O83  1  0.99806943  0.20172639  0.29641363  1
  O  O84  1  0.10078560  0.18369275  0.80517255  1
  O  O85  1  0.60021331  0.20377270  0.80929688  1
  O  O86  1  0.49225418  0.78568877  0.79642373  1
  O  O87  1  0.99786378  0.79281739  0.80852753  1
  O  O88  1  0.39450331  0.00020751  0.79555009  1
  O  O89  1  0.92365843  0.02171432  0.80825427  1
  O  O90  1  0.40500095  0.99971752  0.69289249  1
  O  O91  1  0.91133833  0.99510426  0.69084873  1
  O  O92  1  0.09535823  0.19405683  0.70094027  1
  O  O93  1  0.57966725  0.17221451  0.69564825  1
  O  O94  1  0.01285341  0.81235580  0.69280149  1
  O  O95  1  0.49491396  0.79067892  0.69354525  1
  O  O96  1  0.41089761  0.82534364  0.19102096  1
  O  O97  1  0.91125251  0.81702190  0.19299337  1
  O  O98  1  0.00185227  0.20033227  0.19398570  1
  O  O99  1  0.50871155  0.20707098  0.19321849  1
  O  O100  1  0.08667849  0.99308917  0.19700988  1
  O  O101  1  0.59483826  0.99630385  0.20100720  1
  O  O102  1  0.45664883  0.35944468  0.63655355  1
  O  O103  1  0.95535719  0.36493364  0.63194775  1
  O  O104  1  0.23145886  0.11141217  0.63044450  1
  O  O105  1  0.73322891  0.07495439  0.63652008  1
  O  O106  1  0.31433908  0.54552967  0.63773168  1
  O  O107  1  0.81833607  0.54109917  0.62927758  1
  O  O108  1  0.45748315  0.55123675  0.13388156  1
  O  O109  1  0.95880501  0.55558400  0.13993695  1
  O  O110  1  0.31642203  0.09338392  0.13120752  1
  O  O111  1  0.81504950  0.07999685  0.14020034  1
  O  O112  1  0.23248835  0.38931253  0.13949284  1
  O  O113  1  0.72861566  0.35432708  0.13272653  1
  O  O114  1  0.23567907  0.31467456  0.03036487  1
  O  O115  1  0.70731889  0.29902575  0.02111299  1
  O  O116  1  0.42654212  0.54590353  0.03399156  1
  O  O117  1  0.94305285  0.57523523  0.03910559  1
  O  O118  1  0.34497633  0.13457853  0.03026955  1
  O  O119  1  0.85451730  0.13296692  0.03086299  1
  O  O120  1  0.20558432  0.11597328  0.52029782  1
  O  O121  1  0.73414415  0.15420305  0.52734892  1
  O  O122  1  0.35689572  0.58758062  0.52887625  1
  O  O123  1  0.84768317  0.55969245  0.52815957  1
  O  O124  1  0.44479681  0.31716239  0.53538598  1
  O  O125  1  0.92726873  0.31119061  0.53131414  1
  O  O126  1  0.26382553  0.67011143  0.97216306  1
  O  O127  1  0.77921738  0.69688302  0.97167844  1
  O  O128  1  0.07182463  0.44795745  0.96678236  1
  O  O129  1  0.58917757  0.49201234  0.96665716  1
  O  O130  1  0.14684236  0.83764734  0.97458786  1
  O  O131  1  0.67007504  0.86969253  0.97241954  1
  O  O132  1  0.27739894  0.86254708  0.46993641  1
  O  O133  1  0.76244399  0.85710033  0.47011499  1
  O  O134  1  0.16848196  0.46566215  0.47078196  1
  O  O135  1  0.64800129  0.45871612  0.47271736  1
  O  O136  1  0.09252461  0.68745815  0.46384908  1
  O  O137  1  0.56951182  0.69137021  0.46464968  1
  O  O138  1  0.04564001  0.62826082  0.35592352  1
  O  O139  1  0.55801857  0.66569067  0.36221389  1
  O  O140  1  0.26935171  0.88918935  0.36883014  1
  O  O141  1  0.77150505  0.90232839  0.36873144  1
  O  O142  1  0.16999171  0.45195267  0.36838684  1
  O  O143  1  0.68525150  0.46361849  0.36258886  1
  O  O144  1  0.06118435  0.45421486  0.86418635  1
  O  O145  1  0.54314106  0.46001331  0.85854269  1
  O  O146  1  0.18356873  0.90273876  0.86400307  1
  O  O147  1  0.66810515  0.87728235  0.86982016  1
  O  O148  1  0.26987324  0.63930864  0.87064235  1
  O  O149  1  0.77000065  0.65379369  0.87044990  1
  O  O150  1  0.01418406  0.82716724  0.42174529  1
  O  O151  1  0.51051626  0.83239501  0.41397579  1
  O  O152  1  0.40309491  0.97772865  0.41524285  1
  O  O153  1  0.89525997  0.98739272  0.42565765  1
  O  O154  1  0.09125124  0.19937880  0.42393067  1
  O  O155  1  0.57813945  0.17054608  0.41448533  1
  O  O156  1  0.01213024  0.19126252  0.91521037  1
  O  O157  1  0.51086134  0.19557257  0.92563060  1
  O  O158  1  0.07674533  0.98384008  0.91507892  1
  O  O159  1  0.58940761  0.97370941  0.92578040  1
  O  O160  1  0.39557271  0.80333230  0.92594696  1
  O  O161  1  0.90419444  0.83214054  0.91644848  1
  O  O162  1  0.50687673  0.18957721  0.58859697  1
  O  O163  1  0.98840548  0.17247562  0.58207663  1
  O  O164  1  0.07680647  0.01109338  0.58878002  1
  O  O165  1  0.59030712  0.00445666  0.58213444  1
  O  O166  1  0.41622432  0.85458466  0.59225115  1
  O  O167  1  0.90646319  0.80990023  0.58279231  1
  O  O168  1  0.48903776  0.80863383  0.08405825  1
  O  O169  1  0.01014988  0.82692133  0.09293796  1
  O  O170  1  0.40542276  0.00319833  0.08420237  1
  O  O171  1  0.91321608  0.97573426  0.08915154  1
  O  O172  1  0.09133048  0.17340239  0.08472785  1
  O  O173  1  0.57672224  0.14538227  0.08832543  1
  O  O174  1  0.35312788  0.16167193  0.74193563  1
  O  O175  1  0.86303077  0.17290270  0.75114584  1
  O  O176  1  0.22644365  0.30127722  0.75237444  1
  O  O177  1  0.73323734  0.31001414  0.74731955  1
  O  O178  1  0.42611292  0.52777673  0.74558316  1
  O  O179  1  0.91887230  0.51662490  0.74836635  1
  O  O180  1  0.35958026  0.54888874  0.25121427  1
  O  O181  1  0.85631696  0.54956744  0.24111541  1
  O  O182  1  0.41454296  0.31440881  0.24907838  1
  O  O183  1  0.92574944  0.31448843  0.24466170  1
  O  O184  1  0.22244266  0.13748493  0.24342313  1
  O  O185  1  0.72632807  0.15255418  0.25236932  1
  O  O186  1  0.31870219  0.50032707  0.92960345  1
  O  O187  1  0.82903118  0.52614419  0.92521293  1
  O  O188  1  0.42192843  0.36193515  0.93401859  1
  O  O189  1  0.93749246  0.34883324  0.92101811  1
  O  O190  1  0.24586646  0.15413980  0.93030552  1
  O  O191  1  0.73944845  0.13464975  0.92040275  1
  O  O192  1  0.32798017  0.13450860  0.42421535  1
  O  O193  1  0.81995314  0.13898736  0.42837897  1
  O  O194  1  0.24129918  0.34183571  0.42049884  1
  O  O195  1  0.74822215  0.34113572  0.42986910  1
  O  O196  1  0.43428442  0.52479362  0.41898156  1
  O  O197  1  0.92333074  0.48419495  0.43274018  1
  O  O198  1  0.16770779  0.50759770  0.06800458  1
  O  O199  1  0.65379028  0.48579677  0.07681876  1
  O  O200  1  0.07986647  0.66589806  0.08018731  1
  O  O201  1  0.57040178  0.67135220  0.06904737  1
  O  O202  1  0.25514148  0.85391729  0.07089234  1
  O  O203  1  0.74494831  0.82376438  0.07366971  1
  O  O204  1  0.15260735  0.82432589  0.57704582  1
  O  O205  1  0.66810977  0.82733874  0.56591693  1
  O  O206  1  0.24704497  0.67100076  0.57325270  1
  O  O207  1  0.75630391  0.65601089  0.56881932  1
  O  O208  1  0.06992373  0.47183279  0.56808815  1
  O  O209  1  0.57977137  0.49282472  0.57923541  1
  O  O210  1  0.13729849  0.83284812  0.24350996  1
  O  O211  1  0.64497560  0.84729969  0.25420865  1
  O  O212  1  0.27253210  0.71434907  0.25174160  1
  O  O213  1  0.77685525  0.69764514  0.23897572  1
  O  O214  1  0.07573042  0.46171596  0.24275586  1
  O  O215  1  0.57899608  0.48673683  0.24928484  1
  O  O216  1  0.14445550  0.44235170  0.75417992  1
  O  O217  1  0.63902599  0.46324864  0.74136316  1
  O  O218  1  0.08302991  0.67531448  0.74854551  1
  O  O219  1  0.57597615  0.69517026  0.74315253  1
  O  O220  1  0.27123186  0.85503121  0.73830333  1
  O  O221  1  0.77429900  0.83348684  0.75219449  1
