# generated using pymatgen
data_Na18Mg4Nb20Si27(SO16)9
_symmetry_space_group_name_H-M   'P 1'
_cell_length_a   17.93765804
_cell_length_b   8.95099810
_cell_length_c   22.84570776
_cell_angle_alpha   90.06526998
_cell_angle_beta   89.98671407
_cell_angle_gamma   119.97494655
_symmetry_Int_Tables_number   1
_chemical_formula_structural   Na18Mg4Nb20Si27(SO16)9
_chemical_formula_sum   'Na18 Mg4 Nb20 Si27 S9 O144'
_cell_volume   3177.47194203
_cell_formula_units_Z   1
loop_
 _symmetry_equiv_pos_site_id
 _symmetry_equiv_pos_as_xyz
  1  'x, y, z'
loop_
 _atom_site_type_symbol
 _atom_site_label
 _atom_site_symmetry_multiplicity
 _atom_site_fract_x
 _atom_site_fract_y
 _atom_site_fract_z
 _atom_site_occupancy
  Na  Na0  1  0.31647780  0.01515266  0.24255859  1
  Na  Na1  1  0.81600400  0.01097005  0.25011196  1
  Na  Na2  1  0.99380115  0.62158236  0.24275716  1
  Na  Na3  1  0.31657838  0.62118155  0.75173273  1
  Na  Na4  1  0.81635920  0.61758345  0.74584815  1
  Na  Na5  1  0.49359990  0.36624308  0.74436727  1
  Na  Na6  1  0.99559643  0.99616054  0.49565296  1
  Na  Na7  1  0.50054266  0.00205470  0.49889741  1
  Na  Na8  1  0.00051219  0.99976040  0.00043943  1
  Na  Na9  1  0.49493237  0.99108620  0.99797326  1
  Na  Na10  1  0.32705002  0.32276780  0.82909288  1
  Na  Na11  1  0.83265662  0.33006493  0.82718890  1
  Na  Na12  1  0.33405104  0.33723500  0.32412424  1
  Na  Na13  1  0.82744584  0.33054753  0.32417938  1
  Na  Na14  1  0.16566739  0.66403034  0.16119043  1
  Na  Na15  1  0.65765686  0.65516568  0.16853015  1
  Na  Na16  1  0.16281148  0.66636655  0.67228722  1
  Na  Na17  1  0.66376293  0.66488158  0.66312374  1
  Mg  Mg18  1  0.33546532  0.32991546  0.69069678  1
  Mg  Mg19  1  0.83174125  0.34140696  0.68730345  1
  Mg  Mg20  1  0.33769791  0.32784488  0.18565104  1
  Mg  Mg21  1  0.83477797  0.34012074  0.18960858  1
  Nb  Nb22  1  0.99852117  0.00036231  0.35461628  1
  Nb  Nb23  1  0.50692437  0.01350162  0.35617611  1
  Nb  Nb24  1  0.00754171  0.99972099  0.85824997  1
  Nb  Nb25  1  0.49835980  0.99612684  0.85571752  1
  Nb  Nb26  1  0.00252117  0.99183993  0.64771943  1
  Nb  Nb27  1  0.50063924  0.01252976  0.65056584  1
  Nb  Nb28  1  0.00122168  0.99031528  0.14945418  1
  Nb  Nb29  1  0.50299840  0.00465148  0.14291353  1
  Nb  Nb30  1  0.34066051  0.33947523  0.97815265  1
  Nb  Nb31  1  0.84000784  0.34994095  0.97435132  1
  Nb  Nb32  1  0.34089189  0.33250470  0.47398258  1
  Nb  Nb33  1  0.83338484  0.34328042  0.47477197  1
  Nb  Nb34  1  0.16722274  0.67559821  0.01996981  1
  Nb  Nb35  1  0.66210226  0.66802417  0.01789653  1
  Nb  Nb36  1  0.16702695  0.66458248  0.51582002  1
  Nb  Nb37  1  0.66657078  0.65888678  0.51996097  1
  Nb  Nb38  1  0.16298274  0.66016871  0.31352958  1
  Nb  Nb39  1  0.66348365  0.66483811  0.31043073  1
  Nb  Nb40  1  0.16461667  0.66427567  0.81275991  1
  Nb  Nb41  1  0.66217377  0.66441539  0.81525834  1
  Si  Si42  1  0.14905398  0.01028476  0.25244442  1
  Si  Si43  1  0.64544310  0.00366100  0.24856965  1
  Si  Si44  1  0.85256672  0.70482383  0.25127043  1
  Si  Si45  1  0.00137462  0.28805879  0.24858816  1
  Si  Si46  1  0.49891644  0.29105356  0.24989373  1
  Si  Si47  1  0.14539254  0.28911316  0.74930684  1
  Si  Si48  1  0.64861289  0.28912780  0.75316542  1
  Si  Si49  1  0.99943213  0.70180995  0.75254744  1
  Si  Si50  1  0.50211825  0.71501628  0.74862205  1
  Si  Si51  1  0.35216845  0.00029332  0.75211160  1
  Si  Si52  1  0.47773675  0.33296730  0.58688576  1
  Si  Si53  1  0.83335436  0.62430496  0.58615071  1
  Si  Si54  1  0.47745121  0.61957459  0.08678609  1
  Si  Si55  1  0.97780179  0.62123679  0.08710859  1
  Si  Si56  1  0.33247642  0.04467986  0.08650567  1
  Si  Si57  1  0.30939636  0.66362287  0.91665813  1
  Si  Si58  1  0.81040619  0.67280501  0.91634863  1
  Si  Si59  1  0.02546932  0.37926013  0.91740173  1
  Si  Si60  1  0.52131995  0.37237266  0.91718384  1
  Si  Si61  1  0.17145776  0.95892031  0.91657541  1
  Si  Si62  1  0.66746972  0.96118010  0.91675332  1
  Si  Si63  1  0.31207055  0.95174593  0.41450042  1
  Si  Si64  1  0.80962590  0.95247825  0.41663693  1
  Si  Si65  1  0.16714116  0.37294977  0.41641255  1
  Si  Si66  1  0.66728640  0.38373613  0.41531944  1
  Si  Si67  1  0.02226171  0.67046840  0.41680477  1
  Si  Si68  1  0.52636776  0.67392773  0.41709242  1
  S  S69  1  0.35686689  0.71100085  0.25007940  1
  S  S70  1  0.85714100  0.00369462  0.74961543  1
  S  S71  1  0.97825190  0.33436919  0.58402956  1
  S  S72  1  0.18985635  0.04456546  0.58374412  1
  S  S73  1  0.69019831  0.04702192  0.58427553  1
  S  S74  1  0.33258684  0.62162044  0.58371560  1
  S  S75  1  0.83363335  0.04487174  0.08377960  1
  S  S76  1  0.18917191  0.33271982  0.08440127  1
  S  S77  1  0.69156511  0.33692430  0.08383814  1
  O  O78  1  0.09488863  0.01895106  0.30854064  1
  O  O79  1  0.59376495  0.01984310  0.30651158  1
  O  O80  1  0.40805469  0.79275836  0.30332267  1
  O  O81  1  0.91628097  0.80874986  0.30705457  1
  O  O82  1  0.48750325  0.16241462  0.30661341  1
  O  O83  1  0.98963508  0.16810876  0.30624527  1
  O  O84  1  0.09241949  0.16461996  0.80554300  1
  O  O85  1  0.59489563  0.17124050  0.80842542  1
  O  O86  1  0.48967357  0.81158344  0.80566536  1
  O  O87  1  0.98443859  0.80777621  0.80590762  1
  O  O88  1  0.41647278  0.02421299  0.80681805  1
  O  O89  1  0.90791072  0.02614989  0.80239368  1
  O  O90  1  0.40204241  0.96724432  0.69367331  1
  O  O91  1  0.89778503  0.97014457  0.69637127  1
  O  O92  1  0.08096597  0.19155368  0.69151393  1
  O  O93  1  0.58239660  0.20243453  0.69456603  1
  O  O94  1  0.01179412  0.83221449  0.69375122  1
  O  O95  1  0.51734367  0.83895501  0.69051778  1
  O  O96  1  0.39548103  0.82235528  0.19733698  1
  O  O97  1  0.90233749  0.83774345  0.19376226  1
  O  O98  1  0.01711767  0.19572123  0.19113555  1
  O  O99  1  0.51161324  0.18800402  0.19352379  1
  O  O100  1  0.08200653  0.96215334  0.19465301  1
  O  O101  1  0.58182117  0.97146748  0.19214939  1
  O  O102  1  0.43751147  0.36132368  0.64459594  1
  O  O103  1  0.93966992  0.35861399  0.63629819  1
  O  O104  1  0.23964705  0.12116703  0.63620668  1
  O  O105  1  0.74143461  0.12446030  0.63649938  1
  O  O106  1  0.31810407  0.52254749  0.63712567  1
  O  O107  1  0.81866175  0.51848630  0.64473081  1
  O  O108  1  0.43690044  0.50770804  0.14308414  1
  O  O109  1  0.93798090  0.51432219  0.14504237  1
  O  O110  1  0.31283225  0.10938409  0.14593132  1
  O  O111  1  0.82005890  0.11668175  0.13742401  1
  O  O112  1  0.23890947  0.35644702  0.13692497  1
  O  O113  1  0.74072514  0.35738212  0.13590196  1
  O  O114  1  0.22814327  0.30739709  0.03058638  1
  O  O115  1  0.72942816  0.30909821  0.02977403  1
  O  O116  1  0.41954067  0.53135634  0.02622421  1
  O  O117  1  0.91498265  0.52224314  0.02823371  1
  O  O118  1  0.34559240  0.16772182  0.02816404  1
  O  O119  1  0.84291116  0.15051622  0.03115070  1
  O  O120  1  0.22720584  0.14594721  0.52998294  1
  O  O121  1  0.73193658  0.15250720  0.53079491  1
  O  O122  1  0.34130365  0.53450357  0.53098496  1
  O  O123  1  0.84659317  0.52453681  0.52799807  1
  O  O124  1  0.41483618  0.30789302  0.52809881  1
  O  O125  1  0.92728581  0.31099124  0.53024799  1
  O  O126  1  0.26201779  0.69318648  0.97267571  1
  O  O127  1  0.76347805  0.69450776  0.97397262  1
  O  O128  1  0.08309996  0.46619986  0.97478992  1
  O  O129  1  0.58335937  0.47297578  0.97330284  1
  O  O130  1  0.15146840  0.83494619  0.97361578  1
  O  O131  1  0.65335249  0.83513961  0.97341684  1
  O  O132  1  0.26230337  0.83246064  0.47311438  1
  O  O133  1  0.76211630  0.83053629  0.47328227  1
  O  O134  1  0.15398881  0.47390210  0.47413015  1
  O  O135  1  0.65188452  0.46749026  0.47407113  1
  O  O136  1  0.08345681  0.69114605  0.47409263  1
  O  O137  1  0.58344278  0.69887123  0.47495440  1
  O  O138  1  0.06677054  0.63579114  0.35907836  1
  O  O139  1  0.56754380  0.63373218  0.35982720  1
  O  O140  1  0.25157589  0.86528964  0.35724668  1
  O  O141  1  0.75176809  0.87135650  0.35750481  1
  O  O142  1  0.18268861  0.50151373  0.36068674  1
  O  O143  1  0.68418252  0.50230880  0.35854890  1
  O  O144  1  0.06684157  0.49999503  0.85939240  1
  O  O145  1  0.56696071  0.49628345  0.85871560  1
  O  O146  1  0.18243314  0.86434488  0.85889017  1
  O  O147  1  0.68298946  0.86519175  0.85987400  1
  O  O148  1  0.25158254  0.63590500  0.85706508  1
  O  O149  1  0.75203154  0.63905036  0.85684446  1
  O  O150  1  0.01278913  0.83810684  0.41267128  1
  O  O151  1  0.50965540  0.83439760  0.40853639  1
  O  O152  1  0.40578596  0.97159625  0.40993983  1
  O  O153  1  0.90551473  0.97578154  0.41019433  1
  O  O154  1  0.08116709  0.18869867  0.41169768  1
  O  O155  1  0.58288445  0.19042411  0.41069086  1
  O  O156  1  0.00961639  0.18519216  0.90750070  1
  O  O157  1  0.51327923  0.18670921  0.91176269  1
  O  O158  1  0.08322428  0.97380631  0.91016193  1
  O  O159  1  0.58161297  0.97392558  0.91042485  1
  O  O160  1  0.40483524  0.83434198  0.90934127  1
  O  O161  1  0.90557215  0.83889668  0.90811768  1
  O  O162  1  0.48817569  0.15644135  0.58811185  1
  O  O163  1  0.98978097  0.17999607  0.58818380  1
  O  O164  1  0.10016441  0.02304948  0.58813057  1
  O  O165  1  0.60247959  0.02913288  0.58750855  1
  O  O166  1  0.41039075  0.79647126  0.58624906  1
  O  O167  1  0.92100730  0.82352106  0.59022940  1
  O  O168  1  0.49120885  0.81811351  0.09053539  1
  O  O169  1  0.98789155  0.81867689  0.08859682  1
  O  O170  1  0.42017812  0.02382678  0.09089648  1
  O  O171  1  0.91251027  0.02798229  0.08666480  1
  O  O172  1  0.10000501  0.17448672  0.08833804  1
  O  O173  1  0.60207935  0.17987881  0.08709131  1
  O  O174  1  0.34801671  0.17165604  0.74654562  1
  O  O175  1  0.84608228  0.15204415  0.74046911  1
  O  O176  1  0.23974264  0.31759191  0.74255838  1
  O  O177  1  0.74145119  0.31048039  0.74749345  1
  O  O178  1  0.41758762  0.52904330  0.74528954  1
  O  O179  1  0.91480748  0.51941117  0.74605218  1
  O  O180  1  0.34365162  0.53825543  0.24376112  1
  O  O181  1  0.84833679  0.52476271  0.24682130  1
  O  O182  1  0.41372363  0.30352172  0.24950653  1
  O  O183  1  0.91743308  0.30657010  0.24615362  1
  O  O184  1  0.24166038  0.17382451  0.24735954  1
  O  O185  1  0.74069621  0.16253773  0.24366854  1
  O  O186  1  0.31841022  0.49271737  0.92587869  1
  O  O187  1  0.81928668  0.49788307  0.92465665  1
  O  O188  1  0.42848198  0.36114090  0.92255932  1
  O  O189  1  0.92805337  0.35736039  0.92582507  1
  O  O190  1  0.25231678  0.14959598  0.92533461  1
  O  O191  1  0.75309134  0.14706298  0.92811407  1
  O  O192  1  0.31863189  0.14031150  0.42523179  1
  O  O193  1  0.82108274  0.14501458  0.43016870  1
  O  O194  1  0.25281347  0.35976786  0.42910721  1
  O  O195  1  0.75064977  0.35556069  0.42535301  1
  O  O196  1  0.42868960  0.49963309  0.42617637  1
  O  O197  1  0.92923513  0.49412633  0.42564936  1
  O  O198  1  0.17721016  0.48612079  0.07759547  1
  O  O199  1  0.67996789  0.49071617  0.07707207  1
  O  O200  1  0.07382825  0.64598288  0.07475606  1
  O  O201  1  0.57700259  0.64824141  0.07464080  1
  O  O202  1  0.25093371  0.84629975  0.07391495  1
  O  O203  1  0.75682844  0.86666154  0.07649467  1
  O  O204  1  0.17689301  0.86501465  0.57706134  1
  O  O205  1  0.67885696  0.87079570  0.57752387  1
  O  O206  1  0.25438946  0.64541885  0.57614135  1
  O  O207  1  0.75112338  0.65505804  0.57460125  1
  O  O208  1  0.06766434  0.49230092  0.57707532  1
  O  O209  1  0.57390525  0.50157638  0.57465583  1
  O  O210  1  0.15360655  0.82685188  0.25774572  1
  O  O211  1  0.65194550  0.82662191  0.25645554  1
  O  O212  1  0.27058515  0.70441104  0.25555993  1
  O  O213  1  0.76259455  0.70779190  0.25524567  1
  O  O214  1  0.08873684  0.48214151  0.25614768  1
  O  O215  1  0.58850128  0.47577877  0.25669833  1
  O  O216  1  0.15136014  0.47777043  0.75573907  1
  O  O217  1  0.65456993  0.48224046  0.75669446  1
  O  O218  1  0.08952284  0.70191273  0.75532674  1
  O  O219  1  0.58922172  0.69501533  0.75550336  1
  O  O220  1  0.26229609  0.81688083  0.75470398  1
  O  O221  1  0.77145362  0.83928436  0.75350638  1
