# generated using pymatgen
data_Na10Ca4Hf4Si5S7O48
_symmetry_space_group_name_H-M   'P 1'
_cell_length_a   18.46350363
_cell_length_b   9.29459654
_cell_length_c   23.11244793
_cell_angle_alpha   89.88647589
_cell_angle_beta   90.42224621
_cell_angle_gamma   120.25911792
_symmetry_Int_Tables_number   1
_chemical_formula_structural   Na10Ca4Hf4Si5S7O48
_chemical_formula_sum   'Na30 Ca12 Hf12 Si15 S21 O144'
_cell_volume   3425.85261670
_cell_formula_units_Z   3
loop_
 _symmetry_equiv_pos_site_id
 _symmetry_equiv_pos_as_xyz
  1  'x, y, z'
loop_
 _atom_site_type_symbol
 _atom_site_label
 _atom_site_symmetry_multiplicity
 _atom_site_fract_x
 _atom_site_fract_y
 _atom_site_fract_z
 _atom_site_occupancy
  Na  Na0  1  0.33198575  0.03411383  0.25255694  1
  Na  Na1  1  0.67220844  0.33348867  0.25491996  1
  Na  Na2  1  0.99760790  0.63780765  0.23839793  1
  Na  Na3  1  0.49854262  0.62715622  0.23693331  1
  Na  Na4  1  0.32669739  0.62078172  0.75574304  1
  Na  Na5  1  0.82678029  0.62071526  0.75416995  1
  Na  Na6  1  0.99724899  0.36844345  0.73745067  1
  Na  Na7  1  0.49744091  0.36870435  0.73735933  1
  Na  Na8  1  0.17210503  0.01323214  0.75379088  1
  Na  Na9  1  0.67332320  0.01399505  0.75290009  1
  Na  Na10  1  0.33425002  0.97137810  0.57082363  1
  Na  Na11  1  0.83462768  0.97265490  0.56993826  1
  Na  Na12  1  0.33511299  0.69787112  0.07062589  1
  Na  Na13  1  0.83275684  0.69468078  0.06980290  1
  Na  Na14  1  0.48371949  0.68118834  0.90823785  1
  Na  Na15  1  0.98390247  0.68160222  0.90700340  1
  Na  Na16  1  0.48766612  0.28980017  0.40554603  1
  Na  Na17  1  0.16489214  0.02588090  0.40485210  1
  Na  Na18  1  0.98219964  0.00650473  0.49514935  1
  Na  Na19  1  0.49585796  0.99803025  0.49493739  1
  Na  Na20  1  0.99214648  0.99450831  0.99262150  1
  Na  Na21  1  0.49087205  0.98811664  0.99591527  1
  Na  Na22  1  0.32525447  0.34657383  0.82882445  1
  Na  Na23  1  0.82580215  0.34692022  0.82766484  1
  Na  Na24  1  0.32747923  0.32148670  0.32147856  1
  Na  Na25  1  0.81563653  0.27668164  0.33301770  1
  Na  Na26  1  0.14966885  0.66219182  0.15791100  1
  Na  Na27  1  0.64661675  0.67183259  0.16152295  1
  Na  Na28  1  0.14214837  0.62484765  0.66029372  1
  Na  Na29  1  0.64517601  0.62834515  0.65845662  1
  Ca  Ca30  1  0.99559710  0.00352468  0.35199707  1
  Ca  Ca31  1  0.49951769  0.99863554  0.35212924  1
  Ca  Ca32  1  0.99843788  0.99969990  0.85164844  1
  Ca  Ca33  1  0.49853769  0.99957535  0.85213971  1
  Ca  Ca34  1  0.33791556  0.34321811  0.68089881  1
  Ca  Ca35  1  0.83789403  0.34330309  0.68013191  1
  Ca  Ca36  1  0.33390806  0.33078674  0.18315729  1
  Ca  Ca37  1  0.83474974  0.32292822  0.18256741  1
  Ca  Ca38  1  0.16546270  0.66881384  0.01823482  1
  Ca  Ca39  1  0.66447123  0.66838583  0.01894686  1
  Ca  Ca40  1  0.16193554  0.65265716  0.51853024  1
  Ca  Ca41  1  0.66623164  0.66262019  0.51772432  1
  Hf  Hf42  1  0.00878255  0.01057265  0.64887250  1
  Hf  Hf43  1  0.51003640  0.01235765  0.64905986  1
  Hf  Hf44  1  0.00623190  0.99485611  0.14807438  1
  Hf  Hf45  1  0.50912146  0.00711660  0.14960806  1
  Hf  Hf46  1  0.33462601  0.34859908  0.98280469  1
  Hf  Hf47  1  0.83515126  0.34782752  0.98218097  1
  Hf  Hf48  1  0.33902918  0.33071449  0.48303401  1
  Hf  Hf49  1  0.83806097  0.32176455  0.48134436  1
  Hf  Hf50  1  0.17046971  0.67795307  0.31751914  1
  Hf  Hf51  1  0.67190414  0.68565857  0.31372032  1
  Hf  Hf52  1  0.16850635  0.65736115  0.81577392  1
  Hf  Hf53  1  0.66869579  0.65790463  0.81583730  1
  Si  Si54  1  0.14771344  0.99148358  0.25640737  1
  Si  Si55  1  0.64986278  0.00102904  0.25266792  1
  Si  Si56  1  0.50427043  0.30268748  0.25367395  1
  Si  Si57  1  0.14832369  0.29978428  0.75209184  1
  Si  Si58  1  0.64877922  0.30042790  0.75235878  1
  Si  Si59  1  0.00382939  0.70643979  0.75377771  1
  Si  Si60  1  0.50408202  0.70704382  0.75378295  1
  Si  Si61  1  0.48481708  0.32159542  0.58715686  1
  Si  Si62  1  0.98318725  0.32073951  0.58825626  1
  Si  Si63  1  0.48309980  0.64505894  0.08762056  1
  Si  Si64  1  0.98284492  0.63712112  0.08829670  1
  Si  Si65  1  0.31614797  0.66396829  0.92231969  1
  Si  Si66  1  0.81614437  0.66488526  0.92251953  1
  Si  Si67  1  0.31578361  0.96986088  0.42365794  1
  Si  Si68  1  0.81568732  0.96748540  0.42271995  1
  S  S69  1  0.34805489  0.70861980  0.24943653  1
  S  S70  1  0.85068790  0.70970537  0.24774675  1
  S  S71  1  0.00664507  0.30281109  0.24937439  1
  S  S72  1  0.34846222  0.98883536  0.74821520  1
  S  S73  1  0.84847559  0.98923771  0.74846789  1
  S  S74  1  0.18390404  0.04273706  0.58256433  1
  S  S75  1  0.68428242  0.04316496  0.58367050  1
  S  S76  1  0.33828965  0.63725196  0.58326490  1
  S  S77  1  0.83832911  0.63801854  0.58377876  1
  S  S78  1  0.33796007  0.04052099  0.08379547  1
  S  S79  1  0.83941549  0.04036931  0.08254399  1
  S  S80  1  0.18287974  0.32326676  0.08351540  1
  S  S81  1  0.68468988  0.32506324  0.08374778  1
  S  S82  1  0.01559078  0.37585190  0.91716957  1
  S  S83  1  0.51558538  0.37603506  0.91700735  1
  S  S84  1  0.17279349  0.96850998  0.91582281  1
  S  S85  1  0.67328865  0.96897432  0.91592391  1
  S  S86  1  0.17260833  0.37552160  0.41635549  1
  S  S87  1  0.67336440  0.37718364  0.41569746  1
  S  S88  1  0.01639216  0.65599824  0.41547095  1
  S  S89  1  0.51612572  0.65617471  0.41649359  1
  O  O90  1  0.10712544  0.00280826  0.31535268  1
  O  O91  1  0.60530103  0.02209336  0.30750857  1
  O  O92  1  0.39928093  0.78399147  0.30100889  1
  O  O93  1  0.90366152  0.78759264  0.29841979  1
  O  O94  1  0.48361435  0.19394438  0.31175815  1
  O  O95  1  0.99540775  0.20659481  0.30162067  1
  O  O96  1  0.10636384  0.18738925  0.80695726  1
  O  O97  1  0.60593235  0.18683832  0.80678711  1
  O  O98  1  0.48396441  0.77422073  0.81185331  1
  O  O99  1  0.98453840  0.77448804  0.81201038  1
  O  O100  1  0.40118456  0.02293649  0.79961716  1
  O  O101  1  0.90096208  0.02319439  0.80003873  1
  O  O102  1  0.38901486  0.96339488  0.69599056  1
  O  O103  1  0.88927377  0.96356042  0.69646519  1
  O  O104  1  0.08600854  0.20662466  0.69384875  1
  O  O105  1  0.58654906  0.20822275  0.69377046  1
  O  O106  1  0.01595709  0.83727524  0.69841765  1
  O  O107  1  0.51591293  0.83777058  0.69831841  1
  O  O108  1  0.38745877  0.81747869  0.19705606  1
  O  O109  1  0.89112588  0.81585428  0.19466920  1
  O  O110  1  0.01251500  0.21362627  0.19695380  1
  O  O111  1  0.51481711  0.19293767  0.19864709  1
  O  O112  1  0.08177018  0.96859802  0.20012828  1
  O  O113  1  0.58712016  0.96851136  0.19384869  1
  O  O114  1  0.44154582  0.32694839  0.64616771  1
  O  O115  1  0.94303882  0.32714351  0.64856084  1
  O  O116  1  0.23122928  0.11935130  0.63595227  1
  O  O117  1  0.72903597  0.11517158  0.63816818  1
  O  O118  1  0.32718182  0.54765631  0.63783518  1
  O  O119  1  0.82804466  0.54969359  0.63864012  1
  O  O120  1  0.43948733  0.55208627  0.14641122  1
  O  O121  1  0.94115196  0.54876022  0.14800191  1
  O  O122  1  0.32788935  0.10969140  0.13801831  1
  O  O123  1  0.82743323  0.11178157  0.13519132  1
  O  O124  1  0.23147948  0.34341817  0.13577279  1
  O  O125  1  0.73130016  0.34412161  0.13737035  1
  O  O126  1  0.22507108  0.29816095  0.03164572  1
  O  O127  1  0.73008233  0.30317231  0.03311334  1
  O  O128  1  0.41620025  0.53000030  0.03082768  1
  O  O129  1  0.91640817  0.52815987  0.03196814  1
  O  O130  1  0.34110760  0.14464504  0.03299287  1
  O  O131  1  0.84544394  0.14333822  0.03064255  1
  O  O132  1  0.22868137  0.15406298  0.53118178  1
  O  O133  1  0.73013222  0.15546646  0.53365631  1
  O  O134  1  0.34223478  0.53760088  0.53311735  1
  O  O135  1  0.84270501  0.54191795  0.53360302  1
  O  O136  1  0.41830692  0.30510150  0.53042866  1
  O  O137  1  0.91555540  0.30294994  0.53337278  1
  O  O138  1  0.27356591  0.66883532  0.98124563  1
  O  O139  1  0.77350756  0.66976331  0.98129990  1
  O  O140  1  0.06477940  0.45547143  0.96824593  1
  O  O141  1  0.56498635  0.45558255  0.96788039  1
  O  O142  1  0.16025818  0.86165873  0.96552822  1
  O  O143  1  0.66102489  0.86224325  0.96547411  1
  O  O144  1  0.26981216  0.87475915  0.48092246  1
  O  O145  1  0.77658429  0.88189196  0.48322952  1
  O  O146  1  0.16120600  0.44879048  0.46818812  1
  O  O147  1  0.66051407  0.45916639  0.46518901  1
  O  O148  1  0.06811526  0.67876932  0.46607470  1
  O  O149  1  0.56515880  0.67491872  0.46817197  1
  O  O150  1  0.05779963  0.63027421  0.36235974  1
  O  O151  1  0.55662045  0.62974701  0.36359842  1
  O  O152  1  0.25274795  0.86463408  0.36478463  1
  O  O153  1  0.75182653  0.85547526  0.36689364  1
  O  O154  1  0.17828953  0.47847816  0.36388930  1
  O  O155  1  0.68135240  0.47412290  0.36109961  1
  O  O156  1  0.05753321  0.48390987  0.86390366  1
  O  O157  1  0.55756505  0.48433622  0.86365691  1
  O  O158  1  0.18097536  0.88601824  0.86150953  1
  O  O159  1  0.68218801  0.88799885  0.86151578  1
  O  O160  1  0.25667645  0.65005638  0.86353925  1
  O  O161  1  0.75673516  0.65081095  0.86386015  1
  O  O162  1  0.00847229  0.80408033  0.40842192  1
  O  O163  1  0.49965000  0.79202487  0.41057411  1
  O  O164  1  0.41102854  0.01065306  0.41982072  1
  O  O165  1  0.90906832  0.00002297  0.41569613  1
  O  O166  1  0.10310405  0.20221665  0.41053069  1
  O  O167  1  0.59945772  0.20806149  0.41198394  1
  O  O168  1  0.00052029  0.20741068  0.91073311  1
  O  O169  1  0.50066108  0.20764755  0.91030681  1
  O  O170  1  0.09946424  0.99034944  0.91149682  1
  O  O171  1  0.59999763  0.99075041  0.91148157  1
  O  O172  1  0.41184369  0.81627410  0.91934171  1
  O  O173  1  0.91206041  0.81683912  0.91944906  1
  O  O174  1  0.48054394  0.13551856  0.58650100  1
  O  O175  1  0.98012983  0.13584028  0.58708586  1
  O  O176  1  0.09921438  0.02855428  0.58485682  1
  O  O177  1  0.59907783  0.02887002  0.58514690  1
  O  O178  1  0.41861391  0.80211472  0.58449433  1
  O  O179  1  0.91833082  0.80513727  0.58577541  1
  O  O180  1  0.48003940  0.82442684  0.08716008  1
  O  O181  1  0.98144361  0.82066757  0.08945958  1
  O  O182  1  0.41794898  0.03445830  0.08500630  1
  O  O183  1  0.92012286  0.03521816  0.08678519  1
  O  O184  1  0.09729167  0.16829897  0.08779653  1
  O  O185  1  0.59975212  0.16993502  0.08552226  1
  O  O186  1  0.32988881  0.12431786  0.74116253  1
  O  O187  1  0.82982956  0.12438646  0.74143192  1
  O  O188  1  0.24204611  0.32931805  0.74504632  1
  O  O189  1  0.74229445  0.32935574  0.74526733  1
  O  O190  1  0.42765688  0.51639150  0.74622513  1
  O  O191  1  0.92716852  0.51606369  0.74656355  1
  O  O192  1  0.33355642  0.54033848  0.24256076  1
  O  O193  1  0.83828385  0.54121775  0.24138105  1
  O  O194  1  0.42810814  0.34110408  0.24613873  1
  O  O195  1  0.93676179  0.33668134  0.24444613  1
  O  O196  1  0.24314900  0.13671778  0.24785862  1
  O  O197  1  0.73996049  0.16817213  0.24659599  1
  O  O198  1  0.32169005  0.48437572  0.92234360  1
  O  O199  1  0.82234823  0.48555295  0.92276488  1
  O  O200  1  0.43175130  0.37095198  0.92070745  1
  O  O201  1  0.93197242  0.37145914  0.92073974  1
  O  O202  1  0.25181243  0.13390783  0.92188304  1
  O  O203  1  0.75222023  0.13514913  0.92236426  1
  O  O204  1  0.31560456  0.15509638  0.42353794  1
  O  O205  1  0.81894813  0.15521446  0.42306800  1
  O  O206  1  0.25304452  0.36989916  0.41992709  1
  O  O207  1  0.75177404  0.36839461  0.42246977  1
  O  O208  1  0.43181196  0.49187723  0.42122840  1
  O  O209  1  0.93135300  0.50290396  0.42058013  1
  O  O210  1  0.17384921  0.46980629  0.07662419  1
  O  O211  1  0.67655798  0.47234813  0.07652314  1
  O  O212  1  0.07537568  0.66882358  0.08091389  1
  O  O213  1  0.57530062  0.67299773  0.08062836  1
  O  O214  1  0.26765350  0.86686792  0.07884858  1
  O  O215  1  0.77032252  0.86697602  0.07745994  1
  O  O216  1  0.17591697  0.87931705  0.57614688  1
  O  O217  1  0.67513056  0.87809701  0.57713479  1
  O  O218  1  0.26855383  0.66972808  0.57695163  1
  O  O219  1  0.76809658  0.67081580  0.57879806  1
  O  O220  1  0.07504559  0.47800921  0.58128385  1
  O  O221  1  0.57643396  0.47889874  0.57995215  1
  O  O222  1  0.14690056  0.80549949  0.25784253  1
  O  O223  1  0.65246110  0.82238979  0.25656792  1
  O  O224  1  0.26429996  0.70261510  0.25635069  1
  O  O225  1  0.76601226  0.69394874  0.25366649  1
  O  O226  1  0.08663130  0.47068755  0.25334975  1
  O  O227  1  0.59522448  0.48345209  0.25833052  1
  O  O228  1  0.15322238  0.48588286  0.75731051  1
  O  O229  1  0.65354803  0.48630774  0.75755393  1
  O  O230  1  0.09481222  0.70637333  0.75878716  1
  O  O231  1  0.59502717  0.70726329  0.75892910  1
  O  O232  1  0.26593677  0.82770141  0.75515233  1
  O  O233  1  0.76603508  0.82778352  0.75527442  1
