# generated using pymatgen
data_Na5ZrAl3Si3(SO8)3
_symmetry_space_group_name_H-M   'P 1'
_cell_length_a   8.76756286
_cell_length_b   8.80769542
_cell_length_c   22.08585330
_cell_angle_alpha   89.88622706
_cell_angle_beta   90.65810568
_cell_angle_gamma   120.20159181
_symmetry_Int_Tables_number   1
_chemical_formula_structural   Na5ZrAl3Si3(SO8)3
_chemical_formula_sum   'Na15 Zr3 Al9 Si9 S9 O72'
_cell_volume   1473.89775600
_cell_formula_units_Z   3
loop_
 _symmetry_equiv_pos_site_id
 _symmetry_equiv_pos_as_xyz
  1  'x, y, z'
loop_
 _atom_site_type_symbol
 _atom_site_label
 _atom_site_symmetry_multiplicity
 _atom_site_fract_x
 _atom_site_fract_y
 _atom_site_fract_z
 _atom_site_occupancy
  Na  Na0  1  0.64036912  0.00129101  0.25609565  1
  Na  Na1  1  0.00266114  0.62492885  0.24899326  1
  Na  Na2  1  0.62799118  0.63441631  0.74361368  1
  Na  Na3  1  0.37020456  0.00945431  0.75487047  1
  Na  Na4  1  0.66835477  0.96271436  0.58673083  1
  Na  Na5  1  0.97357555  0.67981968  0.92134810  1
  Na  Na6  1  0.68963554  0.02277863  0.90963707  1
  Na  Na7  1  0.96084339  0.30083511  0.40737029  1
  Na  Na8  1  0.70970427  0.68107839  0.42168490  1
  Na  Na9  1  0.00503450  0.97988279  0.50217285  1
  Na  Na10  1  0.01062004  0.98886802  0.00158716  1
  Na  Na11  1  0.64546986  0.32294260  0.83108091  1
  Na  Na12  1  0.65977791  0.32227584  0.33015896  1
  Na  Na13  1  0.31525030  0.64045955  0.16295563  1
  Na  Na14  1  0.32483547  0.64045187  0.66270938  1
  Zr  Zr15  1  0.66028582  0.34510294  0.98431262  1
  Zr  Zr16  1  0.67298144  0.33964762  0.48000097  1
  Zr  Zr17  1  0.34327453  0.66529807  0.81041699  1
  Al  Al18  1  0.98939782  0.99767811  0.35471684  1
  Al  Al19  1  0.00646653  0.01372682  0.85303099  1
  Al  Al20  1  0.98592829  0.99361419  0.65048481  1
  Al  Al21  1  0.00848006  0.00665704  0.14745189  1
  Al  Al22  1  0.65079000  0.33415763  0.68947114  1
  Al  Al23  1  0.69634283  0.34134122  0.18118724  1
  Al  Al24  1  0.33018729  0.68847265  0.01736893  1
  Al  Al25  1  0.34773312  0.68076370  0.51681871  1
  Al  Al26  1  0.31624885  0.65574109  0.31632178  1
  Si  Si27  1  0.00836685  0.28695234  0.24965544  1
  Si  Si28  1  0.27525516  0.27381530  0.74638898  1
  Si  Si29  1  0.72551988  0.02076799  0.74841058  1
  Si  Si30  1  0.66520919  0.63120242  0.58662010  1
  Si  Si31  1  0.98017116  0.64579692  0.08745768  1
  Si  Si32  1  0.62659085  0.67697665  0.92082490  1
  Si  Si33  1  0.32319938  0.96050390  0.91532697  1
  Si  Si34  1  0.61508729  0.94630616  0.41249967  1
  Si  Si35  1  0.06297133  0.68547186  0.41535583  1
  S  S36  1  0.29040869  0.00691906  0.24949035  1
  S  S37  1  0.70680622  0.70484203  0.24907350  1
  S  S38  1  0.98874303  0.70782639  0.74795997  1
  S  S39  1  0.96831705  0.33736753  0.58598076  1
  S  S40  1  0.36589711  0.03654577  0.58571015  1
  S  S41  1  0.66989841  0.03700696  0.08716311  1
  S  S42  1  0.37320275  0.33288199  0.09032594  1
  S  S43  1  0.05141173  0.37446252  0.92045025  1
  S  S44  1  0.32530022  0.37863756  0.41516108  1
  O  O45  1  0.20785265  0.02936014  0.30507906  1
  O  O46  1  0.81866054  0.78229306  0.30556863  1
  O  O47  1  0.96801646  0.16260965  0.31039758  1
  O  O48  1  0.19327235  0.15523271  0.80658472  1
  O  O49  1  0.96209437  0.78289023  0.80448647  1
  O  O50  1  0.83115252  0.03329443  0.81130342  1
  O  O51  1  0.79764261  0.96775339  0.68931363  1
  O  O52  1  0.16459819  0.17451305  0.68651320  1
  O  O53  1  0.01686763  0.81905394  0.69447063  1
  O  O54  1  0.79494374  0.82032790  0.19681871  1
  O  O55  1  0.02510037  0.18300834  0.19249608  1
  O  O56  1  0.17558262  0.97301669  0.19618630  1
  O  O57  1  0.87435665  0.35833725  0.63696439  1
  O  O58  1  0.48376183  0.12222859  0.63928470  1
  O  O59  1  0.64280187  0.50215737  0.64302371  1
  O  O60  1  0.87735490  0.51521370  0.14501848  1
  O  O61  1  0.64256185  0.12693576  0.14050210  1
  O  O62  1  0.49301027  0.34942277  0.14143928  1
  O  O63  1  0.44304873  0.29916782  0.03304611  1
  O  O64  1  0.85492210  0.55516541  0.02645517  1
  O  O65  1  0.69464943  0.14196396  0.03165904  1
  O  O66  1  0.45153162  0.14417440  0.53069588  1
  O  O67  1  0.69123727  0.54503624  0.52356529  1
  O  O68  1  0.85683416  0.30245637  0.52831533  1
  O  O69  1  0.51712272  0.69651860  0.97612556  1
  O  O70  1  0.15818277  0.46167448  0.97431234  1
  O  O71  1  0.28664609  0.82849673  0.97163460  1
  O  O72  1  0.53802268  0.83220864  0.47423513  1
  O  O73  1  0.30084252  0.45742523  0.47023544  1
  O  O74  1  0.17489038  0.69315561  0.47511703  1
  O  O75  1  0.12799281  0.63051791  0.35447966  1
  O  O76  1  0.49967252  0.84778599  0.35176133  1
  O  O77  1  0.35664384  0.48905998  0.36056399  1
  O  O78  1  0.11825491  0.48216893  0.86496582  1
  O  O79  1  0.35807234  0.87675252  0.85420671  1
  O  O80  1  0.51673037  0.63462500  0.85641348  1
  O  O81  1  0.03100279  0.85241260  0.40592162  1
  O  O82  1  0.81762570  0.97630351  0.40783663  1
  O  O83  1  0.16902073  0.20169245  0.40863296  1
  O  O84  1  0.03267992  0.20017719  0.91410539  1
  O  O85  1  0.14898261  0.97754347  0.90777151  1
  O  O86  1  0.81982639  0.85318492  0.91256934  1
  O  O87  1  0.98173117  0.17645925  0.58955212  1
  O  O88  1  0.19018846  0.01323491  0.59012244  1
  O  O89  1  0.84250078  0.82956682  0.59151403  1
  O  O90  1  0.99172794  0.83610962  0.09693704  1
  O  O91  1  0.82812284  0.02093957  0.09472375  1
  O  O92  1  0.19517501  0.17587096  0.09540064  1
  O  O93  1  0.69447751  0.18770894  0.73858051  1
  O  O94  1  0.48150855  0.31056505  0.74278014  1
  O  O95  1  0.83213468  0.53068282  0.74190640  1
  O  O96  1  0.68872477  0.52763041  0.24312635  1
  O  O97  1  0.82373885  0.30629388  0.24281546  1
  O  O98  1  0.46953636  0.16196301  0.24309402  1
  O  O99  1  0.66099951  0.50885718  0.92204677  1
  O  O100  1  0.86776116  0.34807199  0.92598005  1
  O  O101  1  0.51083238  0.14577939  0.92350428  1
  O  O102  1  0.64223896  0.14549291  0.41776821  1
  O  O103  1  0.48627570  0.36175697  0.41923806  1
  O  O104  1  0.85684941  0.50848470  0.42087952  1
  O  O105  1  0.36393230  0.49324865  0.08407874  1
  O  O106  1  0.16830695  0.65222949  0.07674643  1
  O  O107  1  0.50929971  0.86196080  0.08180084  1
  O  O108  1  0.35818037  0.86311304  0.57969198  1
  O  O109  1  0.48872898  0.65295295  0.57656726  1
  O  O110  1  0.14160493  0.49610407  0.57782967  1
  O  O111  1  0.31055969  0.84673030  0.25371491  1
  O  O112  1  0.53200905  0.68925162  0.25446529  1
  O  O113  1  0.17862092  0.49021381  0.25702924  1
  O  O114  1  0.30053069  0.47250387  0.74896141  1
  O  O115  1  0.14885209  0.69144035  0.75167102  1
  O  O116  1  0.52068198  0.84288501  0.75095064  1
