# generated using pymatgen
data_Na10Al4Ga4Si5S7O48
_symmetry_space_group_name_H-M   'P 1'
_cell_length_a   17.34143476
_cell_length_b   8.70913937
_cell_length_c   21.89612026
_cell_angle_alpha   89.62889245
_cell_angle_beta   88.85065875
_cell_angle_gamma   120.05268462
_symmetry_Int_Tables_number   1
_chemical_formula_structural   Na10Al4Ga4Si5S7O48
_chemical_formula_sum   'Na30 Al12 Ga12 Si15 S21 O144'
_cell_volume   2861.28231743
_cell_formula_units_Z   3
loop_
 _symmetry_equiv_pos_site_id
 _symmetry_equiv_pos_as_xyz
  1  'x, y, z'
loop_
 _atom_site_type_symbol
 _atom_site_label
 _atom_site_symmetry_multiplicity
 _atom_site_fract_x
 _atom_site_fract_y
 _atom_site_fract_z
 _atom_site_occupancy
  Na  Na0  1  0.32141218  0.99980740  0.24900155  1
  Na  Na1  1  0.82279648  0.99873807  0.24943715  1
  Na  Na2  1  0.18195198  0.37132678  0.24386349  1
  Na  Na3  1  0.68396671  0.37448913  0.24409931  1
  Na  Na4  1  0.99652796  0.62683539  0.25582696  1
  Na  Na5  1  0.49719383  0.62967655  0.25594600  1
  Na  Na6  1  0.82202855  0.64383275  0.74774826  1
  Na  Na7  1  0.99662302  0.36396865  0.75667776  1
  Na  Na8  1  0.49714449  0.35960306  0.75548181  1
  Na  Na9  1  0.18169825  0.99155920  0.74669278  1
  Na  Na10  1  0.01717396  0.70420896  0.58471593  1
  Na  Na11  1  0.33086672  0.96955945  0.58841703  1
  Na  Na12  1  0.02016436  0.33229533  0.08345067  1
  Na  Na13  1  0.52042226  0.33104208  0.08382360  1
  Na  Na14  1  0.16287553  0.30105836  0.92243285  1
  Na  Na15  1  0.66386455  0.30190831  0.92337891  1
  Na  Na16  1  0.16308187  0.02658266  0.42192949  1
  Na  Na17  1  0.66426340  0.02524521  0.42330802  1
  Na  Na18  1  0.99686675  0.00054776  0.49994277  1
  Na  Na19  1  0.50765072  0.99500670  0.50100215  1
  Na  Na20  1  0.00015181  0.99786937  0.99993186  1
  Na  Na21  1  0.49960424  0.99664142  0.00066026  1
  Na  Na22  1  0.34115304  0.33556555  0.83610774  1
  Na  Na23  1  0.84213958  0.32584306  0.83464318  1
  Na  Na24  1  0.34534355  0.35584275  0.33532324  1
  Na  Na25  1  0.84556273  0.35638106  0.33599959  1
  Na  Na26  1  0.17336659  0.66196901  0.16406694  1
  Na  Na27  1  0.67366554  0.66309231  0.16509145  1
  Na  Na28  1  0.17028612  0.67037546  0.66933073  1
  Na  Na29  1  0.67553161  0.69926722  0.66461584  1
  Al  Al30  1  0.98687011  0.97672688  0.35029872  1
  Al  Al31  1  0.98875214  0.99845222  0.85069366  1
  Al  Al32  1  0.49209289  0.01035151  0.85353648  1
  Al  Al33  1  0.50311590  0.99640815  0.64890041  1
  Al  Al34  1  0.00187536  0.01263812  0.14852498  1
  Al  Al35  1  0.83534619  0.34822978  0.18686354  1
  Al  Al36  1  0.33451391  0.32962784  0.98164052  1
  Al  Al37  1  0.83785630  0.33363367  0.98291091  1
  Al  Al38  1  0.16534396  0.64522771  0.01678950  1
  Al  Al39  1  0.15978993  0.67470203  0.51661640  1
  Al  Al40  1  0.16202168  0.67099396  0.81336575  1
  Al  Al41  1  0.66427753  0.67931526  0.81687491  1
  Ga  Ga42  1  0.48839295  0.98010002  0.35107790  1
  Ga  Ga43  1  0.99822445  0.98754627  0.65111874  1
  Ga  Ga44  1  0.50259561  0.01301455  0.14895276  1
  Ga  Ga45  1  0.32943437  0.31380183  0.68291679  1
  Ga  Ga46  1  0.83142641  0.31297870  0.68832545  1
  Ga  Ga47  1  0.33390391  0.34887249  0.18512222  1
  Ga  Ga48  1  0.33669715  0.34520224  0.48278856  1
  Ga  Ga49  1  0.83272867  0.33823391  0.48336128  1
  Ga  Ga50  1  0.66565143  0.64409309  0.01797954  1
  Ga  Ga51  1  0.66339794  0.69315015  0.51980764  1
  Ga  Ga52  1  0.15691211  0.64196619  0.31392211  1
  Ga  Ga53  1  0.65994379  0.64588067  0.31468900  1
  Si  Si54  1  0.35451033  0.71179901  0.24924845  1
  Si  Si55  1  0.85718659  0.71359084  0.24849153  1
  Si  Si56  1  0.99699872  0.28203892  0.24930635  1
  Si  Si57  1  0.49822855  0.28792991  0.24985207  1
  Si  Si58  1  0.99947810  0.71058564  0.75208222  1
  Si  Si59  1  0.35541422  0.99240086  0.74877223  1
  Si  Si60  1  0.85078775  0.99256602  0.75127379  1
  Si  Si61  1  0.18493966  0.04248983  0.58101005  1
  Si  Si62  1  0.68673405  0.04713956  0.58412910  1
  Si  Si63  1  0.18820816  0.32878216  0.08155398  1
  Si  Si64  1  0.69188642  0.32850364  0.08275831  1
  Si  Si65  1  0.01852802  0.37164423  0.91645252  1
  Si  Si66  1  0.51732622  0.37472821  0.91564023  1
  Si  Si67  1  0.01652322  0.66710309  0.41701659  1
  Si  Si68  1  0.51741938  0.66594353  0.41556758  1
  S  S69  1  0.14203145  0.00024307  0.25004511  1
  S  S70  1  0.64766036  0.00367252  0.24920741  1
  S  S71  1  0.14739032  0.29507030  0.75120146  1
  S  S72  1  0.64200931  0.28275797  0.75135895  1
  S  S73  1  0.50008576  0.71793149  0.75179277  1
  S  S74  1  0.48233186  0.33562388  0.58397011  1
  S  S75  1  0.98202386  0.33213060  0.58221642  1
  S  S76  1  0.33281056  0.62314877  0.58422325  1
  S  S77  1  0.82948863  0.62381132  0.58347386  1
  S  S78  1  0.47869771  0.62696573  0.08073717  1
  S  S79  1  0.97839042  0.62731892  0.08231116  1
  S  S80  1  0.32770419  0.03608690  0.08089718  1
  S  S81  1  0.83067680  0.04243190  0.08346806  1
  S  S82  1  0.31208088  0.67115199  0.91530830  1
  S  S83  1  0.81388498  0.67067663  0.91591960  1
  S  S84  1  0.16712562  0.95049921  0.91781520  1
  S  S85  1  0.66560442  0.95312502  0.91672152  1
  S  S86  1  0.31095856  0.95308580  0.41778827  1
  S  S87  1  0.81449177  0.95624522  0.41545592  1
  S  S88  1  0.16576860  0.37938414  0.41845507  1
  S  S89  1  0.66658850  0.37802459  0.41826631  1
  O  O90  1  0.10340424  0.03154766  0.30639871  1
  O  O91  1  0.61125121  0.04051658  0.30535550  1
  O  O92  1  0.41815182  0.78204121  0.30746020  1
  O  O93  1  0.91906778  0.78810480  0.30739166  1
  O  O94  1  0.47959272  0.16018467  0.30937621  1
  O  O95  1  0.98193023  0.15530298  0.30838914  1
  O  O96  1  0.10766222  0.17941905  0.80642349  1
  O  O97  1  0.60243906  0.17371452  0.80791920  1
  O  O98  1  0.48852723  0.80130099  0.80672328  1
  O  O99  1  0.98472620  0.81342298  0.80847017  1
  O  O100  1  0.42193499  0.04056152  0.80501574  1
  O  O101  1  0.91657812  0.03961768  0.80798414  1
  O  O102  1  0.40287408  0.97201550  0.68646109  1
  O  O103  1  0.89410815  0.95131091  0.69064847  1
  O  O104  1  0.09278695  0.22022812  0.69661958  1
  O  O105  1  0.58561374  0.20038057  0.69789671  1
  O  O106  1  0.02604911  0.82980982  0.68862274  1
  O  O107  1  0.51479311  0.82486026  0.69538092  1
  O  O108  1  0.39901863  0.83949314  0.18905121  1
  O  O109  1  0.90450368  0.84382025  0.18954544  1
  O  O110  1  0.01972750  0.20702557  0.18779816  1
  O  O111  1  0.52329180  0.21849457  0.18778236  1
  O  O112  1  0.08714866  0.97120424  0.19609590  1
  O  O113  1  0.58986788  0.96566635  0.19624116  1
  O  O114  1  0.44429331  0.37117640  0.64090777  1
  O  O115  1  0.94772785  0.37775303  0.63839899  1
  O  O116  1  0.24713504  0.11898232  0.64138379  1
  O  O117  1  0.74973055  0.14091429  0.64118576  1
  O  O118  1  0.31835285  0.51294109  0.63989068  1
  O  O119  1  0.81853822  0.52350450  0.64089319  1
  O  O120  1  0.44430102  0.51611713  0.13850419  1
  O  O121  1  0.94063515  0.51085842  0.13865645  1
  O  O122  1  0.31500733  0.10863193  0.13913319  1
  O  O123  1  0.81958021  0.12277615  0.14007100  1
  O  O124  1  0.24463630  0.35916821  0.14374455  1
  O  O125  1  0.74941579  0.35240814  0.14315274  1
  O  O126  1  0.23772432  0.30703084  0.02076634  1
  O  O127  1  0.73960367  0.30998029  0.02031992  1
  O  O128  1  0.42307006  0.53463219  0.02859557  1
  O  O129  1  0.92291964  0.54041448  0.02912773  1
  O  O130  1  0.34644189  0.16127194  0.02881461  1
  O  O131  1  0.84905393  0.16182375  0.02949442  1
  O  O132  1  0.23510767  0.16477679  0.52046353  1
  O  O133  1  0.72867821  0.15894208  0.51924423  1
  O  O134  1  0.35109801  0.55013053  0.52886818  1
  O  O135  1  0.85033937  0.54453786  0.53022740  1
  O  O136  1  0.42371436  0.30092647  0.53168052  1
  O  O137  1  0.92693196  0.30675672  0.52887114  1
  O  O138  1  0.27303646  0.70350961  0.97136801  1
  O  O139  1  0.77458892  0.70458375  0.97148358  1
  O  O140  1  0.08288016  0.46112527  0.97559970  1
  O  O141  1  0.58092240  0.45316847  0.97540607  1
  O  O142  1  0.15672131  0.83898813  0.97196545  1
  O  O143  1  0.65197045  0.84563894  0.97238255  1
  O  O144  1  0.26676215  0.84075433  0.47363570  1
  O  O145  1  0.77429917  0.84396901  0.47106330  1
  O  O146  1  0.15689547  0.47356278  0.47171494  1
  O  O147  1  0.65671935  0.46730916  0.47194212  1
  O  O148  1  0.08135624  0.70441524  0.47541275  1
  O  O149  1  0.58308721  0.70918141  0.47258880  1
  O  O150  1  0.06259452  0.63946492  0.35493951  1
  O  O151  1  0.56163664  0.63910653  0.35278389  1
  O  O152  1  0.25866705  0.87445173  0.36254345  1
  O  O153  1  0.75954410  0.87781507  0.36056986  1
  O  O154  1  0.18340657  0.48307398  0.36022000  1
  O  O155  1  0.68277969  0.48109269  0.35989590  1
  O  O156  1  0.06895907  0.49546525  0.85612122  1
  O  O157  1  0.56806530  0.50058928  0.85498362  1
  O  O158  1  0.18249919  0.87620064  0.86070847  1
  O  O159  1  0.68173411  0.87329088  0.86174133  1
  O  O160  1  0.25565804  0.64112994  0.86218982  1
  O  O161  1  0.75613074  0.63868706  0.86209887  1
  O  O162  1  0.01370400  0.85330415  0.40932558  1
  O  O163  1  0.51387299  0.85214178  0.41069863  1
  O  O164  1  0.40072897  0.97304408  0.41628500  1
  O  O165  1  0.90397097  0.97695203  0.41008994  1
  O  O166  1  0.08534699  0.20293194  0.41466212  1
  O  O167  1  0.58637626  0.19951045  0.41421368  1
  O  O168  1  0.01355963  0.17658825  0.90865968  1
  O  O169  1  0.51273197  0.18059625  0.90891231  1
  O  O170  1  0.08761655  0.97121713  0.91347082  1
  O  O171  1  0.58474163  0.97166641  0.90912298  1
  O  O172  1  0.40349171  0.82708600  0.90802200  1
  O  O173  1  0.90320598  0.82706499  0.90991316  1
  O  O174  1  0.48728951  0.17069118  0.59106354  1
  O  O175  1  0.99103050  0.17535562  0.58981235  1
  O  O176  1  0.08578151  0.01922270  0.58648826  1
  O  O177  1  0.58653124  0.02285407  0.59352364  1
  O  O178  1  0.41126357  0.80553397  0.58947938  1
  O  O179  1  0.91025051  0.80385244  0.58541923  1
  O  O180  1  0.48494106  0.80003750  0.08634122  1
  O  O181  1  0.98630453  0.80162761  0.08967529  1
  O  O182  1  0.40963821  0.02114988  0.08284005  1
  O  O183  1  0.91179401  0.02456454  0.08661359  1
  O  O184  1  0.08705691  0.15143474  0.08821238  1
  O  O185  1  0.58916943  0.15246299  0.08595604  1
  O  O186  1  0.34552995  0.17596074  0.74457222  1
  O  O187  1  0.84391121  0.17166895  0.74674576  1
  O  O188  1  0.23780269  0.31282467  0.74444255  1
  O  O189  1  0.73301283  0.31346558  0.74600400  1
  O  O190  1  0.42037779  0.53677416  0.74612445  1
  O  O191  1  0.90907708  0.51515620  0.74327319  1
  O  O192  1  0.33946027  0.51096741  0.24480581  1
  O  O193  1  0.84254904  0.51275841  0.24165527  1
  O  O194  1  0.40778862  0.30319827  0.24151676  1
  O  O195  1  0.90851582  0.30385691  0.23991036  1
  O  O196  1  0.23294558  0.15798051  0.24472647  1
  O  O197  1  0.73787008  0.16201201  0.24101576  1
  O  O198  1  0.31942613  0.50807342  0.92221716  1
  O  O199  1  0.82010584  0.50701375  0.92204915  1
  O  O200  1  0.41956970  0.35622159  0.92584695  1
  O  O201  1  0.92016642  0.35309060  0.92719900  1
  O  O202  1  0.24680656  0.13408053  0.92189650  1
  O  O203  1  0.74412516  0.13504794  0.92042662  1
  O  O204  1  0.31819189  0.12964516  0.42246834  1
  O  O205  1  0.82137269  0.13260719  0.42080759  1
  O  O206  1  0.24448761  0.35393876  0.42199949  1
  O  O207  1  0.74586956  0.35367879  0.42018374  1
  O  O208  1  0.41979961  0.48632094  0.42401028  1
  O  O209  1  0.91944967  0.48756963  0.42575065  1
  O  O210  1  0.17570071  0.50602402  0.07545497  1
  O  O211  1  0.67774369  0.50506141  0.07980667  1
  O  O212  1  0.06897735  0.64649430  0.07473744  1
  O  O213  1  0.56997529  0.64908085  0.07478464  1
  O  O214  1  0.24776617  0.86111438  0.07208747  1
  O  O215  1  0.74976888  0.86752349  0.07640952  1
  O  O216  1  0.17733051  0.84363980  0.57519236  1
  O  O217  1  0.67880078  0.85096480  0.58022382  1
  O  O218  1  0.25226303  0.64156541  0.57709381  1
  O  O219  1  0.74801131  0.63468130  0.57544385  1
  O  O220  1  0.07357835  0.49490113  0.57327367  1
  O  O221  1  0.57235194  0.48932747  0.57674181  1
  O  O222  1  0.15371271  0.84299338  0.25439361  1
  O  O223  1  0.65975607  0.84757292  0.25487896  1
  O  O224  1  0.25627563  0.69747265  0.25827259  1
  O  O225  1  0.75802957  0.69599727  0.25755187  1
  O  O226  1  0.08401363  0.48343943  0.25306410  1
  O  O227  1  0.58515507  0.48765292  0.25365398  1
  O  O228  1  0.15780490  0.47280818  0.75829513  1
  O  O229  1  0.64964850  0.46226056  0.75603597  1
  O  O230  1  0.08592489  0.68259112  0.75816339  1
  O  O231  1  0.57995565  0.69380698  0.75591190  1
  O  O232  1  0.25555522  0.82298740  0.75976458  1
  O  O233  1  0.75272257  0.80954481  0.76169582  1
