# generated using pymatgen
data_Ba2HoMgSbO6
_symmetry_space_group_name_H-M   'P 1'
_cell_length_a   6.61504545
_cell_length_b   6.25972148
_cell_length_c   6.61504521
_cell_angle_alpha   61.76150356
_cell_angle_beta   55.26273229
_cell_angle_gamma   61.76150494
_symmetry_Int_Tables_number   1
_chemical_formula_structural   Ba2HoMgSbO6
_chemical_formula_sum   'Ba2 Ho1 Mg1 Sb1 O6'
_cell_volume   190.31007463
_cell_formula_units_Z   1
loop_
 _symmetry_equiv_pos_site_id
 _symmetry_equiv_pos_as_xyz
  1  'x, y, z'
loop_
 _atom_site_type_symbol
 _atom_site_label
 _atom_site_symmetry_multiplicity
 _atom_site_fract_x
 _atom_site_fract_y
 _atom_site_fract_z
 _atom_site_occupancy
  Ba  Ba0  1  0.80684700  0.69315300  0.80684700  1
  Ba  Ba1  1  0.19315300  0.30684700  0.19315300  1
  Ho  Ho2  1  0.00000000  0.00000000  0.00000000  1
  Mg  Mg3  1  0.50000000  0.00000000  0.50000000  1
  Sb  Sb4  1  0.50000000  0.50000000  0.50000000  1
  O  O5  1  0.26545700  0.76793400  0.73454300  1
  O  O6  1  0.24080200  0.75919800  0.24080200  1
  O  O7  1  0.75919800  0.24080200  0.75919800  1
  O  O8  1  0.26545700  0.23206600  0.73454300  1
  O  O9  1  0.73454300  0.23206600  0.26545700  1
  O  O10  1  0.73454300  0.76793400  0.26545700  1
