# generated using pymatgen
data_NaGa2Sn2P3(SO8)3
_symmetry_space_group_name_H-M   'P 1'
_cell_length_a   8.62603657
_cell_length_b   8.63646075
_cell_length_c   22.47355303
_cell_angle_alpha   89.99002972
_cell_angle_beta   89.77845261
_cell_angle_gamma   119.99230323
_symmetry_Int_Tables_number   1
_chemical_formula_structural   NaGa2Sn2P3(SO8)3
_chemical_formula_sum   'Na3 Ga6 Sn6 P9 S9 O72'
_cell_volume   1450.03543519
_cell_formula_units_Z   3
loop_
 _symmetry_equiv_pos_site_id
 _symmetry_equiv_pos_as_xyz
  1  'x, y, z'
loop_
 _atom_site_type_symbol
 _atom_site_label
 _atom_site_symmetry_multiplicity
 _atom_site_fract_x
 _atom_site_fract_y
 _atom_site_fract_z
 _atom_site_occupancy
  Na  Na0  1  0.67694028  0.33506511  0.83414752  1
  Na  Na1  1  0.66320459  0.33938403  0.33089406  1
  Na  Na2  1  0.34322105  0.67277926  0.16975310  1
  Ga  Ga3  1  0.67616566  0.33401639  0.68867371  1
  Ga  Ga4  1  0.64660196  0.32558143  0.18561501  1
  Ga  Ga5  1  0.67058232  0.32568246  0.98483570  1
  Ga  Ga6  1  0.66601905  0.34274748  0.47620662  1
  Ga  Ga7  1  0.33354388  0.66463404  0.31374353  1
  Ga  Ga8  1  0.32296071  0.66800073  0.81146294  1
  Sn  Sn9  1  0.00639346  0.99489142  0.35301002  1
  Sn  Sn10  1  0.99411572  0.00176702  0.85310608  1
  Sn  Sn11  1  0.99528633  0.99466603  0.64858753  1
  Sn  Sn12  1  -0.00002181  0.99936292  0.14563226  1
  Sn  Sn13  1  0.33453891  0.66258879  0.02061419  1
  Sn  Sn14  1  0.32911330  0.66323550  0.51757623  1
  P  P15  1  0.29744421  0.99693199  0.24951138  1
  P  P16  1  0.70293262  0.70195921  0.24989638  1
  P  P17  1  0.99943676  0.70425263  0.75044882  1
  P  P18  1  0.69754330  0.99647621  0.75036613  1
  P  P19  1  0.66693776  0.04878056  0.08422511  1
  P  P20  1  0.38270780  0.33176736  0.08244853  1
  P  P21  1  0.04001393  0.38051862  0.91535528  1
  P  P22  1  0.33534138  0.37723456  0.41501909  1
  P  P23  1  0.04139264  0.66084619  0.41566866  1
  S  S24  1  0.99820478  0.29619354  0.25031507  1
  S  S25  1  0.29817749  0.29781596  0.74950982  1
  S  S26  1  0.95163905  0.33190691  0.58300043  1
  S  S27  1  0.38287883  0.04915730  0.58328816  1
  S  S28  1  0.66485229  0.61786844  0.58352077  1
  S  S29  1  0.95034556  0.61735301  0.08379149  1
  S  S30  1  0.62150376  0.65971534  0.91502656  1
  S  S31  1  0.33684329  0.96083256  0.91564905  1
  S  S32  1  0.62514424  0.96207627  0.41617610  1
  O  O33  1  0.22089193  0.04180400  0.30537790  1
  O  O34  1  0.81916266  0.78521915  0.30647184  1
  O  O35  1  0.96295534  0.18223253  0.30456253  1
  O  O36  1  0.22124416  0.17913483  0.80277840  1
  O  O37  1  0.95949203  0.78714962  0.80575006  1
  O  O38  1  0.82516044  0.04551504  0.80448675  1
  O  O39  1  0.77976064  0.96196585  0.69330090  1
  O  O40  1  0.18383159  0.21971177  0.69525590  1
  O  O41  1  0.04040245  0.82278334  0.69364513  1
  O  O42  1  0.78434159  0.82312336  0.19418221  1
  O  O43  1  0.03544974  0.21862627  0.19652714  1
  O  O44  1  0.17827226  0.96110812  0.19381216  1
  O  O45  1  0.87393367  0.36275643  0.63729126  1
  O  O46  1  0.48992165  0.12815281  0.63745590  1
  O  O47  1  0.63452846  0.50898823  0.63747551  1
  O  O48  1  0.87446494  0.50887539  0.13755012  1
  O  O49  1  0.63549675  0.13075709  0.13999063  1
  O  O50  1  0.49606402  0.37156668  0.13851269  1
  O  O51  1  0.46621542  0.30744715  0.02517806  1
  O  O52  1  0.84817878  0.54243910  0.02846381  1
  O  O53  1  0.69861597  0.15535112  0.02643437  1
  O  O54  1  0.46248024  0.15738870  0.52923018  1
  O  O55  1  0.69642183  0.54010683  0.52970191  1
  O  O56  1  0.84238038  0.30156790  0.52967101  1
  O  O57  1  0.55023080  0.70021140  0.96988646  1
  O  O58  1  0.15461174  0.45697535  0.97217141  1
  O  O59  1  0.30167740  0.85095147  0.97051460  1
  O  O60  1  0.55375947  0.85273188  0.47233980  1
  O  O61  1  0.30030714  0.45008152  0.47434315  1
  O  O62  1  0.15364372  0.70358579  0.47417512  1
  O  O63  1  0.12935428  0.63024984  0.36139570  1
  O  O64  1  0.51157917  0.88141760  0.36412478  1
  O  O65  1  0.37236427  0.49968981  0.36145792  1
  O  O66  1  0.12921848  0.49715303  0.86005281  1
  O  O67  1  0.36909283  0.87949736  0.86271710  1
  O  O68  1  0.51097765  0.63393546  0.86209667  1
  O  O69  1  0.01765433  0.82545463  0.41142629  1
  O  O70  1  0.80410086  0.98098573  0.41002908  1
  O  O71  1  0.16499199  0.19356363  0.40917401  1
  O  O72  1  0.02514845  0.19433337  0.90930399  1
  O  O73  1  0.17281328  0.97534721  0.90932877  1
  O  O74  1  0.80250424  0.82252218  0.91065582  1
  O  O75  1  0.97423966  0.17143413  0.58946104  1
  O  O76  1  0.20014279  0.02929933  0.58919900  1
  O  O77  1  0.82718860  0.79980099  0.58826839  1
  O  O78  1  0.97152083  0.79794182  0.08785935  1
  O  O79  1  0.83125361  0.02407928  0.08983765  1
  O  O80  1  0.19522530  0.16545950  0.08906044  1
  O  O81  1  0.68142171  0.16553450  0.74190936  1
  O  O82  1  0.47430622  0.31114704  0.74121460  1
  O  O83  1  0.82736424  0.52158653  0.74220167  1
  O  O84  1  0.69320742  0.52005662  0.24242864  1
  O  O85  1  0.83822443  0.31295211  0.24306414  1
  O  O86  1  0.48310029  0.16522610  0.24384114  1
  O  O87  1  0.63960713  0.49998472  0.92249109  1
  O  O88  1  0.85266948  0.36148384  0.92295239  1
  O  O89  1  0.49600190  0.14034975  0.92185121  1
  O  O90  1  0.64071749  0.13930630  0.42473575  1
  O  O91  1  0.50203236  0.35560423  0.42321033  1
  O  O92  1  0.85655064  0.48989998  0.42405415  1
  O  O93  1  0.35910333  0.50057485  0.07903747  1
  O  O94  1  0.13511561  0.64009251  0.07892274  1
  O  O95  1  0.49431461  0.85896142  0.07818714  1
  O  O96  1  0.36241079  0.86687125  0.57763590  1
  O  O97  1  0.50498683  0.64107662  0.57764640  1
  O  O98  1  0.13364392  0.49342484  0.57858279  1
  O  O99  1  0.31003663  0.82695755  0.25799830  1
  O  O100  1  0.51777275  0.68585001  0.25759157  1
  O  O101  1  0.16162770  0.47212073  0.25670953  1
  O  O102  1  0.31324020  0.47189449  0.75805158  1
  O  O103  1  0.16476001  0.68748220  0.75842104  1
  O  O104  1  0.51917835  0.82833194  0.76153308  1
