# generated using pymatgen
data_Nb4Zn2Si3(SO6)6
_symmetry_space_group_name_H-M   'P 1'
_cell_length_a   8.87275889
_cell_length_b   8.86065699
_cell_length_c   22.71339946
_cell_angle_alpha   90.34435566
_cell_angle_beta   90.00000000
_cell_angle_gamma   120.04519063
_symmetry_Int_Tables_number   1
_chemical_formula_structural   Nb4Zn2Si3(SO6)6
_chemical_formula_sum   'Nb8 Zn4 Si6 S12 O72'
_cell_volume   1545.71336436
_cell_formula_units_Z   2
loop_
 _symmetry_equiv_pos_site_id
 _symmetry_equiv_pos_as_xyz
  1  'x, y, z'
loop_
 _atom_site_type_symbol
 _atom_site_label
 _atom_site_symmetry_multiplicity
 _atom_site_fract_x
 _atom_site_fract_y
 _atom_site_fract_z
 _atom_site_occupancy
  Nb  Nb0  1  0.99800216  0.00391141  0.64172403  1
  Nb  Nb1  1  0.00590925  0.00391141  0.14172403  1
  Nb  Nb2  1  0.65621461  0.33904006  0.97650738  1
  Nb  Nb3  1  0.68282645  0.33904006  0.47650738  1
  Nb  Nb4  1  0.32394467  0.66946686  0.02433615  1
  Nb  Nb5  1  0.34552120  0.66946686  0.52433615  1
  Nb  Nb6  1  0.33965390  0.67541002  0.30721486  1
  Nb  Nb7  1  0.33575512  0.67541002  0.80721486  1
  Zn  Zn8  1  0.98868196  0.00351665  0.35841596  1
  Zn  Zn9  1  0.01483469  0.00351665  0.85841596  1
  Zn  Zn10  1  0.67738250  0.34886983  0.68391592  1
  Zn  Zn11  1  0.67148832  0.34886983  0.18391592  1
  Si  Si12  1  0.95328052  0.34034157  0.58603360  1
  Si  Si13  1  0.66704599  0.61021450  0.58733500  1
  Si  Si14  1  0.94316951  0.61021450  0.08733500  1
  Si  Si15  1  0.38706205  0.34034157  0.08603360  1
  Si  Si16  1  0.33320310  0.95681522  0.91566334  1
  Si  Si17  1  0.62361112  0.95681522  0.41566334  1
  S  S18  1  0.28516571  0.00278798  0.25209875  1
  S  S19  1  0.71585676  0.71250506  0.25194780  1
  S  S20  1  0.99478372  0.28480834  0.25195555  1
  S  S21  1  0.29002462  0.28480834  0.75195555  1
  S  S22  1  0.99664830  0.71250506  0.75194780  1
  S  S23  1  0.71762227  0.00278798  0.75209875  1
  S  S24  1  0.38042607  0.04757179  0.58394996  1
  S  S25  1  0.66714672  0.04757179  0.08394996  1
  S  S26  1  0.61699987  0.66864003  0.91458116  1
  S  S27  1  0.04772508  0.38381181  0.91531141  1
  S  S28  1  0.33608574  0.38381181  0.41531141  1
  S  S29  1  0.05163916  0.66864003  0.41458116  1
  O  O30  1  0.20412909  0.02511022  0.30422024  1
  O  O31  1  0.81813763  0.79629001  0.30430566  1
  O  O32  1  0.97905164  0.18399685  0.30404483  1
  O  O33  1  0.20494521  0.18399685  0.80404483  1
  O  O34  1  0.97815239  0.79629001  0.80430566  1
  O  O35  1  0.82098113  0.02511022  0.80422024  1
  O  O36  1  0.80105035  0.97131558  0.69835839  1
  O  O37  1  0.17403048  0.20314351  0.69808987  1
  O  O38  1  0.03424605  0.82329576  0.69871006  1
  O  O39  1  0.78904971  0.82329576  0.19871006  1
  O  O40  1  0.02911303  0.20314351  0.19808987  1
  O  O41  1  0.17026523  0.97131558  0.19835839  1
  O  O42  1  0.87715087  0.36960168  0.64401995  1
  O  O43  1  0.48397720  0.10889017  0.63702479  1
  O  O44  1  0.61162496  0.49714122  0.64418143  1
  O  O45  1  0.88551726  0.49714122  0.14418143  1
  O  O46  1  0.62491398  0.10889017  0.13702479  1
  O  O47  1  0.49245182  0.36960168  0.14401995  1
  O  O48  1  0.47144440  0.29935529  0.02585859  1
  O  O49  1  0.82452632  0.52184998  0.02764909  1
  O  O50  1  0.70125156  0.15779469  0.03138631  1
  O  O51  1  0.45654412  0.15779469  0.53138631  1
  O  O52  1  0.69732466  0.52184998  0.52764909  1
  O  O53  1  0.82791189  0.29935529  0.52585859  1
  O  O54  1  0.53117572  0.68496314  0.96748113  1
  O  O55  1  0.15898177  0.46814321  0.96857491  1
  O  O56  1  0.32151007  0.83243965  0.97068745  1
  O  O57  1  0.51092858  0.83243965  0.47068745  1
  O  O58  1  0.30916045  0.46814321  0.46857491  1
  O  O59  1  0.15378642  0.68496314  0.46748113  1
  O  O60  1  0.12983881  0.63148725  0.36163534  1
  O  O61  1  0.49115660  0.85463285  0.35732695  1
  O  O62  1  0.36170656  0.49693657  0.36277715  1
  O  O63  1  0.13522900  0.49693657  0.86277715  1
  O  O64  1  0.36347525  0.85463285  0.85732695  1
  O  O65  1  0.50164744  0.63148725  0.86163534  1
  O  O66  1  0.03515530  0.82133523  0.40703223  1
  O  O67  1  0.80757691  0.97599791  0.40973429  1
  O  O68  1  0.18516708  0.21190822  0.40861853  1
  O  O69  1  0.02674114  0.21190822  0.90861853  1
  O  O70  1  0.16842100  0.97599791  0.90973429  1
  O  O71  1  0.78617992  0.82133523  0.90703223  1
  O  O72  1  0.97992662  0.16701037  0.59578450  1
  O  O73  1  0.20324929  0.02903203  0.59224740  1
  O  O74  1  0.84368174  0.80630634  0.59807481  1
  O  O75  1  0.96262460  0.80630634  0.09807481  1
  O  O76  1  0.82578274  0.02903203  0.09224740  1
  O  O77  1  0.18708376  0.16701037  0.09578450  1
  O  O78  1  0.67720500  0.13946507  0.74206533  1
  O  O79  1  0.46162196  0.30767686  0.74314421  1
  O  O80  1  0.85384924  0.53565883  0.74552998  1
  O  O81  1  0.68181059  0.53565883  0.24552998  1
  O  O82  1  0.84605590  0.30767686  0.24314421  1
  O  O83  1  0.46226107  0.13946507  0.24206533  1
  O  O84  1  0.62974272  0.50411855  0.92053591  1
  O  O85  1  0.87973048  0.37936469  0.92342920  1
  O  O86  1  0.51920695  0.14017801  0.92665283  1
  O  O87  1  0.62097206  0.14017801  0.42665283  1
  O  O88  1  0.49963521  0.37936469  0.42342920  1
  O  O89  1  0.87437683  0.50411855  0.42053591  1
  O  O90  1  0.35757909  0.49958224  0.06568645  1
  O  O91  1  0.14294287  0.65534223  0.06902657  1
  O  O92  1  0.52217529  0.86512083  0.07119459  1
  O  O93  1  0.34294454  0.86512083  0.57119459  1
  O  O94  1  0.51239836  0.65534223  0.56902657  1
  O  O95  1  0.14200215  0.49958224  0.56568645  1
  O  O96  1  0.28639123  0.82752873  0.25721433  1
  O  O97  1  0.53221880  0.69745170  0.25842018  1
  O  O98  1  0.16088605  0.46282340  0.25828565  1
  O  O99  1  0.30193635  0.46282340  0.75828565  1
  O  O100  1  0.16523190  0.69745170  0.75842018  1
  O  O101  1  0.54113650  0.82752873  0.75721433  1
