# generated using pymatgen
data_Na3CaInP2SO12
_symmetry_space_group_name_H-M   'P 1'
_cell_length_a   9.30792755
_cell_length_b   9.25452660
_cell_length_c   22.99565438
_cell_angle_alpha   90.49397161
_cell_angle_beta   90.00000000
_cell_angle_gamma   120.19106265
_symmetry_Int_Tables_number   1
_chemical_formula_structural   Na3CaInP2SO12
_chemical_formula_sum   'Na18 Ca6 In6 P12 S6 O72'
_cell_volume   1712.07443575
_cell_formula_units_Z   6
loop_
 _symmetry_equiv_pos_site_id
 _symmetry_equiv_pos_as_xyz
  1  'x, y, z'
loop_
 _atom_site_type_symbol
 _atom_site_label
 _atom_site_symmetry_multiplicity
 _atom_site_fract_x
 _atom_site_fract_y
 _atom_site_fract_z
 _atom_site_occupancy
  Na  Na0  1  0.35836302  0.35294071  0.24606702  1
  Na  Na1  1  0.00322357  0.63643014  0.24493984  1
  Na  Na2  1  0.63320657  0.63643014  0.74493984  1
  Na  Na3  1  0.99457769  0.35294071  0.74606702  1
  Na  Na4  1  0.02503002  0.68627371  0.57940002  1
  Na  Na5  1  0.66989057  0.96976314  0.57827284  1
  Na  Na6  1  0.29987357  0.96976314  0.07827284  1
  Na  Na7  1  0.66124469  0.68627371  0.07940002  1
  Na  Na8  1  0.69169602  0.01960771  0.91273402  1
  Na  Na9  1  0.33655657  0.30309714  0.91160684  1
  Na  Na10  1  0.96653957  0.30309714  0.41160684  1
  Na  Na11  1  0.32791069  0.01960771  0.41273402  1
  Na  Na12  1  0.97847557  0.98395283  0.49822679  1
  Na  Na13  1  0.00547726  0.98395283  0.99822679  1
  Na  Na14  1  0.64514257  0.31728583  0.83155979  1
  Na  Na15  1  0.67214426  0.31728583  0.33155979  1
  Na  Na16  1  0.31180857  0.65061983  0.16489379  1
  Na  Na17  1  0.33881026  0.65061983  0.66489379  1
  Ca  Ca18  1  0.98827061  0.99302572  0.35061178  1
  Ca  Ca19  1  0.00475511  0.99302572  0.85061178  1
  Ca  Ca20  1  0.65493761  0.32635872  0.68394478  1
  Ca  Ca21  1  0.67142211  0.32635872  0.18394478  1
  Ca  Ca22  1  0.32160361  0.65969272  0.01727878  1
  Ca  Ca23  1  0.33808811  0.65969272  0.51727878  1
  In  In24  1  0.00152160  0.01254541  0.65213675  1
  In  In25  1  0.01102381  0.01254541  0.15213675  1
  In  In26  1  0.66818860  0.34587841  0.98546975  1
  In  In27  1  0.67769081  0.34587841  0.48546975  1
  In  In28  1  0.33485460  0.67921241  0.31880375  1
  In  In29  1  0.34435681  0.67921241  0.81880375  1
  P  P30  1  0.29649402  0.99508241  0.25197013  1
  P  P31  1  0.01113776  0.30801001  0.25462553  1
  P  P32  1  0.29687225  0.30801001  0.75462553  1
  P  P33  1  0.69858839  0.99508241  0.75197013  1
  P  P34  1  0.96316102  0.32841541  0.58530313  1
  P  P35  1  0.67780476  0.64134301  0.58795853  1
  P  P36  1  0.96353925  0.64134301  0.08795853  1
  P  P37  1  0.36525539  0.32841541  0.08530313  1
  P  P38  1  0.62982702  0.66174941  0.91863713  1
  P  P39  1  0.34447076  0.97467701  0.92129253  1
  P  P40  1  0.63020525  0.97467701  0.42129253  1
  P  P41  1  0.03192139  0.66174941  0.41863713  1
  S  S42  1  0.69325744  0.70141133  0.24725464  1
  S  S43  1  0.00815389  0.70141133  0.74725464  1
  S  S44  1  0.35992444  0.03474433  0.58058764  1
  S  S45  1  0.67482089  0.03474433  0.08058764  1
  S  S46  1  0.02659044  0.36807833  0.91392164  1
  S  S47  1  0.34148689  0.36807833  0.41392164  1
  O  O48  1  0.21232456  0.01199412  0.30639869  1
  O  O49  1  0.79763351  0.78648610  0.29787406  1
  O  O50  1  0.99291609  0.21493723  0.31028783  1
  O  O51  1  0.22202115  0.21493723  0.81028783  1
  O  O52  1  0.98885259  0.78648610  0.79787406  1
  O  O53  1  0.79966956  0.01199412  0.80639869  1
  O  O54  1  0.77902757  0.96438914  0.69604321  1
  O  O55  1  0.18430526  0.21725283  0.70027884  1
  O  O56  1  0.02931623  0.79759203  0.69297262  1
  O  O57  1  0.76827580  0.79759203  0.19297262  1
  O  O58  1  0.03294757  0.21725283  0.20027884  1
  O  O59  1  0.18536157  0.96438914  0.19604321  1
  O  O60  1  0.87899156  0.34532712  0.63973169  1
  O  O61  1  0.46430051  0.11981910  0.63120706  1
  O  O62  1  0.65958309  0.54827023  0.64362083  1
  O  O63  1  0.88868815  0.54827023  0.14362083  1
  O  O64  1  0.65551959  0.11981910  0.13120706  1
  O  O65  1  0.46633656  0.34532712  0.13973169  1
  O  O66  1  0.44569457  0.29772214  0.02937621  1
  O  O67  1  0.85097226  0.55058583  0.03361184  1
  O  O68  1  0.69598323  0.13092503  0.02630562  1
  O  O69  1  0.43494280  0.13092503  0.52630562  1
  O  O70  1  0.69961457  0.55058583  0.53361184  1
  O  O71  1  0.85202857  0.29772214  0.52937621  1
  O  O72  1  0.54565756  0.67866112  0.97306569  1
  O  O73  1  0.13096651  0.45315310  0.96454106  1
  O  O74  1  0.32624909  0.88160423  0.97695483  1
  O  O75  1  0.55535415  0.88160423  0.47695483  1
  O  O76  1  0.32218559  0.45315310  0.46454106  1
  O  O77  1  0.13300256  0.67866112  0.47306569  1
  O  O78  1  0.11236057  0.63105614  0.36271021  1
  O  O79  1  0.51763826  0.88391983  0.36694584  1
  O  O80  1  0.36264923  0.46425903  0.35963962  1
  O  O81  1  0.10160880  0.46425903  0.85963962  1
  O  O82  1  0.36628057  0.88391983  0.86694584  1
  O  O83  1  0.51869457  0.63105614  0.86271021  1
  O  O84  1  0.02132419  0.82140645  0.41373999  1
  O  O85  1  0.81017209  0.01066501  0.41521092  1
  O  O86  1  0.19096001  0.19989366  0.41114572  1
  O  O87  1  0.00893365  0.19989366  0.91114572  1
  O  O88  1  0.20049292  0.01066501  0.91521092  1
  O  O89  1  0.80008226  0.82140645  0.91373999  1
  O  O90  1  0.97360999  0.16360068  0.58643655  1
  O  O91  1  0.18922078  0.01215680  0.58594643  1
  O  O92  1  0.84802514  0.81622738  0.58783267  1
  O  O93  1  0.96820224  0.81622738  0.08783267  1
  O  O94  1  0.82293602  0.01215680  0.08594643  1
  O  O95  1  0.18999069  0.16360068  0.08643655  1
  O  O96  1  0.68799119  0.15473945  0.74707299  1
  O  O97  1  0.47683909  0.34399801  0.74854392  1
  O  O98  1  0.85762701  0.53322666  0.74447872  1
  O  O99  1  0.67560065  0.53322666  0.24447872  1
  O  O100  1  0.86715992  0.34399801  0.24854392  1
  O  O101  1  0.46674926  0.15473945  0.24707299  1
  O  O102  1  0.64027699  0.49693368  0.91976955  1
  O  O103  1  0.85588778  0.34548980  0.91927943  1
  O  O104  1  0.51469214  0.14956038  0.92116567  1
  O  O105  1  0.63486924  0.14956038  0.42116567  1
  O  O106  1  0.48960302  0.34548980  0.41927943  1
  O  O107  1  0.85665769  0.49693368  0.41976955  1
  O  O108  1  0.35465719  0.48807345  0.08040699  1
  O  O109  1  0.14350509  0.67733201  0.08187792  1
  O  O110  1  0.52429301  0.86656066  0.07781272  1
  O  O111  1  0.34226665  0.86656066  0.57781272  1
  O  O112  1  0.53382592  0.67733201  0.58187792  1
  O  O113  1  0.13341526  0.48807345  0.58040699  1
  O  O114  1  0.30694299  0.83026768  0.25310355  1
  O  O115  1  0.52255378  0.67882380  0.25261343  1
  O  O116  1  0.18135814  0.48289438  0.25449967  1
  O  O117  1  0.30153524  0.48289438  0.75449967  1
  O  O118  1  0.15626902  0.67882380  0.75261343  1
  O  O119  1  0.52332369  0.83026768  0.75310355  1
