# generated using pymatgen
data_ZnGeN2
_symmetry_space_group_name_H-M   'P 1'
_cell_length_a   5.19331949
_cell_length_b   5.45279706
_cell_length_c   6.43529302
_cell_angle_alpha   90.00000000
_cell_angle_beta   90.00000000
_cell_angle_gamma   90.00000000
_symmetry_Int_Tables_number   1
_chemical_formula_structural   ZnGeN2
_chemical_formula_sum   'Zn4 Ge4 N8'
_cell_volume   182.23538226
_cell_formula_units_Z   4
loop_
 _symmetry_equiv_pos_site_id
 _symmetry_equiv_pos_as_xyz
  1  'x, y, z'
loop_
 _atom_site_type_symbol
 _atom_site_label
 _atom_site_symmetry_multiplicity
 _atom_site_fract_x
 _atom_site_fract_y
 _atom_site_fract_z
 _atom_site_occupancy
  Zn  Zn0  1  -0.00068511  0.58333260  0.87544055  1
  Zn  Zn1  1  0.49931489  0.91666740  0.37544055  1
  Zn  Zn2  1  0.49931489  0.41666740  0.12455945  1
  Zn  Zn3  1  -0.00068511  0.08333260  0.62455945  1
  Ge  Ge4  1  0.00025634  0.07679674  0.12541457  1
  Ge  Ge5  1  0.50025634  0.92320326  0.87458543  1
  Ge  Ge6  1  0.50025634  0.42320326  0.62541457  1
  Ge  Ge7  1  0.00025634  0.57679674  0.37458543  1
  N  N8  1  0.39242572  0.59769245  0.85963172  1
  N  N9  1  0.89242572  0.40230755  0.14036828  1
  N  N10  1  0.89242572  0.90230755  0.35963172  1
  N  N11  1  0.39242572  0.09769245  0.64036828  1
  N  N12  1  0.35900305  0.56612759  0.39008105  1
  N  N13  1  0.35900305  0.06612759  0.10991895  1
  N  N14  1  0.85900305  0.93387241  0.89008105  1
  N  N15  1  0.85900305  0.43387241  0.60991895  1
