# generated using pymatgen
data_Tm2MgCr2O8
_symmetry_space_group_name_H-M   'P 1'
_cell_length_a   6.14898889
_cell_length_b   6.13755892
_cell_length_c   6.00614379
_cell_angle_alpha   105.74234456
_cell_angle_beta   105.83024819
_cell_angle_gamma   117.90363192
_symmetry_Int_Tables_number   1
_chemical_formula_structural   Tm2MgCr2O8
_chemical_formula_sum   'Tm2 Mg1 Cr2 O8'
_cell_volume   170.18322797
_cell_formula_units_Z   1
loop_
 _symmetry_equiv_pos_site_id
 _symmetry_equiv_pos_as_xyz
  1  'x, y, z'
loop_
 _atom_site_type_symbol
 _atom_site_label
 _atom_site_symmetry_multiplicity
 _atom_site_fract_x
 _atom_site_fract_y
 _atom_site_fract_z
 _atom_site_occupancy
  Tm  Tm0  1  0.15454800  0.90456500  0.30906600  1
  Tm  Tm1  1  0.87393100  0.12391600  0.74787600  1
  Mg  Mg2  1  0.86644900  0.61644400  0.73299400  1
  Cr  Cr3  1  0.37691800  0.62692800  0.75385700  1
  Cr  Cr4  1  0.59923700  0.34924800  0.19843500  1
  O  O5  1  0.81476300  0.72382100  0.44838100  1
  O  O6  1  0.39066900  0.81719900  0.57357700  1
  O  O7  1  0.74798500  0.80209900  0.93836100  1
  O  O8  1  0.80189300  0.38422000  0.03312800  1
  O  O9  1  0.63361800  0.22454300  0.44836700  1
  O  O10  1  0.18292400  0.25639700  0.57358500  1
  O  O11  1  0.19038200  0.63627900  0.93837500  1
  O  O12  1  0.23126700  0.14892600  0.03316300  1
