# generated using pymatgen
data_Na8Ca3TiSi3(SO8)3
_symmetry_space_group_name_H-M   'P 1'
_cell_length_a   9.41687443
_cell_length_b   9.42008305
_cell_length_c   22.78093124
_cell_angle_alpha   90.20829103
_cell_angle_beta   89.57646401
_cell_angle_gamma   119.91173935
_symmetry_Int_Tables_number   1
_chemical_formula_structural   Na8Ca3TiSi3(SO8)3
_chemical_formula_sum   'Na24 Ca9 Ti3 Si9 S9 O72'
_cell_volume   1751.60958360
_cell_formula_units_Z   3
loop_
 _symmetry_equiv_pos_site_id
 _symmetry_equiv_pos_as_xyz
  1  'x, y, z'
loop_
 _atom_site_type_symbol
 _atom_site_label
 _atom_site_symmetry_multiplicity
 _atom_site_fract_x
 _atom_site_fract_y
 _atom_site_fract_z
 _atom_site_occupancy
  Na  Na0  1  0.63053141  0.99729560  0.26321125  1
  Na  Na1  1  0.37000621  0.36814398  0.24157369  1
  Na  Na2  1  0.99937662  0.62437614  0.25417556  1
  Na  Na3  1  0.63466199  0.65250163  0.73294607  1
  Na  Na4  1  0.98117367  0.33853665  0.75411204  1
  Na  Na5  1  0.37759471  0.01022706  0.73721580  1
  Na  Na6  1  0.32070230  0.33643550  0.58258425  1
  Na  Na7  1  0.04705993  0.72023843  0.56722959  1
  Na  Na8  1  0.64712689  0.94188539  0.57938469  1
  Na  Na9  1  0.28205505  0.95320710  0.06974831  1
  Na  Na10  1  0.66088952  0.67980087  0.08244708  1
  Na  Na11  1  0.05887181  0.35509437  0.07284160  1
  Na  Na12  1  0.99391893  0.67812456  0.92139627  1
  Na  Na13  1  0.71215312  0.05225322  0.90664477  1
  Na  Na14  1  0.30915395  0.29022469  0.92094907  1
  Na  Na15  1  0.96029517  0.31369639  0.42012680  1
  Na  Na16  1  0.32920754  0.00030203  0.42778754  1
  Na  Na17  1  0.70616535  0.68832964  0.43245948  1
  Na  Na18  1  0.99131980  0.97959371  0.49971441  1
  Na  Na19  1  0.02327547  0.01268278  0.99772757  1
  Na  Na20  1  0.66658834  0.30957168  0.83596568  1
  Na  Na21  1  0.68163422  0.33245551  0.34774829  1
  Na  Na22  1  0.31351283  0.64892682  0.15520247  1
  Na  Na23  1  0.36203333  0.69116768  0.65514674  1
  Ca  Ca24  1  0.99643544  0.99600324  0.35215400  1
  Ca  Ca25  1  0.99839054  0.00420427  0.84856482  1
  Ca  Ca26  1  0.98293853  0.98579769  0.64660134  1
  Ca  Ca27  1  0.00645893  0.99793683  0.14182123  1
  Ca  Ca28  1  0.66245129  0.32824367  0.68125642  1
  Ca  Ca29  1  0.66847076  0.33734592  0.17968133  1
  Ca  Ca30  1  0.32998571  0.66605238  0.01344299  1
  Ca  Ca31  1  0.33938310  0.67438819  0.51305370  1
  Ca  Ca32  1  0.32873606  0.67813474  0.32987148  1
  Ti  Ti33  1  0.67069547  0.34067486  0.98409695  1
  Ti  Ti34  1  0.65946281  0.33093096  0.48728232  1
  Ti  Ti35  1  0.32875461  0.68847430  0.82320939  1
  Si  Si36  1  0.68147457  0.98867570  0.75521187  1
  Si  Si37  1  0.36512072  0.03577507  0.58479785  1
  Si  Si38  1  0.66473342  0.62635852  0.58487248  1
  Si  Si39  1  0.96291718  0.62956051  0.08357676  1
  Si  Si40  1  0.37384285  0.33500965  0.08315597  1
  Si  Si41  1  0.03058752  0.37399631  0.91838425  1
  Si  Si42  1  0.34266377  0.98137227  0.92182958  1
  Si  Si43  1  0.64538411  0.98894220  0.41696721  1
  Si  Si44  1  0.01048440  0.65416742  0.41751148  1
  S  S45  1  0.30316796  0.99590289  0.24888130  1
  S  S46  1  0.69176749  0.69638076  0.24938466  1
  S  S47  1  0.00405688  0.30287567  0.24831203  1
  S  S48  1  0.30350031  0.31547095  0.75230575  1
  S  S49  1  0.01288086  0.69651450  0.75399607  1
  S  S50  1  0.95930680  0.33109629  0.58147207  1
  S  S51  1  0.67092465  0.04429471  0.08047414  1
  S  S52  1  0.62714299  0.65632435  0.91620573  1
  S  S53  1  0.34364990  0.36152382  0.41631130  1
  O  O54  1  0.22106928  0.01299654  0.30214538  1
  O  O55  1  0.79031007  0.78507824  0.30155250  1
  O  O56  1  0.99775063  0.20892065  0.30132042  1
  O  O57  1  0.22480361  0.21169166  0.80500139  1
  O  O58  1  0.98829035  0.77252343  0.80744646  1
  O  O59  1  0.79010106  0.01090104  0.81273441  1
  O  O60  1  0.75172334  0.94531831  0.69597141  1
  O  O61  1  0.20409313  0.23404400  0.69904386  1
  O  O62  1  0.03646386  0.79760730  0.70150029  1
  O  O63  1  0.77172519  0.79069651  0.19496904  1
  O  O64  1  0.01090187  0.21679116  0.19435972  1
  O  O65  1  0.20821605  0.98663639  0.19570283  1
  O  O66  1  0.89208326  0.35352443  0.63769982  1
  O  O67  1  0.45879933  0.11054755  0.64619927  1
  O  O68  1  0.65973985  0.54286997  0.64749075  1
  O  O69  1  0.88843494  0.53432478  0.14490034  1
  O  O70  1  0.64835667  0.11192504  0.13626001  1
  O  O71  1  0.45909574  0.34290303  0.14565401  1
  O  O72  1  0.49678737  0.32631260  0.02657125  1
  O  O73  1  0.83622463  0.50402118  0.02681931  1
  O  O74  1  0.68075639  0.14959129  0.02897121  1
  O  O75  1  0.49008635  0.16022328  0.52951757  1
  O  O76  1  0.66755978  0.50308274  0.53016846  1
  O  O77  1  0.85362131  0.32238882  0.53059454  1
  O  O78  1  0.56424015  0.68761005  0.97138361  1
  O  O79  1  0.13726711  0.44204908  0.97728445  1
  O  O80  1  0.31541457  0.87511897  0.97964778  1
  O  O81  1  0.56004666  0.85549946  0.46901857  1
  O  O82  1  0.31379688  0.43819622  0.46798231  1
  O  O83  1  0.13555221  0.68263058  0.47069663  1
  O  O84  1  0.07432558  0.61040529  0.35589121  1
  O  O85  1  0.53587137  0.92223186  0.35632729  1
  O  O86  1  0.36620565  0.46043782  0.36214552  1
  O  O87  1  0.14488842  0.50938787  0.86283556  1
  O  O88  1  0.35572613  0.86165073  0.86487907  1
  O  O89  1  0.51714985  0.64053334  0.86582105  1
  O  O90  1  0.99074482  0.81731708  0.41507072  1
  O  O91  1  0.83625732  0.03285501  0.41256738  1
  O  O92  1  0.20378792  0.19255151  0.41055763  1
  O  O93  1  0.00016255  0.18985676  0.90957782  1
  O  O94  1  0.18385911  0.00169850  0.91178936  1
  O  O95  1  0.79743906  0.79091962  0.90820786  1
  O  O96  1  0.96318466  0.17547438  0.58155447  1
  O  O97  1  0.19358561  0.04001136  0.57820276  1
  O  O98  1  0.83148001  0.80416719  0.57566657  1
  O  O99  1  0.95456242  0.79846829  0.07524462  1
  O  O100  1  0.82620260  0.03958468  0.08027021  1
  O  O101  1  0.19588977  0.16845465  0.07471871  1
  O  O102  1  0.66157972  0.15222999  0.75285741  1
  O  O103  1  0.47241495  0.34028641  0.74917827  1
  O  O104  1  0.87214207  0.52680864  0.74921492  1
  O  O105  1  0.67820146  0.53087155  0.24974910  1
  O  O106  1  0.85197368  0.31700895  0.24958117  1
  O  O107  1  0.47266546  0.14110974  0.24748610  1
  O  O108  1  0.62858002  0.49692515  0.91882551  1
  O  O109  1  0.85012175  0.37056206  0.92082441  1
  O  O110  1  0.51806774  0.15817895  0.92211933  1
  O  O111  1  0.65141009  0.16861311  0.42986828  1
  O  O112  1  0.49735499  0.35225401  0.42276652  1
  O  O113  1  0.82567383  0.48993130  0.43035821  1
  O  O114  1  0.36588911  0.50369426  0.07913095  1
  O  O115  1  0.14865827  0.66049308  0.07969309  1
  O  O116  1  0.53029374  0.87577851  0.07512295  1
  O  O117  1  0.33800309  0.85084433  0.57997879  1
  O  O118  1  0.49667615  0.63582517  0.58003058  1
  O  O119  1  0.12704152  0.47147754  0.57481244  1
  O  O120  1  0.31403472  0.84253381  0.25064237  1
  O  O121  1  0.52372545  0.67610117  0.25284944  1
  O  O122  1  0.15415440  0.46906049  0.24864231  1
  O  O123  1  0.31231014  0.47864249  0.75796848  1
  O  O124  1  0.16854941  0.68675461  0.75948704  1
  O  O125  1  0.49076595  0.81448437  0.76585143  1
