# generated using pymatgen
data_Na2MgGe2(SbO5)2
_symmetry_space_group_name_H-M   'P 1'
_cell_length_a   5.55722905
_cell_length_b   6.01474298
_cell_length_c   8.35635131
_cell_angle_alpha   110.05805945
_cell_angle_beta   103.13641457
_cell_angle_gamma   104.65774820
_symmetry_Int_Tables_number   1
_chemical_formula_structural   Na2MgGe2(SbO5)2
_chemical_formula_sum   'Na2 Mg1 Ge2 Sb2 O10'
_cell_volume   238.19380802
_cell_formula_units_Z   1
loop_
 _symmetry_equiv_pos_site_id
 _symmetry_equiv_pos_as_xyz
  1  'x, y, z'
loop_
 _atom_site_type_symbol
 _atom_site_label
 _atom_site_symmetry_multiplicity
 _atom_site_fract_x
 _atom_site_fract_y
 _atom_site_fract_z
 _atom_site_occupancy
  Na  Na0  1  0.34722300  0.69669500  0.67743900  1
  Na  Na1  1  0.67474200  0.33823800  0.34230200  1
  Mg  Mg2  1  0.41036600  0.30415800  0.92631700  1
  Ge  Ge3  1  0.33001800  0.69164000  0.26770700  1
  Ge  Ge4  1  0.68800300  0.28794600  0.71103100  1
  Sb  Sb5  1  0.01581000  0.00701100  0.49409700  1
  Sb  Sb6  1  0.96921400  0.94717500  0.02940000  1
  O  O7  1  0.12388700  0.99955700  0.72763200  1
  O  O8  1  0.88309400  0.03317100  0.26094400  1
  O  O9  1  0.07483300  0.67672900  0.36840300  1
  O  O10  1  0.27964800  0.83672900  0.11642000  1
  O  O11  1  0.95016600  0.34390400  0.62368500  1
  O  O12  1  0.66569100  0.13226400  0.85346200  1
  O  O13  1  0.39214600  0.21706100  0.52465900  1
  O  O14  1  0.65966800  0.57694000  0.87221500  1
  O  O15  1  0.63229200  0.82108000  0.45882200  1
  O  O16  1  0.33177200  0.38732100  0.14725100  1
