# generated using pymatgen
data_NdBr3
_symmetry_space_group_name_H-M   'P 1'
_cell_length_a   4.13024171
_cell_length_b   6.88153728
_cell_length_c   9.23973740
_cell_angle_alpha   90.00000000
_cell_angle_beta   90.00000000
_cell_angle_gamma   107.46335634
_symmetry_Int_Tables_number   1
_chemical_formula_structural   NdBr3
_chemical_formula_sum   'Nd2 Br6'
_cell_volume   250.51142840
_cell_formula_units_Z   2
loop_
 _symmetry_equiv_pos_site_id
 _symmetry_equiv_pos_as_xyz
  1  'x, y, z'
loop_
 _atom_site_type_symbol
 _atom_site_label
 _atom_site_symmetry_multiplicity
 _atom_site_fract_x
 _atom_site_fract_y
 _atom_site_fract_z
 _atom_site_occupancy
  Nd  Nd0  1  0.74230539  0.48461179  0.25000000  1
  Nd  Nd1  1  0.25769461  0.51538821  0.75000000  1
  Br  Br2  1  0.35173752  0.70347604  0.43402000  1
  Br  Br3  1  0.64826248  0.29652396  0.56598000  1
  Br  Br4  1  0.91442236  0.82884472  0.75000000  1
  Br  Br5  1  0.08557764  0.17115528  0.25000000  1
  Br  Br6  1  0.35173752  0.70347604  0.06598000  1
  Br  Br7  1  0.64826248  0.29652396  0.93402000  1
