# generated using pymatgen
data_Na5TiNb3(SiO4)6
_symmetry_space_group_name_H-M   'P 1'
_cell_length_a   9.02097850
_cell_length_b   9.01687019
_cell_length_c   22.60212625
_cell_angle_alpha   90.27008767
_cell_angle_beta   89.80522368
_cell_angle_gamma   120.19223567
_symmetry_Int_Tables_number   1
_chemical_formula_structural   Na5TiNb3(SiO4)6
_chemical_formula_sum   'Na15 Ti3 Nb9 Si18 O72'
_cell_volume   1589.05792301
_cell_formula_units_Z   3
loop_
 _symmetry_equiv_pos_site_id
 _symmetry_equiv_pos_as_xyz
  1  'x, y, z'
loop_
 _atom_site_type_symbol
 _atom_site_label
 _atom_site_symmetry_multiplicity
 _atom_site_fract_x
 _atom_site_fract_y
 _atom_site_fract_z
 _atom_site_occupancy
  Na  Na0  1  0.36865811  0.36423607  0.24838615  1
  Na  Na1  1  0.99343754  0.62948904  0.24810517  1
  Na  Na2  1  0.63632309  0.62958852  0.74844838  1
  Na  Na3  1  0.99591546  0.36662804  0.74861129  1
  Na  Na4  1  0.03205407  0.69836882  0.58418906  1
  Na  Na5  1  0.30161053  0.96861963  0.08402166  1
  Na  Na6  1  0.69951794  0.03326209  0.91755191  1
  Na  Na7  1  0.96908499  0.29604852  0.41487618  1
  Na  Na8  1  0.32908003  0.03337495  0.41511313  1
  Na  Na9  1  0.99361261  0.99871595  0.49778890  1
  Na  Na10  1  0.00002808  0.00000590  0.00077700  1
  Na  Na11  1  0.66036927  0.33224490  0.83206992  1
  Na  Na12  1  0.66659057  0.33275382  0.32959329  1
  Na  Na13  1  0.33975435  0.66767330  0.16537561  1
  Na  Na14  1  0.33944732  0.67287110  0.66563987  1
  Ti  Ti15  1  0.99588358  0.99585766  0.35106861  1
  Ti  Ti16  1  0.66077317  0.32707867  0.68560897  1
  Ti  Ti17  1  0.66595096  0.32763628  0.18563440  1
  Nb  Nb18  1  0.00554527  0.00062270  0.85422316  1
  Nb  Nb19  1  -0.00022529  0.00413750  0.64494424  1
  Nb  Nb20  1  0.99423059  0.99971947  0.14551669  1
  Nb  Nb21  1  0.66777780  0.33910552  0.97962764  1
  Nb  Nb22  1  0.66710147  0.33722654  0.48003434  1
  Nb  Nb23  1  0.33233223  0.66130624  0.02221072  1
  Nb  Nb24  1  0.33854336  0.66707047  0.52134748  1
  Nb  Nb25  1  0.33656339  0.67022596  0.31231480  1
  Nb  Nb26  1  0.33342380  0.67043410  0.81321952  1
  Si  Si27  1  0.29166758  0.00394096  0.25029296  1
  Si  Si28  1  0.71141591  0.71027721  0.25061220  1
  Si  Si29  1  0.99169548  0.28405392  0.25134098  1
  Si  Si30  1  0.29534422  0.28848574  0.74941519  1
  Si  Si31  1  0.00013184  0.70960700  0.74849959  1
  Si  Si32  1  0.70894531  0.00364428  0.75000511  1
  Si  Si33  1  0.95219029  0.33084696  0.58457930  1
  Si  Si34  1  0.38009931  0.04661655  0.58422937  1
  Si  Si35  1  0.66309543  0.61967457  0.58612512  1
  Si  Si36  1  0.95298490  0.61950657  0.08580326  1
  Si  Si37  1  0.66962529  0.04808404  0.08338595  1
  Si  Si38  1  0.38157561  0.33611307  0.08581544  1
  Si  Si39  1  0.62181992  0.66373367  0.91632711  1
  Si  Si40  1  0.04363206  0.37745333  0.91650266  1
  Si  Si41  1  0.33065873  0.95622122  0.91858751  1
  Si  Si42  1  0.62946313  0.95559191  0.41650787  1
  Si  Si43  1  0.33344060  0.37560962  0.41575616  1
  Si  Si44  1  0.04212517  0.67071313  0.41657661  1
  O  O45  1  0.20001197  0.03349782  0.30881293  1
  O  O46  1  0.83912752  0.80653042  0.30692586  1
  O  O47  1  0.97170787  0.16928114  0.30996946  1
  O  O48  1  0.19600838  0.16714923  0.80686565  1
  O  O49  1  0.96718643  0.80468058  0.80551870  1
  O  O50  1  0.83065027  0.03383083  0.80837968  1
  O  O51  1  0.80266711  0.96502093  0.69383014  1
  O  O52  1  0.16319003  0.19752563  0.69354215  1
  O  O53  1  0.03114436  0.83037536  0.69049847  1
  O  O54  1  0.80386346  0.83446401  0.19298369  1
  O  O55  1  0.03533388  0.19673754  0.19437145  1
  O  O56  1  0.16691232  0.96447095  0.19199271  1
  O  O57  1  0.86649450  0.36848213  0.64230410  1
  O  O58  1  0.50375123  0.14175290  0.64075072  1
  O  O59  1  0.63823395  0.50307354  0.64402697  1
  O  O60  1  0.86409493  0.50223293  0.14385376  1
  O  O61  1  0.63294698  0.13952476  0.13980525  1
  O  O62  1  0.49796000  0.36282824  0.14413748  1
  O  O63  1  0.47081886  0.29990564  0.02753104  1
  O  O64  1  0.83309327  0.52785429  0.02698806  1
  O  O65  1  0.69580717  0.16206881  0.02350962  1
  O  O66  1  0.46725623  0.16255761  0.52446098  1
  O  O67  1  0.69896579  0.52934889  0.52785095  1
  O  O68  1  0.83632902  0.30433089  0.52473624  1
  O  O69  1  0.52947461  0.70096156  0.97256145  1
  O  O70  1  0.16763300  0.47253230  0.97324507  1
  O  O71  1  0.30393824  0.83793686  0.97646904  1
  O  O72  1  0.52875523  0.83343764  0.47369056  1
  O  O73  1  0.30086728  0.47169281  0.47243031  1
  O  O74  1  0.16473814  0.69957833  0.47465499  1
  O  O75  1  0.13156955  0.63178039  0.35883124  1
  O  O76  1  0.49631065  0.86391125  0.36045554  1
  O  O77  1  0.36393743  0.49757735  0.35770612  1
  O  O78  1  0.13390145  0.49548510  0.85744902  1
  O  O79  1  0.36512095  0.86241028  0.86094025  1
  O  O80  1  0.50393477  0.63753342  0.85715430  1
  O  O81  1  0.03220414  0.84408475  0.40972890  1
  O  O82  1  0.81999041  0.98347022  0.41017336  1
  O  O83  1  0.16265878  0.18723497  0.41083278  1
  O  O84  1  0.01788311  0.18476472  0.91039347  1
  O  O85  1  0.16141496  0.97449555  0.91002829  1
  O  O86  1  0.80735954  0.84051343  0.90956235  1
  O  O87  1  0.97377284  0.16194156  0.58997862  1
  O  O88  1  0.18619006  0.01934465  0.59005288  1
  O  O89  1  0.84013210  0.80713312  0.58977659  1
  O  O90  1  0.98223315  0.81489332  0.08967166  1
  O  O91  1  0.83812588  0.02627845  0.08993563  1
  O  O92  1  0.19322693  0.15973585  0.09030683  1
  O  O93  1  0.69886256  0.17709501  0.74279280  1
  O  O94  1  0.48671081  0.31701671  0.74372690  1
  O  O95  1  0.82940633  0.52029068  0.74412920  1
  O  O96  1  0.69176493  0.52138833  0.24472813  1
  O  O97  1  0.83091990  0.31583579  0.24383401  1
  O  O98  1  0.47807025  0.17654417  0.24379085  1
  O  O99  1  0.64091957  0.49456424  0.92282136  1
  O  O100  1  0.85103323  0.35115480  0.92241867  1
  O  O101  1  0.50768738  0.14178587  0.92257022  1
  O  O102  1  0.64087998  0.14364688  0.42288593  1
  O  O103  1  0.50182779  0.35253124  0.42297610  1
  O  O104  1  0.85716685  0.49149762  0.42283590  1
  O  O105  1  0.35986908  0.50434470  0.07693171  1
  O  O106  1  0.14740927  0.64768673  0.07748791  1
  O  O107  1  0.49349850  0.85973610  0.07712370  1
  O  O108  1  0.35161733  0.85224036  0.57747810  1
  O  O109  1  0.49517230  0.64084455  0.57710209  1
  O  O110  1  0.14012936  0.50663672  0.57642476  1
  O  O111  1  0.30054905  0.82565822  0.25710000  1
  O  O112  1  0.51850472  0.68666360  0.25647507  1
  O  O113  1  0.16919007  0.47634234  0.25672323  1
  O  O114  1  0.30788024  0.47729073  0.75596796  1
  O  O115  1  0.16848079  0.68561877  0.75618863  1
  O  O116  1  0.52355891  0.82482440  0.75581801  1
