# generated using pymatgen
data_Sr2MgCdWO6
_symmetry_space_group_name_H-M   'P 1'
_cell_length_a   6.11032342
_cell_length_b   6.84847452
_cell_length_c   5.51400628
_cell_angle_alpha   115.78342694
_cell_angle_beta   107.70169573
_cell_angle_gamma   108.62259351
_symmetry_Int_Tables_number   1
_chemical_formula_structural   Sr2MgCdWO6
_chemical_formula_sum   'Sr2 Mg1 Cd1 W1 O6'
_cell_volume   168.28383865
_cell_formula_units_Z   1
loop_
 _symmetry_equiv_pos_site_id
 _symmetry_equiv_pos_as_xyz
  1  'x, y, z'
loop_
 _atom_site_type_symbol
 _atom_site_label
 _atom_site_symmetry_multiplicity
 _atom_site_fract_x
 _atom_site_fract_y
 _atom_site_fract_z
 _atom_site_occupancy
  Sr  Sr0  1  0.68546900  0.26252300  0.44162300  1
  Sr  Sr1  1  0.31453100  0.73747700  0.55837700  1
  Mg  Mg2  1  0.00000000  0.00000000  0.50000000  1
  Cd  Cd3  1  0.50000000  0.50000000  0.00000000  1
  W  W4  1  0.00000000  0.00000000  0.00000000  1
  O  O5  1  0.68065300  0.86710700  0.06745800  1
  O  O6  1  0.17263300  0.87170700  0.22277900  1
  O  O7  1  0.82736700  0.12829300  0.77722100  1
  O  O8  1  0.31934700  0.13289300  0.93254200  1
  O  O9  1  0.16450300  0.31792000  0.49127500  1
  O  O10  1  0.83549700  0.68208000  0.50872500  1
