# generated using pymatgen
data_MgNb2V2O10
_symmetry_space_group_name_H-M   'P 1'
_cell_length_a   7.17036973
_cell_length_b   7.14062834
_cell_length_c   4.11978923
_cell_angle_alpha   88.64039499
_cell_angle_beta   88.73237803
_cell_angle_gamma   90.86020653
_symmetry_Int_Tables_number   1
_chemical_formula_structural   MgNb2V2O10
_chemical_formula_sum   'Mg1 Nb2 V2 O10'
_cell_volume   210.80063163
_cell_formula_units_Z   1
loop_
 _symmetry_equiv_pos_site_id
 _symmetry_equiv_pos_as_xyz
  1  'x, y, z'
loop_
 _atom_site_type_symbol
 _atom_site_label
 _atom_site_symmetry_multiplicity
 _atom_site_fract_x
 _atom_site_fract_y
 _atom_site_fract_z
 _atom_site_occupancy
  Mg  Mg0  1  0.47722200  0.47756900  0.05474200  1
  Nb  Nb1  1  0.23348100  0.23697500  0.66606100  1
  Nb  Nb2  1  0.76461300  0.76257400  0.24972100  1
  V  V3  1  0.25013300  0.74762600  0.51265000  1
  V  V4  1  0.74445500  0.24814900  0.51916900  1
  O  O5  1  0.03111100  0.74587900  0.29510900  1
  O  O6  1  0.25164300  0.97096900  0.71901200  1
  O  O7  1  0.26917300  0.27271000  0.21934500  1
  O  O8  1  0.26712300  0.53001400  0.74582600  1
  O  O9  1  0.46411900  0.72678100  0.27770400  1
  O  O10  1  0.52735100  0.26633400  0.74740800  1
  O  O11  1  0.72554800  0.46307700  0.27997200  1
  O  O12  1  0.74263700  0.74128700  0.80473000  1
  O  O13  1  0.74521600  0.03041600  0.29751100  1
  O  O14  1  0.96913900  0.25186400  0.72041700  1
