# generated using pymatgen
data_SrCeO3
_symmetry_space_group_name_H-M   'P 1'
_cell_length_a   6.00426811
_cell_length_b   6.17442523
_cell_length_c   8.60143538
_cell_angle_alpha   90.00000000
_cell_angle_beta   90.00000000
_cell_angle_gamma   90.00000000
_symmetry_Int_Tables_number   1
_chemical_formula_structural   SrCeO3
_chemical_formula_sum   'Sr4 Ce4 O12'
_cell_volume   318.88019246
_cell_formula_units_Z   4
loop_
 _symmetry_equiv_pos_site_id
 _symmetry_equiv_pos_as_xyz
  1  'x, y, z'
loop_
 _atom_site_type_symbol
 _atom_site_label
 _atom_site_symmetry_multiplicity
 _atom_site_fract_x
 _atom_site_fract_y
 _atom_site_fract_z
 _atom_site_occupancy
  Sr  Sr0  1  0.98728402  0.45192256  0.25000000  1
  Sr  Sr1  1  0.48728402  0.04807744  0.75000000  1
  Sr  Sr2  1  0.51271598  0.95192256  0.25000000  1
  Sr  Sr3  1  0.01271598  0.54807744  0.75000000  1
  Ce  Ce4  1  0.50000000  0.50000000  0.50000000  1
  Ce  Ce5  1  0.50000000  0.50000000  0.00000000  1
  Ce  Ce6  1  -0.00000000  0.00000000  0.00000000  1
  Ce  Ce7  1  -0.00000000  0.00000000  0.50000000  1
  O  O8  1  0.39223885  0.54573981  0.25000000  1
  O  O9  1  0.29985276  0.79928487  0.55759332  1
  O  O10  1  0.79985276  0.70071513  0.44240668  1
  O  O11  1  0.70014724  0.20071513  0.44240668  1
  O  O12  1  0.20014724  0.29928487  0.94240668  1
  O  O13  1  0.20014724  0.29928487  0.55759332  1
  O  O14  1  0.79985276  0.70071513  0.05759332  1
  O  O15  1  0.89223885  0.95426019  0.75000000  1
  O  O16  1  0.10776115  0.04573981  0.25000000  1
  O  O17  1  0.70014724  0.20071513  0.05759332  1
  O  O18  1  0.60776115  0.45426019  0.75000000  1
  O  O19  1  0.29985276  0.79928487  0.94240668  1
