# generated using pymatgen
data_NaH3O2
_symmetry_space_group_name_H-M   'P 1'
_cell_length_a   6.11647438
_cell_length_b   6.00177072
_cell_length_c   11.25302026
_cell_angle_alpha   90.00000000
_cell_angle_beta   90.00000000
_cell_angle_gamma   90.00000000
_symmetry_Int_Tables_number   1
_chemical_formula_structural   NaH3O2
_chemical_formula_sum   'Na8 H24 O16'
_cell_volume   413.09473726
_cell_formula_units_Z   8
loop_
 _symmetry_equiv_pos_site_id
 _symmetry_equiv_pos_as_xyz
  1  'x, y, z'
loop_
 _atom_site_type_symbol
 _atom_site_label
 _atom_site_symmetry_multiplicity
 _atom_site_fract_x
 _atom_site_fract_y
 _atom_site_fract_z
 _atom_site_occupancy
  Na  Na0  1  0.14189352  0.30040589  0.55592503  1
  Na  Na1  1  0.85810648  0.80040589  0.94407497  1
  Na  Na2  1  0.64189352  0.19959411  0.44407497  1
  Na  Na3  1  0.35810648  0.69959411  0.05592503  1
  Na  Na4  1  0.85810648  0.69959411  0.44407497  1
  Na  Na5  1  0.14189352  0.19959411  0.05592503  1
  Na  Na6  1  0.35810648  0.80040589  0.55592503  1
  Na  Na7  1  0.64189352  0.30040589  0.94407497  1
  H  H8  1  0.43206203  0.12726030  0.71323237  1
  H  H9  1  0.56793797  0.62726030  0.78676763  1
  H  H10  1  0.93206203  0.37273970  0.28676763  1
  H  H11  1  0.06793797  0.87273970  0.21323237  1
  H  H12  1  0.56793797  0.87273970  0.28676763  1
  H  H13  1  0.43206203  0.37273970  0.21323237  1
  H  H14  1  0.06793797  0.62726030  0.71323237  1
  H  H15  1  0.93206203  0.12726030  0.78676763  1
  H  H16  1  0.28342447  0.56834012  0.86556719  1
  H  H17  1  0.71657553  0.06834012  0.63443281  1
  H  H18  1  0.78342447  0.93165988  0.13443281  1
  H  H19  1  0.21657553  0.43165988  0.36556719  1
  H  H20  1  0.71657553  0.43165988  0.13443281  1
  H  H21  1  0.28342447  0.93165988  0.36556719  1
  H  H22  1  0.21657553  0.06834012  0.86556719  1
  H  H23  1  0.78342447  0.56834012  0.63443281  1
  H  H24  1  0.56900867  0.39850505  0.62996450  1
  H  H25  1  0.43099133  0.89850505  0.87003550  1
  H  H26  1  0.06900867  0.10149495  0.37003550  1
  H  H27  1  0.06900867  0.39850505  0.87003550  1
  H  H28  1  0.43099133  0.60149495  0.37003550  1
  H  H29  1  0.56900867  0.10149495  0.12996450  1
  H  H30  1  0.93099133  0.89850505  0.62996450  1
  H  H31  1  0.93099133  0.60149495  0.12996450  1
  O  O32  1  0.87847941  0.44393425  0.11882674  1
  O  O33  1  0.96372840  0.14630084  0.87093229  1
  O  O34  1  0.53627160  0.85369916  0.37093229  1
  O  O35  1  0.46372840  0.35369916  0.12906771  1
  O  O36  1  0.96372840  0.35369916  0.37093229  1
  O  O37  1  0.03627160  0.85369916  0.12906771  1
  O  O38  1  0.46372840  0.14630084  0.62906771  1
  O  O39  1  0.53627160  0.64630084  0.87093229  1
  O  O40  1  0.12152059  0.55606575  0.88117326  1
  O  O41  1  0.87847941  0.05606575  0.61882674  1
  O  O42  1  0.62152059  0.94393425  0.11882674  1
  O  O43  1  0.37847941  0.44393425  0.38117326  1
  O  O44  1  0.62152059  0.55606575  0.61882674  1
  O  O45  1  0.12152059  0.94393425  0.38117326  1
  O  O46  1  0.37847941  0.05606575  0.88117326  1
  O  O47  1  0.03627160  0.64630084  0.62906771  1
