# generated using pymatgen
data_Na4Ta3AlSi4(PO12)2
_symmetry_space_group_name_H-M   'P 1'
_cell_length_a   8.84205548
_cell_length_b   8.84960029
_cell_length_c   22.51227249
_cell_angle_alpha   89.95278541
_cell_angle_beta   89.85011534
_cell_angle_gamma   119.97062840
_symmetry_Int_Tables_number   1
_chemical_formula_structural   Na4Ta3AlSi4(PO12)2
_chemical_formula_sum   'Na12 Ta9 Al3 Si12 P6 O72'
_cell_volume   1525.99292654
_cell_formula_units_Z   3
loop_
 _symmetry_equiv_pos_site_id
 _symmetry_equiv_pos_as_xyz
  1  'x, y, z'
loop_
 _atom_site_type_symbol
 _atom_site_label
 _atom_site_symmetry_multiplicity
 _atom_site_fract_x
 _atom_site_fract_y
 _atom_site_fract_z
 _atom_site_occupancy
  Na  Na0  1  0.63537474  0.62806030  0.74697925  1
  Na  Na1  1  0.99489143  0.36385409  0.74776434  1
  Na  Na2  1  0.30672634  0.97292530  0.08378212  1
  Na  Na3  1  0.02876214  0.33701912  0.08387288  1
  Na  Na4  1  0.96787976  0.29775505  0.41393833  1
  Na  Na5  1  0.70481275  0.67508862  0.41515849  1
  Na  Na6  1  0.00400423  0.99762846  0.49910471  1
  Na  Na7  1  0.99375466  0.99365961  0.99734493  1
  Na  Na8  1  0.65832795  0.32426697  0.83260472  1
  Na  Na9  1  0.66099965  0.32712877  0.32630674  1
  Na  Na10  1  0.33978358  0.66613942  0.16608965  1
  Na  Na11  1  0.33453098  0.67046775  0.66583443  1
  Ta  Ta12  1  0.00358385  0.00814688  0.85514888  1
  Ta  Ta13  1  0.99400959  0.00175049  0.64426142  1
  Ta  Ta14  1  0.99561915  0.99631999  0.14670791  1
  Ta  Ta15  1  0.66721780  0.33417946  0.97838407  1
  Ta  Ta16  1  0.66916883  0.33203402  0.48118350  1
  Ta  Ta17  1  0.33802983  0.66742882  0.02089224  1
  Ta  Ta18  1  0.33454126  0.66915931  0.52281010  1
  Ta  Ta19  1  0.33139103  0.67159533  0.30996647  1
  Ta  Ta20  1  0.33658069  0.67012179  0.81370803  1
  Al  Al21  1  0.99975158  0.99515214  0.35069727  1
  Al  Al22  1  0.65987051  0.32730967  0.68557629  1
  Al  Al23  1  0.66637693  0.33297846  0.18355144  1
  Si  Si24  1  0.29942452  0.28711865  0.74799361  1
  Si  Si25  1  0.70616120  0.00802569  0.74881940  1
  Si  Si26  1  0.95081387  0.33527224  0.58763676  1
  Si  Si27  1  0.66717977  0.61601433  0.58694742  1
  Si  Si28  1  0.94514625  0.61428600  0.08667312  1
  Si  Si29  1  0.66510766  0.05022588  0.08687550  1
  Si  Si30  1  0.38940846  0.33878719  0.08739208  1
  Si  Si31  1  0.62559041  0.66617058  0.91616985  1
  Si  Si32  1  0.04290244  0.37864414  0.91679660  1
  Si  Si33  1  0.33334104  0.95774379  0.91732094  1
  Si  Si34  1  0.62698228  0.95759935  0.41478568  1
  Si  Si35  1  0.04803680  0.67958199  0.41539856  1
  P  P36  1  0.29101273  0.01061003  0.25199004  1
  P  P37  1  0.71445644  0.70511631  0.25238313  1
  P  P38  1  0.99193776  0.28340771  0.25238612  1
  P  P39  1  -0.00043138  0.71201843  0.74908443  1
  P  P40  1  0.38164421  0.04907243  0.58576093  1
  P  P41  1  0.32829507  0.37343334  0.41516544  1
  O  O42  1  0.19477561  0.02619282  0.30555601  1
  O  O43  1  0.82367951  0.79716709  0.30750002  1
  O  O44  1  0.97504490  0.17340736  0.30753227  1
  O  O45  1  0.19930526  0.16716982  0.80629393  1
  O  O46  1  0.96814017  0.79733214  0.80417888  1
  O  O47  1  0.83386720  0.03343161  0.80542627  1
  O  O48  1  0.79945817  0.96220749  0.69304981  1
  O  O49  1  0.16245014  0.19502112  0.69283221  1
  O  O50  1  0.03194701  0.82880014  0.69418970  1
  O  O51  1  0.80097499  0.82812654  0.19695807  1
  O  O52  1  0.02716642  0.20118591  0.19557396  1
  O  O53  1  0.17530532  0.97208241  0.19476777  1
  O  O54  1  0.86096657  0.36350507  0.64477447  1
  O  O55  1  0.49703610  0.13182229  0.63963674  1
  O  O56  1  0.63613955  0.49771198  0.64443629  1
  O  O57  1  0.86358639  0.48946718  0.14284777  1
  O  O58  1  0.62777671  0.13573556  0.14315268  1
  O  O59  1  0.50445649  0.36494857  0.14431503  1
  O  O60  1  0.46319246  0.29255751  0.02720787  1
  O  O61  1  0.83226153  0.53376120  0.02600684  1
  O  O62  1  0.70702209  0.16985970  0.02685984  1
  O  O63  1  0.46535985  0.16039627  0.52831656  1
  O  O64  1  0.69247211  0.52973086  0.52457552  1
  O  O65  1  0.83509780  0.30199499  0.52553726  1
  O  O66  1  0.53167106  0.69856108  0.97363094  1
  O  O67  1  0.16296864  0.46587208  0.97581129  1
  O  O68  1  0.30190568  0.83722275  0.97646927  1
  O  O69  1  0.53363792  0.82913327  0.47216278  1
  O  O70  1  0.29819016  0.46077499  0.47075606  1
  O  O71  1  0.16736172  0.69628715  0.47313715  1
  O  O72  1  0.13553503  0.62827811  0.35965557  1
  O  O73  1  0.49634462  0.85809946  0.35862157  1
  O  O74  1  0.36849923  0.49839332  0.36116878  1
  O  O75  1  0.13262594  0.49611186  0.85699399  1
  O  O76  1  0.36318844  0.86266520  0.85931927  1
  O  O77  1  0.50345563  0.63579695  0.85714484  1
  O  O78  1  0.01696252  0.84179359  0.40610226  1
  O  O79  1  0.82031380  0.98187310  0.40609804  1
  O  O80  1  0.16529909  0.19608275  0.40717736  1
  O  O81  1  0.02600844  0.18742786  0.91016338  1
  O  O82  1  0.15873695  0.97171612  0.90908224  1
  O  O83  1  0.81482165  0.83837908  0.90817740  1
  O  O84  1  0.97650943  0.16329903  0.58993234  1
  O  O85  1  0.19728997  0.02508552  0.59050370  1
  O  O86  1  0.84141648  0.81097575  0.59000736  1
  O  O87  1  0.98207753  0.81669151  0.09309690  1
  O  O88  1  0.84061795  0.02968286  0.09325364  1
  O  O89  1  0.18735332  0.16403644  0.09395177  1
  O  O90  1  0.69755556  0.18328503  0.74059041  1
  O  O91  1  0.49393000  0.31919127  0.74149348  1
  O  O92  1  0.83762312  0.52978768  0.74351142  1
  O  O93  1  0.69330165  0.52510859  0.24355262  1
  O  O94  1  0.83367068  0.30671187  0.24405115  1
  O  O95  1  0.47422908  0.16623662  0.24406911  1
  O  O96  1  0.63973864  0.49244070  0.92266218  1
  O  O97  1  0.85195002  0.35829819  0.92245080  1
  O  O98  1  0.50612490  0.14676074  0.92318940  1
  O  O99  1  0.64454054  0.14992696  0.42272392  1
  O  O100  1  0.49714677  0.36248180  0.42341221  1
  O  O101  1  0.85325700  0.49848622  0.42352623  1
  O  O102  1  0.34862361  0.49921442  0.07804348  1
  O  O103  1  0.14459039  0.64402052  0.07744993  1
  O  O104  1  0.49362443  0.85611016  0.07764114  1
  O  O105  1  0.36158747  0.86508075  0.57591419  1
  O  O106  1  0.49721973  0.64261984  0.57522549  1
  O  O107  1  0.14580259  0.50413286  0.57530920  1
  O  O108  1  0.30436812  0.83685371  0.25791333  1
  O  O109  1  0.52931337  0.69129799  0.25798074  1
  O  O110  1  0.16449523  0.46816623  0.25805384  1
  O  O111  1  0.30624666  0.47786862  0.75557718  1
  O  O112  1  0.16248908  0.68912802  0.75546914  1
  O  O113  1  0.51999898  0.82503785  0.75499798  1
