# generated using pymatgen
data_Na4Sn3S8
_symmetry_space_group_name_H-M   'P 1'
_cell_length_a   6.74425233
_cell_length_b   6.74425233
_cell_length_c   17.68499866
_cell_angle_alpha   85.95004313
_cell_angle_beta   85.95004313
_cell_angle_gamma   65.85656186
_symmetry_Int_Tables_number   1
_chemical_formula_structural   Na4Sn3S8
_chemical_formula_sum   'Na8 Sn6 S16'
_cell_volume   731.43241293
_cell_formula_units_Z   2
loop_
 _symmetry_equiv_pos_site_id
 _symmetry_equiv_pos_as_xyz
  1  'x, y, z'
loop_
 _atom_site_type_symbol
 _atom_site_label
 _atom_site_symmetry_multiplicity
 _atom_site_fract_x
 _atom_site_fract_y
 _atom_site_fract_z
 _atom_site_occupancy
  Na  Na0  1  0.09943814  0.43008317  0.37461327  1
  Na  Na1  1  0.90056186  0.56991683  0.62538673  1
  Na  Na2  1  0.43008317  0.09943814  0.87461327  1
  Na  Na3  1  0.56991683  0.90056186  0.12538673  1
  Na  Na4  1  0.48572187  0.23436936  0.66367043  1
  Na  Na5  1  0.76563064  0.51427813  0.83632957  1
  Na  Na6  1  0.23436936  0.48572187  0.16367043  1
  Na  Na7  1  0.51427813  0.76563064  0.33632957  1
  Sn  Sn8  1  0.26907148  0.93333745  0.53224855  1
  Sn  Sn9  1  0.06666255  0.73092852  0.96775145  1
  Sn  Sn10  1  0.73092852  0.06666255  0.46775145  1
  Sn  Sn11  1  0.93333745  0.26907148  0.03224855  1
  Sn  Sn12  1  0.08412122  0.91587878  0.75000000  1
  Sn  Sn13  1  0.91587878  0.08412122  0.25000000  1
  S  S14  1  0.13140469  0.82889093  0.42648566  1
  S  S15  1  0.17110907  0.86859531  0.07351434  1
  S  S16  1  0.33849934  0.69929382  0.64952053  1
  S  S17  1  0.69929382  0.33849934  0.14952053  1
  S  S18  1  0.30070618  0.66150066  0.85047947  1
  S  S19  1  0.66150066  0.30070618  0.35047947  1
  S  S20  1  0.26707216  0.32714505  0.01568554  1
  S  S21  1  0.67285495  0.73292784  0.48431446  1
  S  S22  1  0.73292784  0.67285495  0.98431446  1
  S  S23  1  0.32714505  0.26707216  0.51568554  1
  S  S24  1  0.74695597  0.88638082  0.75234506  1
  S  S25  1  0.11361918  0.25304403  0.74765494  1
  S  S26  1  0.25304403  0.11361918  0.24765494  1
  S  S27  1  0.88638082  0.74695597  0.25234506  1
  S  S28  1  0.86859531  0.17110907  0.57351434  1
  S  S29  1  0.82889093  0.13140469  0.92648566  1
