# generated using pymatgen
data_YIn(SO4)3
_symmetry_space_group_name_H-M   'P 1'
_cell_length_a   9.08147384
_cell_length_b   9.08147353
_cell_length_c   23.52686923
_cell_angle_alpha   90.00000000
_cell_angle_beta   90.00000000
_cell_angle_gamma   120.00000113
_symmetry_Int_Tables_number   1
_chemical_formula_structural   YIn(SO4)3
_chemical_formula_sum   'Y6 In6 S18 O72'
_cell_volume   1680.37968666
_cell_formula_units_Z   6
loop_
 _symmetry_equiv_pos_site_id
 _symmetry_equiv_pos_as_xyz
  1  'x, y, z'
loop_
 _atom_site_type_symbol
 _atom_site_label
 _atom_site_symmetry_multiplicity
 _atom_site_fract_x
 _atom_site_fract_y
 _atom_site_fract_z
 _atom_site_occupancy
  Y  Y0  1  -0.00000000  -0.00000000  0.35555111  1
  Y  Y1  1  -0.00000000  -0.00000000  0.64599117  1
  Y  Y2  1  -0.00000000  -0.00000000  0.14470939  1
  Y  Y3  1  0.66666700  0.33333300  0.68862361  1
  Y  Y4  1  0.66666700  0.33333300  0.18734183  1
  Y  Y5  1  0.66666700  0.33333300  0.47778189  1
  In  In6  1  -0.00000000  -0.00000000  0.85409118  1
  In  In7  1  0.66666700  0.33333300  0.97924182  1
  In  In8  1  0.33333300  0.66666700  0.01781777  1
  In  In9  1  0.33333300  0.66666700  0.51976464  1
  In  In10  1  0.33333300  0.66666700  0.31356936  1
  In  In11  1  0.33333300  0.66666700  0.81551623  1
  S  S12  1  0.29135130  0.99398389  0.25103258  1
  S  S13  1  0.70263259  0.70864870  0.25103258  1
  S  S14  1  0.00601611  0.29736741  0.25103258  1
  S  S15  1  0.28820369  0.29405589  0.75269811  1
  S  S16  1  0.00585219  0.71179631  0.75269811  1
  S  S17  1  0.70594411  0.99414781  0.75269811  1
  S  S18  1  0.96403441  0.33934911  0.58230042  1
  S  S19  1  0.37531570  0.03596559  0.58230042  1
  S  S20  1  0.66065089  0.62468430  0.58230042  1
  S  S21  1  0.96072289  0.62153669  0.08063489  1
  S  S22  1  0.66081481  0.03927711  0.08063489  1
  S  S23  1  0.37846331  0.33918519  0.08063489  1
  S  S24  1  0.62493838  0.66666700  0.91666700  1
  S  S25  1  0.04172762  0.37506162  0.91666700  1
  S  S26  1  0.33333300  0.95827238  0.91666700  1
  S  S27  1  0.61718732  0.95052132  0.41666700  1
  S  S28  1  0.33333300  0.38281268  0.41666700  1
  S  S29  1  0.04947868  0.66666700  0.41666700  1
  O  O30  1  0.21210336  0.02251423  0.30145010  1
  O  O31  1  0.81041087  0.78789664  0.30145010  1
  O  O32  1  0.97748577  0.18958913  0.30145010  1
  O  O33  1  0.21056501  0.18505761  0.80340129  1
  O  O34  1  0.97449259  0.78943499  0.80340129  1
  O  O35  1  0.81494239  0.02550741  0.80340129  1
  O  O36  1  0.78430298  0.96730091  0.70137945  1
  O  O37  1  0.18299793  0.21569702  0.70137945  1
  O  O38  1  0.03269909  0.81700207  0.70137945  1
  O  O39  1  0.78295703  0.81488840  0.19998307  1
  O  O40  1  0.03193137  0.21704297  0.19998307  1
  O  O41  1  0.18511160  0.96806863  0.19998307  1
  O  O42  1  0.88370997  0.36526437  0.63334993  1
  O  O43  1  0.48155540  0.11629003  0.63334993  1
  O  O44  1  0.63473563  0.51844460  0.63334993  1
  O  O45  1  0.88236402  0.51633093  0.13195355  1
  O  O46  1  0.63396791  0.11763598  0.13195355  1
  O  O47  1  0.48366907  0.36603209  0.13195355  1
  O  O48  1  0.45610199  0.30782559  0.02993171  1
  O  O49  1  0.85172461  0.54389801  0.02993171  1
  O  O50  1  0.69217441  0.14827539  0.02993171  1
  O  O51  1  0.45456364  0.14374387  0.53188290  1
  O  O52  1  0.68918123  0.54543636  0.53188290  1
  O  O53  1  0.85625613  0.31081877  0.53188290  1
  O  O54  1  0.54812684  0.69775957  0.96784517  1
  O  O55  1  0.14963173  0.45187316  0.96784517  1
  O  O56  1  0.30224043  0.85036827  0.96784517  1
  O  O57  1  0.54108443  0.84569972  0.46815566  1
  O  O58  1  0.30461429  0.45891557  0.46815566  1
  O  O59  1  0.15430028  0.69538571  0.46815566  1
  O  O60  1  0.12558157  0.63794829  0.36517834  1
  O  O61  1  0.51236572  0.87441843  0.36517834  1
  O  O62  1  0.36205171  0.48763428  0.36517834  1
  O  O63  1  0.11853916  0.48296573  0.86548883  1
  O  O64  1  0.36442557  0.88146084  0.86548883  1
  O  O65  1  0.51703427  0.63557443  0.86548883  1
  O  O66  1  0.03083571  0.81766888  0.40948159  1
  O  O67  1  0.78683317  0.96916429  0.40948159  1
  O  O68  1  0.18233112  0.21316683  0.40948159  1
  O  O69  1  0.02396964  0.20475932  0.90849796  1
  O  O70  1  0.18078968  0.97603036  0.90849796  1
  O  O71  1  0.79524068  0.81921032  0.90849796  1
  O  O72  1  0.98165295  0.18785037  0.59039866  1
  O  O73  1  0.20619742  0.01834705  0.59039866  1
  O  O74  1  0.81214963  0.79380258  0.59039866  1
  O  O75  1  0.97856946  0.79097433  0.08911395  1
  O  O76  1  0.81240487  0.02143054  0.08911395  1
  O  O77  1  0.20902567  0.18759513  0.08911395  1
  O  O78  1  0.68809754  0.14573787  0.74421905  1
  O  O79  1  0.45764133  0.31190246  0.74421905  1
  O  O80  1  0.85426213  0.54235867  0.74421905  1
  O  O81  1  0.68501405  0.53953042  0.24293434  1
  O  O82  1  0.85451737  0.31498595  0.24293434  1
  O  O83  1  0.46046958  0.14548263  0.24293434  1
  O  O84  1  0.64269736  0.51412268  0.92483504  1
  O  O85  1  0.87142632  0.35730264  0.92483504  1
  O  O86  1  0.48587732  0.12857368  0.92483504  1
  O  O87  1  0.63583129  0.12016617  0.42385141  1
  O  O88  1  0.48433588  0.36416871  0.42385141  1
  O  O89  1  0.87983383  0.51566412  0.42385141  1
  O  O90  1  0.36060789  0.49153778  0.07309968  1
  O  O91  1  0.13092889  0.63939211  0.07309968  1
  O  O92  1  0.50846222  0.86907111  0.07309968  1
  O  O93  1  0.35774824  0.86624893  0.57487493  1
  O  O94  1  0.50849969  0.64225176  0.57487493  1
  O  O95  1  0.13375107  0.49150031  0.57487493  1
  O  O96  1  0.30891776  0.84183369  0.25845907  1
  O  O97  1  0.53291493  0.69108224  0.25845907  1
  O  O98  1  0.15816631  0.46708507  0.25845907  1
  O  O99  1  0.30605811  0.46426289  0.76023432  1
  O  O100  1  0.15820378  0.69394189  0.76023432  1
  O  O101  1  0.53573711  0.84179622  0.76023432  1
