# generated using pymatgen
data_Sr(InTe2)2
_symmetry_space_group_name_H-M   'P 1'
_cell_length_a   6.96087356
_cell_length_b   6.96087454
_cell_length_c   12.00468321
_cell_angle_alpha   90.00000000
_cell_angle_beta   90.00000000
_cell_angle_gamma   117.47835748
_symmetry_Int_Tables_number   1
_chemical_formula_structural   Sr(InTe2)2
_chemical_formula_sum   'Sr2 In4 Te8'
_cell_volume   516.05089748
_cell_formula_units_Z   2
loop_
 _symmetry_equiv_pos_site_id
 _symmetry_equiv_pos_as_xyz
  1  'x, y, z'
loop_
 _atom_site_type_symbol
 _atom_site_label
 _atom_site_symmetry_multiplicity
 _atom_site_fract_x
 _atom_site_fract_y
 _atom_site_fract_z
 _atom_site_occupancy
  Sr  Sr0  1  0.50000000  0.50000000  0.75000000  1
  Sr  Sr1  1  0.50000000  0.50000000  0.25000000  1
  In  In2  1  0.23108880  0.76393254  -0.00000000  1
  In  In3  1  0.76891120  0.23606746  -0.00000000  1
  In  In4  1  0.76393254  0.23108880  0.50000000  1
  In  In5  1  0.23606746  0.76891120  0.50000000  1
  Te  Te6  1  0.65524314  0.79494985  -0.00000000  1
  Te  Te7  1  0.34475686  0.20505015  -0.00000000  1
  Te  Te8  1  0.79494985  0.65524314  0.50000000  1
  Te  Te9  1  0.20505015  0.34475686  0.50000000  1
  Te  Te10  1  0.50000000  -0.00000000  0.68094687  1
  Te  Te11  1  0.00000000  0.50000000  0.81905313  1
  Te  Te12  1  0.50000000  -0.00000000  0.31905313  1
  Te  Te13  1  0.00000000  0.50000000  0.18094687  1
