# generated using pymatgen
data_Na2Mg(NiO2)2
_symmetry_space_group_name_H-M   'P 1'
_cell_length_a   3.34718000
_cell_length_b   3.34674534
_cell_length_c   10.58770800
_cell_angle_alpha   90.00000000
_cell_angle_beta   90.00000000
_cell_angle_gamma   120.00429632
_symmetry_Int_Tables_number   1
_chemical_formula_structural   Na2Mg(NiO2)2
_chemical_formula_sum   'Na2 Mg1 Ni2 O4'
_cell_volume   102.71065981
_cell_formula_units_Z   1
loop_
 _symmetry_equiv_pos_site_id
 _symmetry_equiv_pos_as_xyz
  1  'x, y, z'
loop_
 _atom_site_type_symbol
 _atom_site_label
 _atom_site_symmetry_multiplicity
 _atom_site_fract_x
 _atom_site_fract_y
 _atom_site_fract_z
 _atom_site_occupancy
  Na  Na0  1  0.66667700  0.33335300  0.25000000  1
  Na  Na1  1  0.33337500  0.66675000  0.75000000  1
  Mg  Mg2  1  0.00005800  0.00011600  0.25000000  1
  Ni  Ni3  1  0.99999100  0.99998200  0.52360700  1
  Ni  Ni4  1  0.99999100  0.99998200  0.97639300  1
  O  O5  1  0.33331500  0.66662700  0.36501400  1
  O  O6  1  0.66664000  0.33328100  0.59340000  1
  O  O7  1  0.66664000  0.33328100  0.90660000  1
  O  O8  1  0.33331500  0.66662700  0.13498600  1
