# generated using pymatgen
data_Na8Mg2Ga2Si3(SO8)3
_symmetry_space_group_name_H-M   'P 1'
_cell_length_a   9.15105897
_cell_length_b   8.99760824
_cell_length_c   22.14825866
_cell_angle_alpha   92.79169481
_cell_angle_beta   89.69442874
_cell_angle_gamma   120.46091705
_symmetry_Int_Tables_number   1
_chemical_formula_structural   Na8Mg2Ga2Si3(SO8)3
_chemical_formula_sum   'Na24 Mg6 Ga6 Si9 S9 O72'
_cell_volume   1569.66598213
_cell_formula_units_Z   3
loop_
 _symmetry_equiv_pos_site_id
 _symmetry_equiv_pos_as_xyz
  1  'x, y, z'
loop_
 _atom_site_type_symbol
 _atom_site_label
 _atom_site_symmetry_multiplicity
 _atom_site_fract_x
 _atom_site_fract_y
 _atom_site_fract_z
 _atom_site_occupancy
  Na  Na0  1  0.63731676  0.01453915  0.25880403  1
  Na  Na1  1  0.35443252  0.35082739  0.25440445  1
  Na  Na2  1  0.00337225  0.62989876  0.24465440  1
  Na  Na3  1  0.62867803  0.63034626  0.73731800  1
  Na  Na4  1  0.99358417  0.35317981  0.74048353  1
  Na  Na5  1  0.37886170  0.01787024  0.75036884  1
  Na  Na6  1  0.30289001  0.34532777  0.59076184  1
  Na  Na7  1  0.02168541  0.68544192  0.58666947  1
  Na  Na8  1  0.66910503  0.96126976  0.58052137  1
  Na  Na9  1  0.28702760  0.95274473  0.08328123  1
  Na  Na10  1  0.67531716  0.69763253  0.08208452  1
  Na  Na11  1  0.03002838  0.34108335  0.09193522  1
  Na  Na12  1  0.97948693  0.67842209  0.91737950  1
  Na  Na13  1  0.69051834  0.02855114  0.90383235  1
  Na  Na14  1  0.32906697  0.28698129  0.90676565  1
  Na  Na15  1  0.95490508  0.28553491  0.41794200  1
  Na  Na16  1  0.33955902  0.03415718  0.41117972  1
  Na  Na17  1  0.69484563  0.67465172  0.42745821  1
  Na  Na18  1  0.98103049  0.99598102  0.50280724  1
  Na  Na19  1  0.00949316  0.99205822  0.99836523  1
  Na  Na20  1  0.65193624  0.32178272  0.82532697  1
  Na  Na21  1  0.66502324  0.31614165  0.33325563  1
  Na  Na22  1  0.31338131  0.66269346  0.16916079  1
  Na  Na23  1  0.34021915  0.65635334  0.66283772  1
  Mg  Mg24  1  0.00063636  0.01112403  0.34950502  1
  Mg  Mg25  1  0.01046759  0.01310048  0.84527022  1
  Mg  Mg26  1  0.67043640  0.33714864  0.68418539  1
  Mg  Mg27  1  0.67698686  0.33187066  0.18801990  1
  Mg  Mg28  1  0.32104691  0.67464850  0.01672994  1
  Mg  Mg29  1  0.34703307  0.66720495  0.52130496  1
  Ga  Ga30  1  0.97630822  0.01880466  0.64851373  1
  Ga  Ga31  1  0.01319899  0.98890233  0.15983596  1
  Ga  Ga32  1  0.66453861  0.33166491  0.98441006  1
  Ga  Ga33  1  0.67766368  0.31970554  0.49326863  1
  Ga  Ga34  1  0.32422207  0.68396280  0.31376574  1
  Ga  Ga35  1  0.35250067  0.68774301  0.80831905  1
  Si  Si36  1  0.29882619  0.00174048  0.25206024  1
  Si  Si37  1  0.00380657  0.29397872  0.25158164  1
  Si  Si38  1  0.29398341  0.29598797  0.75259557  1
  Si  Si39  1  0.70495670  0.00170506  0.75287005  1
  Si  Si40  1  0.96780051  0.33832217  0.58472739  1
  Si  Si41  1  0.67222189  0.62583682  0.58502046  1
  Si  Si42  1  0.95600570  0.62743839  0.08537797  1
  Si  Si43  1  0.33421202  0.96370587  0.92017175  1
  Si  Si44  1  0.62581320  0.96149224  0.41901515  1
  S  S45  1  0.70724903  0.70769091  0.24929938  1
  S  S46  1  0.00221252  0.70776202  0.75178086  1
  S  S47  1  0.37243740  0.04030664  0.58243469  1
  S  S48  1  0.66594528  0.03815423  0.08177289  1
  S  S49  1  0.37554328  0.33645175  0.08248326  1
  S  S50  1  0.62394106  0.66321071  0.91889612  1
  S  S51  1  0.03809181  0.37156286  0.91851970  1
  S  S52  1  0.33273310  0.37487462  0.41507826  1
  S  S53  1  0.03987962  0.66741215  0.41604853  1
  O  O54  1  0.20639739  0.02628847  0.31045629  1
  O  O55  1  0.81437721  0.78878815  0.30325753  1
  O  O56  1  0.96556767  0.17556845  0.30803526  1
  O  O57  1  0.21905661  0.18406011  0.81178739  1
  O  O58  1  0.98099901  0.78979403  0.80825702  1
  O  O59  1  0.81350673  0.02253905  0.81368443  1
  O  O60  1  0.78337472  0.95544238  0.69245796  1
  O  O61  1  0.16780668  0.20220731  0.69173594  1
  O  O62  1  0.03136059  0.81194735  0.69847207  1
  O  O63  1  0.78408955  0.81428626  0.19438294  1
  O  O64  1  0.03635035  0.20081752  0.18777047  1
  O  O65  1  0.17946889  0.95479991  0.18919695  1
  O  O66  1  0.87908213  0.36673278  0.64356535  1
  O  O67  1  0.47948113  0.12139398  0.63687343  1
  O  O68  1  0.63684594  0.50702678  0.64157832  1
  O  O69  1  0.86463843  0.50947486  0.14136892  1
  O  O70  1  0.63688128  0.11856007  0.13587107  1
  O  O71  1  0.47709980  0.35986066  0.13688793  1
  O  O72  1  0.45390781  0.30585484  0.02665649  1
  O  O73  1  0.83067233  0.53859086  0.02236696  1
  O  O74  1  0.69100617  0.14264861  0.02733450  1
  O  O75  1  0.45030244  0.14680366  0.52769582  1
  O  O76  1  0.70041399  0.53063917  0.52099690  1
  O  O77  1  0.84701980  0.28989892  0.52243601  1
  O  O78  1  0.54320100  0.68386875  0.97433868  1
  O  O79  1  0.14499116  0.45394114  0.97375819  1
  O  O80  1  0.30784287  0.85593227  0.97948388  1
  O  O81  1  0.53576932  0.84491454  0.47538545  1
  O  O82  1  0.31031571  0.45923855  0.46937055  1
  O  O83  1  0.14382777  0.69080671  0.46950697  1
  O  O84  1  0.11606030  0.63606800  0.35918324  1
  O  O85  1  0.50359062  0.87335394  0.35564419  1
  O  O86  1  0.35512957  0.47608872  0.36018439  1
  O  O87  1  0.11505811  0.47486772  0.86517724  1
  O  O88  1  0.37170989  0.87104840  0.85981227  1
  O  O89  1  0.51810636  0.63569394  0.86408639  1
  O  O90  1  0.02430673  0.82393570  0.41147356  1
  O  O91  1  0.81427205  0.98143149  0.41210937  1
  O  O92  1  0.17898257  0.19814383  0.41121089  1
  O  O93  1  0.01372411  0.19472857  0.91399279  1
  O  O94  1  0.16745527  0.98562633  0.91416768  1
  O  O95  1  0.79707605  0.81860657  0.91606564  1
  O  O96  1  0.98576686  0.16294841  0.58597028  1
  O  O97  1  0.20196523  0.02307113  0.58657438  1
  O  O98  1  0.85573713  0.81721345  0.58918615  1
  O  O99  1  0.97121470  0.82503844  0.08991405  1
  O  O100  1  0.82197804  0.02461496  0.08584971  1
  O  O101  1  0.20085695  0.18084478  0.08322073  1
  O  O102  1  0.68612325  0.17093991  0.74682804  1
  O  O103  1  0.48515697  0.32742829  0.74547601  1
  O  O104  1  0.84759689  0.53416165  0.74670389  1
  O  O105  1  0.68380014  0.53286945  0.24098877  1
  O  O106  1  0.84416726  0.32563323  0.24475276  1
  O  O107  1  0.48504549  0.17363229  0.24395862  1
  O  O108  1  0.64075867  0.50459275  0.92002772  1
  O  O109  1  0.86534686  0.35551488  0.92414011  1
  O  O110  1  0.51742186  0.16222650  0.92540539  1
  O  O111  1  0.63828532  0.15797366  0.42323693  1
  O  O112  1  0.48709465  0.35732670  0.41849037  1
  O  O113  1  0.86610569  0.51065938  0.41658584  1
  O  O114  1  0.36219779  0.49451490  0.07726683  1
  O  O115  1  0.14478091  0.64752326  0.07985732  1
  O  O116  1  0.51632683  0.85948913  0.07524546  1
  O  O117  1  0.35041803  0.86590879  0.57437902  1
  O  O118  1  0.51127506  0.65626573  0.57897651  1
  O  O119  1  0.15414919  0.50941073  0.57660912  1
  O  O120  1  0.31623192  0.82589779  0.25279834  1
  O  O121  1  0.53561229  0.69002719  0.25300105  1
  O  O122  1  0.18688838  0.48626340  0.25723356  1
  O  O123  1  0.29882162  0.48672937  0.75992076  1
  O  O124  1  0.15502777  0.68614874  0.75682592  1
  O  O125  1  0.51025884  0.82582722  0.75203859  1
