# generated using pymatgen
data_Na7MgGa3Si3(SO8)3
_symmetry_space_group_name_H-M   'P 1'
_cell_length_a   8.96137513
_cell_length_b   8.93607276
_cell_length_c   21.99184968
_cell_angle_alpha   90.70767220
_cell_angle_beta   90.11975664
_cell_angle_gamma   119.94256334
_symmetry_Int_Tables_number   1
_chemical_formula_structural   Na7MgGa3Si3(SO8)3
_chemical_formula_sum   'Na21 Mg3 Ga9 Si9 S9 O72'
_cell_volume   1525.85045739
_cell_formula_units_Z   3
loop_
 _symmetry_equiv_pos_site_id
 _symmetry_equiv_pos_as_xyz
  1  'x, y, z'
loop_
 _atom_site_type_symbol
 _atom_site_label
 _atom_site_symmetry_multiplicity
 _atom_site_fract_x
 _atom_site_fract_y
 _atom_site_fract_z
 _atom_site_occupancy
  Na  Na0  1  0.63489653  0.99387183  0.24406225  1
  Na  Na1  1  0.38118497  0.37681100  0.24185141  1
  Na  Na2  1  0.98673727  0.63497821  0.25362199  1
  Na  Na3  1  0.62402697  0.62551669  0.74224209  1
  Na  Na4  1  0.99711129  0.35474240  0.75071794  1
  Na  Na5  1  0.38206850  0.01416005  0.75496658  1
  Na  Na6  1  0.02240109  0.69876582  0.57850773  1
  Na  Na7  1  0.66577471  0.95722125  0.58395988  1
  Na  Na8  1  0.31205361  0.97792246  0.08179466  1
  Na  Na9  1  0.65771363  0.69461291  0.08870299  1
  Na  Na10  1  0.69536052  0.03547531  0.91670580  1
  Na  Na11  1  0.33297263  0.29040297  0.91774954  1
  Na  Na12  1  0.96113735  0.29768619  0.41404455  1
  Na  Na13  1  0.33382736  0.02430349  0.41671137  1
  Na  Na14  1  0.72059706  0.68373803  0.41568219  1
  Na  Na15  1  0.99242710  0.98983129  0.49873355  1
  Na  Na16  1  0.00712255  0.00695901  0.00236808  1
  Na  Na17  1  0.65889783  0.32462657  0.83248718  1
  Na  Na18  1  0.67523715  0.34499998  0.33235636  1
  Na  Na19  1  0.34154899  0.66005014  0.16169784  1
  Na  Na20  1  0.34785249  0.65295787  0.66632745  1
  Mg  Mg21  1  0.98893740  0.98363650  0.35434063  1
  Mg  Mg22  1  0.65247934  0.33290153  0.68635482  1
  Mg  Mg23  1  0.65668270  0.33807253  0.17816485  1
  Ga  Ga24  1  0.01682176  0.00885373  0.84819867  1
  Ga  Ga25  1  0.98376800  0.99902715  0.65334254  1
  Ga  Ga26  1  0.98036340  0.00988036  0.14409674  1
  Ga  Ga27  1  0.62995125  0.29070626  0.98970181  1
  Ga  Ga28  1  0.69087149  0.35375698  0.48102557  1
  Ga  Ga29  1  0.33338456  0.67506147  0.02042150  1
  Ga  Ga30  1  0.35400291  0.67665176  0.51410918  1
  Ga  Ga31  1  0.35079777  0.68661069  0.32036530  1
  Ga  Ga32  1  0.35224999  0.67665440  0.81442458  1
  Si  Si33  1  0.70365834  0.70275849  0.25068553  1
  Si  Si34  1  0.28876754  0.29299420  0.75077762  1
  Si  Si35  1  0.70999908  0.99943053  0.75298443  1
  Si  Si36  1  0.66306214  0.62709884  0.58392541  1
  Si  Si37  1  0.66796572  0.03960093  0.08394023  1
  Si  Si38  1  0.35794448  0.33396872  0.08356158  1
  Si  Si39  1  0.32149679  0.94882608  0.91636352  1
  Si  Si40  1  0.63220533  0.97313628  0.41931130  1
  Si  Si41  1  0.05355151  0.66671569  0.41782298  1
  S  S42  1  0.28942043  0.99896802  0.25081778  1
  S  S43  1  0.00435497  0.29518868  0.25149635  1
  S  S44  1  0.00180058  0.70904913  0.74942852  1
  S  S45  1  0.96327670  0.33485469  0.58408634  1
  S  S46  1  0.37203049  0.04216772  0.58324435  1
  S  S47  1  0.95644820  0.61890298  0.08259136  1
  S  S48  1  0.63157292  0.66635365  0.91675847  1
  S  S49  1  0.04196614  0.38217826  0.91619213  1
  S  S50  1  0.33318097  0.37531227  0.41577346  1
  O  O51  1  0.21205974  0.02858227  0.30578740  1
  O  O52  1  0.81917711  0.78503150  0.31106965  1
  O  O53  1  0.98190787  0.19250115  0.30651774  1
  O  O54  1  0.21317890  0.17397668  0.81138689  1
  O  O55  1  0.96753354  0.78889556  0.80322287  1
  O  O56  1  0.83206286  0.02558354  0.81293146  1
  O  O57  1  0.78123354  0.95172786  0.69087149  1
  O  O58  1  0.15709175  0.19887655  0.69236883  1
  O  O59  1  0.03495680  0.81687602  0.69408875  1
  O  O60  1  0.79225729  0.83087271  0.19090391  1
  O  O61  1  0.03587398  0.21373688  0.19712726  1
  O  O62  1  0.18355160  0.97411673  0.19581033  1
  O  O63  1  0.88045932  0.35912452  0.63791449  1
  O  O64  1  0.48154798  0.12089737  0.63713695  1
  O  O65  1  0.64346776  0.52187321  0.64419421  1
  O  O66  1  0.88336263  0.52224282  0.13904314  1
  O  O67  1  0.63271831  0.12147676  0.14424115  1
  O  O68  1  0.48265459  0.38395027  0.14248096  1
  O  O69  1  0.44237061  0.29372858  0.02211100  1
  O  O70  1  0.84156558  0.53439375  0.02914184  1
  O  O71  1  0.70633624  0.15469007  0.02182483  1
  O  O72  1  0.45170994  0.14247698  0.52755848  1
  O  O73  1  0.70180473  0.54143526  0.52222559  1
  O  O74  1  0.85221660  0.30103840  0.52785213  1
  O  O75  1  0.54934565  0.69620367  0.97073467  1
  O  O76  1  0.15735582  0.46478531  0.96932037  1
  O  O77  1  0.30075950  0.83756356  0.97691750  1
  O  O78  1  0.55015927  0.84262281  0.47630945  1
  O  O79  1  0.29907891  0.45269789  0.47025246  1
  O  O80  1  0.16846162  0.68710509  0.47911594  1
  O  O81  1  0.13593367  0.62382349  0.35691803  1
  O  O82  1  0.50833441  0.89460666  0.35821561  1
  O  O83  1  0.36695054  0.48354349  0.36090854  1
  O  O84  1  0.12143149  0.47854652  0.85959497  1
  O  O85  1  0.36410968  0.86589564  0.85618845  1
  O  O86  1  0.51892155  0.62909961  0.86097911  1
  O  O87  1  0.04029259  0.84175409  0.41578875  1
  O  O88  1  0.82536412  0.00237548  0.41399863  1
  O  O89  1  0.17958915  0.20218046  0.40836722  1
  O  O90  1  0.02078939  0.20285202  0.91370847  1
  O  O91  1  0.15450488  0.98012903  0.91083517  1
  O  O92  1  0.79951805  0.82623995  0.91029953  1
  O  O93  1  0.97745031  0.17531345  0.58673144  1
  O  O94  1  0.19563766  0.01933018  0.58844103  1
  O  O95  1  0.84554381  0.82590801  0.58734328  1
  O  O96  1  0.97868893  0.79719116  0.08718990  1
  O  O97  1  0.83119304  0.00390856  0.08383218  1
  O  O98  1  0.17788782  0.14643955  0.09266127  1
  O  O99  1  0.69721865  0.17408346  0.74664896  1
  O  O100  1  0.48128454  0.31953282  0.74729738  1
  O  O101  1  0.84939674  0.53449024  0.74343639  1
  O  O102  1  0.68291225  0.50977937  0.24518961  1
  O  O103  1  0.84700450  0.31014125  0.24516138  1
  O  O104  1  0.46686810  0.15018985  0.24707002  1
  O  O105  1  0.64897939  0.51062754  0.92255589  1
  O  O106  1  0.86849763  0.36366432  0.92123202  1
  O  O107  1  0.50165862  0.14670697  0.92033404  1
  O  O108  1  0.63586642  0.16027099  0.42827397  1
  O  O109  1  0.48841691  0.35631838  0.42247805  1
  O  O110  1  0.85695010  0.49463865  0.42008308  1
  O  O111  1  0.34517357  0.50812349  0.07105026  1
  O  O112  1  0.13213611  0.64139946  0.07742040  1
  O  O113  1  0.49021158  0.84721314  0.07755068  1
  O  O114  1  0.35148265  0.86338680  0.57938064  1
  O  O115  1  0.49253933  0.65385022  0.57595514  1
  O  O116  1  0.13273307  0.49240856  0.57773570  1
  O  O117  1  0.30068195  0.83622865  0.25443444  1
  O  O118  1  0.50477558  0.68376849  0.25674518  1
  O  O119  1  0.15971997  0.47077268  0.25455826  1
  O  O120  1  0.29874761  0.48431843  0.75851531  1
  O  O121  1  0.15758037  0.69204422  0.75578231  1
  O  O122  1  0.51543374  0.82553589  0.75571562  1
