# generated using pymatgen
data_BaGe2
_symmetry_space_group_name_H-M   'P 1'
_cell_length_a   6.86588645
_cell_length_b   9.20070564
_cell_length_c   11.73438009
_cell_angle_alpha   90.00000000
_cell_angle_beta   90.00000000
_cell_angle_gamma   90.00000000
_symmetry_Int_Tables_number   1
_chemical_formula_structural   BaGe2
_chemical_formula_sum   'Ba8 Ge16'
_cell_volume   741.27252683
_cell_formula_units_Z   8
loop_
 _symmetry_equiv_pos_site_id
 _symmetry_equiv_pos_as_xyz
  1  'x, y, z'
loop_
 _atom_site_type_symbol
 _atom_site_label
 _atom_site_symmetry_multiplicity
 _atom_site_fract_x
 _atom_site_fract_y
 _atom_site_fract_z
 _atom_site_occupancy
  Ba  Ba0  1  0.25000000  0.34472396  0.40586686  1
  Ba  Ba1  1  0.75000000  0.65527604  0.59413314  1
  Ba  Ba2  1  0.25000000  0.84472396  0.09413314  1
  Ba  Ba3  1  0.75000000  0.15527604  0.90586686  1
  Ba  Ba4  1  0.25000000  0.51436251  0.80884328  1
  Ba  Ba5  1  0.75000000  0.48563749  0.19115672  1
  Ba  Ba6  1  0.25000000  0.01436251  0.69115672  1
  Ba  Ba7  1  0.75000000  0.98563749  0.30884328  1
  Ge  Ge8  1  0.93508503  0.30765759  0.64788883  1
  Ge  Ge9  1  0.43508503  0.69234241  0.35211117  1
  Ge  Ge10  1  0.56491497  0.80765759  0.85211117  1
  Ge  Ge11  1  0.06491497  0.19234241  0.14788883  1
  Ge  Ge12  1  0.06491497  0.69234241  0.35211117  1
  Ge  Ge13  1  0.56491497  0.30765759  0.64788883  1
  Ge  Ge14  1  0.43508503  0.19234241  0.14788883  1
  Ge  Ge15  1  0.93508503  0.80765759  0.85211117  1
  Ge  Ge16  1  0.75000000  0.57899283  0.90851434  1
  Ge  Ge17  1  0.25000000  0.42100717  0.09148566  1
  Ge  Ge18  1  0.75000000  0.07899283  0.59148566  1
  Ge  Ge19  1  0.25000000  0.92100717  0.40851434  1
  Ge  Ge20  1  0.75000000  0.80411662  0.03904821  1
  Ge  Ge21  1  0.25000000  0.19588338  0.96095179  1
  Ge  Ge22  1  0.75000000  0.30411662  0.46095179  1
  Ge  Ge23  1  0.25000000  0.69588338  0.53904821  1
