# generated using pymatgen
data_MgTi2(Fe2O5)2
_symmetry_space_group_name_H-M   'P 1'
_cell_length_a   3.97177700
_cell_length_b   5.35136846
_cell_length_c   10.00329891
_cell_angle_alpha   88.40739195
_cell_angle_beta   90.00000000
_cell_angle_gamma   111.78342891
_symmetry_Int_Tables_number   1
_chemical_formula_structural   MgTi2(Fe2O5)2
_chemical_formula_sum   'Mg1 Ti2 Fe4 O10'
_cell_volume   197.34396384
_cell_formula_units_Z   1
loop_
 _symmetry_equiv_pos_site_id
 _symmetry_equiv_pos_as_xyz
  1  'x, y, z'
loop_
 _atom_site_type_symbol
 _atom_site_label
 _atom_site_symmetry_multiplicity
 _atom_site_fract_x
 _atom_site_fract_y
 _atom_site_fract_z
 _atom_site_occupancy
  Mg  Mg0  1  0.50000000  0.00000000  0.00000000  1
  Ti  Ti1  1  0.17729800  0.35459500  0.74487800  1
  Ti  Ti2  1  0.82270200  0.64540500  0.25512200  1
  Fe  Fe3  1  0.14603500  0.29206900  0.44058500  1
  Fe  Fe4  1  0.85396500  0.70793100  0.55941600  1
  Fe  Fe5  1  0.83346100  0.66692300  0.92212100  1
  Fe  Fe6  1  0.16653900  0.33307700  0.07787900  1
  O  O7  1  0.30785200  0.61570400  0.57374500  1
  O  O8  1  0.69214800  0.38429600  0.42625600  1
  O  O9  1  0.67807500  0.35614900  0.08674600  1
  O  O10  1  0.32192500  0.64385100  0.91325400  1
  O  O11  1  0.04305900  0.08611900  0.62047400  1
  O  O12  1  0.95694100  0.91388100  0.37952500  1
  O  O13  1  0.73071100  0.46142300  0.73753100  1
  O  O14  1  0.26928900  0.53857700  0.26246900  1
  O  O15  1  0.94674600  0.89349100  0.11441700  1
  O  O16  1  0.05325400  0.10650900  0.88558400  1
