# generated using pymatgen
data_Na5Al2SiGe2P5O24
_symmetry_space_group_name_H-M   'P 1'
_cell_length_a   8.56076147
_cell_length_b   8.55119408
_cell_length_c   21.67422173
_cell_angle_alpha   90.14923035
_cell_angle_beta   89.71056160
_cell_angle_gamma   119.97964417
_symmetry_Int_Tables_number   1
_chemical_formula_structural   Na5Al2SiGe2P5O24
_chemical_formula_sum   'Na15 Al6 Si3 Ge6 P15 O72'
_cell_volume   1374.34828790
_cell_formula_units_Z   3
loop_
 _symmetry_equiv_pos_site_id
 _symmetry_equiv_pos_as_xyz
  1  'x, y, z'
loop_
 _atom_site_type_symbol
 _atom_site_label
 _atom_site_symmetry_multiplicity
 _atom_site_fract_x
 _atom_site_fract_y
 _atom_site_fract_z
 _atom_site_occupancy
  Na  Na0  1  0.00132545  0.63677118  0.25072986  1
  Na  Na1  1  0.63199676  0.63705678  0.75094230  1
  Na  Na2  1  0.36834093  0.99938090  0.75072128  1
  Na  Na3  1  0.66444627  0.96831134  0.58387942  1
  Na  Na4  1  0.29858831  0.96716331  0.08303702  1
  Na  Na5  1  0.67111944  0.69961684  0.08245435  1
  Na  Na6  1  0.03140264  0.33372788  0.08352134  1
  Na  Na7  1  0.96845327  0.30016612  0.41603949  1
  Na  Na8  1  0.33535995  0.03435212  0.41752875  1
  Na  Na9  1  0.00195327  0.99397288  0.50059513  1
  Na  Na10  1  0.99978526  0.99765325  0.99717837  1
  Na  Na11  1  0.67413185  0.33301096  0.83668117  1
  Na  Na12  1  0.66059068  0.33472915  0.33333642  1
  Na  Na13  1  0.33919307  0.66701448  0.17001066  1
  Na  Na14  1  0.32233127  0.65765451  0.66682521  1
  Al  Al15  1  0.99569251  0.99546317  0.35109840  1
  Al  Al16  1  0.99897247  0.99645851  0.14969890  1
  Al  Al17  1  0.66998187  0.33834089  0.97749950  1
  Al  Al18  1  0.66199542  0.33613104  0.48146139  1
  Al  Al19  1  0.33883546  0.66622518  0.31338095  1
  Al  Al20  1  0.33294298  0.66650604  0.81453546  1
  Si  Si21  1  0.71629169  0.00477696  0.75018828  1
  Si  Si22  1  0.37166638  0.04519870  0.58167461  1
  Si  Si23  1  0.95333820  0.62257448  0.08161544  1
  Ge  Ge24  1  0.99659675  0.00246006  0.85466586  1
  Ge  Ge25  1  0.00391572  -0.00036541  0.64705729  1
  Ge  Ge26  1  0.67021189  0.32729177  0.68441595  1
  Ge  Ge27  1  0.66741349  0.33258915  0.18654072  1
  Ge  Ge28  1  0.32721563  0.66555060  0.01416673  1
  Ge  Ge29  1  0.33031132  0.66677621  0.51981879  1
  P  P30  1  0.29274758  0.00376267  0.25027701  1
  P  P31  1  0.70716168  0.71281377  0.24988384  1
  P  P32  1  0.00092702  0.28602698  0.25008560  1
  P  P33  1  0.28291850  0.28898367  0.75038143  1
  P  P34  1  -0.00000442  0.70923513  0.75044463  1
  P  P35  1  0.95792291  0.33739625  0.58174006  1
  P  P36  1  0.66696826  0.61740515  0.58276008  1
  P  P37  1  0.66798499  0.04770535  0.08204538  1
  P  P38  1  0.38010069  0.33198543  0.08234028  1
  P  P39  1  0.62164988  0.66417518  0.91532764  1
  P  P40  1  0.04283443  0.37749301  0.91480238  1
  P  P41  1  0.33492612  0.96035613  0.91478526  1
  P  P42  1  0.62319060  0.95175383  0.41560895  1
  P  P43  1  0.33852275  0.38348773  0.41569423  1
  P  P44  1  0.04107634  0.66585422  0.41562925  1
  O  O45  1  0.20689316  0.03440038  0.30826294  1
  O  O46  1  0.83437445  0.79555097  0.30529639  1
  O  O47  1  0.96850102  0.17102225  0.30813432  1
  O  O48  1  0.20779069  0.16159148  0.80696163  1
  O  O49  1  0.95677696  0.79132036  0.80732816  1
  O  O50  1  0.84227783  0.03991083  0.80976442  1
  O  O51  1  0.79840166  0.95814282  0.68817208  1
  O  O52  1  0.16829443  0.20564994  0.69216151  1
  O  O53  1  0.04343407  0.83308941  0.69296265  1
  O  O54  1  0.79197813  0.82391784  0.19073286  1
  O  O55  1  0.02893563  0.20183546  0.19125397  1
  O  O56  1  0.17343123  0.96704991  0.19246192  1
  O  O57  1  0.87748736  0.37483054  0.64053546  1
  O  O58  1  0.50151154  0.12492638  0.64355816  1
  O  O59  1  0.63276852  0.50582508  0.64342582  1
  O  O60  1  0.87568951  0.49527749  0.14472483  1
  O  O61  1  0.61999443  0.12215846  0.14079225  1
  O  O62  1  0.50078996  0.37553880  0.14085002  1
  O  O63  1  0.46150586  0.29130815  0.02651664  1
  O  O64  1  0.82135768  0.52974568  0.02501483  1
  O  O65  1  0.70269509  0.16749896  0.02630711  1
  O  O66  1  0.46429119  0.16428594  0.52136047  1
  O  O67  1  0.70125273  0.53355989  0.52656170  1
  O  O68  1  0.83811720  0.29883946  0.52474089  1
  O  O69  1  0.54053118  0.70357807  0.97585464  1
  O  O70  1  0.15940309  0.45397727  0.97603752  1
  O  O71  1  0.29511093  0.84131134  0.97526002  1
  O  O72  1  0.54362001  0.83830468  0.47602953  1
  O  O73  1  0.29187034  0.46157960  0.47437281  1
  O  O74  1  0.16723995  0.70849016  0.47297388  1
  O  O75  1  0.12613905  0.62897601  0.35838197  1
  O  O76  1  0.49570670  0.86619882  0.36107216  1
  O  O77  1  0.36518896  0.50001668  0.35949205  1
  O  O78  1  0.13648100  0.49938815  0.85997759  1
  O  O79  1  0.36307826  0.87013480  0.85817331  1
  O  O80  1  0.50565484  0.63755384  0.85856329  1
  O  O81  1  0.02726475  0.83795561  0.40862507  1
  O  O82  1  0.81385862  0.97710088  0.40865977  1
  O  O83  1  0.16722821  0.19152838  0.40992120  1
  O  O84  1  0.02978193  0.18899896  0.91117951  1
  O  O85  1  0.16065711  0.97466384  0.90947861  1
  O  O86  1  0.81191179  0.83663146  0.91139275  1
  O  O87  1  0.96983002  0.16291402  0.58942642  1
  O  O88  1  0.17316439  0.02313194  0.59103202  1
  O  O89  1  0.83262830  0.81085223  0.58918350  1
  O  O90  1  0.98106589  0.82362104  0.09187243  1
  O  O91  1  0.83526119  0.02664482  0.09121338  1
  O  O92  1  0.18905060  0.16846616  0.09178511  1
  O  O93  1  0.69053381  0.18202157  0.74359977  1
  O  O94  1  0.47618331  0.31137068  0.74346370  1
  O  O95  1  0.82480161  0.52451171  0.74226351  1
  O  O96  1  0.69302626  0.52135046  0.24364464  1
  O  O97  1  0.82856514  0.30817798  0.24489786  1
  O  O98  1  0.48211253  0.17502647  0.24280491  1
  O  O99  1  0.63728311  0.49543432  0.92340569  1
  O  O100  1  0.85663381  0.35704803  0.92372558  1
  O  O101  1  0.50238209  0.14445450  0.92454902  1
  O  O102  1  0.64524633  0.14346065  0.42304536  1
  O  O103  1  0.50381240  0.35934579  0.42301572  1
  O  O104  1  0.85653854  0.49461791  0.42488715  1
  O  O105  1  0.36162060  0.50473434  0.07641104  1
  O  O106  1  0.15834571  0.64422414  0.07555551  1
  O  O107  1  0.49879542  0.85408445  0.07635902  1
  O  O108  1  0.35881556  0.84472494  0.57606740  1
  O  O109  1  0.49802237  0.64105068  0.57715237  1
  O  O110  1  0.14765017  0.50387146  0.57588717  1
  O  O111  1  0.30845892  0.83186425  0.25742001  1
  O  O112  1  0.52019618  0.69090298  0.25767372  1
  O  O113  1  0.16475186  0.47918405  0.25663827  1
  O  O114  1  0.30807738  0.47779757  0.75812434  1
  O  O115  1  0.16740048  0.69079544  0.75805248  1
  O  O116  1  0.51517545  0.82642278  0.75707712  1
