# generated using pymatgen
data_Na3CaTaSi(PO6)2
_symmetry_space_group_name_H-M   'P 1'
_cell_length_a   16.06662993
_cell_length_b   9.24103480
_cell_length_c   9.04497251
_cell_angle_alpha   89.99999874
_cell_angle_beta   125.26785132
_cell_angle_gamma   89.99999413
_symmetry_Int_Tables_number   1
_chemical_formula_structural   Na3CaTaSi(PO6)2
_chemical_formula_sum   'Na12 Ca4 Ta4 Si4 P8 O48'
_cell_volume   1096.44906965
_cell_formula_units_Z   4
loop_
 _symmetry_equiv_pos_site_id
 _symmetry_equiv_pos_as_xyz
  1  'x, y, z'
loop_
 _atom_site_type_symbol
 _atom_site_label
 _atom_site_symmetry_multiplicity
 _atom_site_fract_x
 _atom_site_fract_y
 _atom_site_fract_z
 _atom_site_occupancy
  Na  Na0  1  0.25546014  0.71956169  0.98889724  1
  Na  Na1  1  0.75546015  0.78043837  0.48889721  1
  Na  Na2  1  0.75545995  0.21956172  0.98889704  1
  Na  Na3  1  0.25546009  0.28043829  0.48889708  1
  Na  Na4  1  0.51091167  0.09479921  0.75228039  1
  Na  Na5  1  0.51091157  0.90520072  0.25228022  1
  Na  Na6  1  0.01091159  0.59479932  0.75228022  1
  Na  Na7  1  0.01091173  0.40520083  0.25228041  1
  Na  Na8  1  0.17883561  0.93064428  0.30708817  1
  Na  Na9  1  0.17883567  0.06935567  0.80708820  1
  Na  Na10  1  0.67883573  0.43064439  0.30708819  1
  Na  Na11  1  0.67883565  0.56935565  0.80708816  1
  Ca  Ca12  1  0.10532868  0.74624751  0.56765529  1
  Ca  Ca13  1  0.10532894  0.25375275  0.06765572  1
  Ca  Ca14  1  0.60532865  0.24624772  0.56765518  1
  Ca  Ca15  1  0.60532889  0.75375208  0.06765543  1
  Ta  Ta16  1  0.89538893  0.75590940  0.93744052  1
  Ta  Ta17  1  0.89538885  0.24409052  0.43744029  1
  Ta  Ta18  1  0.39538881  0.25590954  0.93744009  1
  Ta  Ta19  1  0.39538875  0.74409036  0.43744031  1
  Si  Si20  1  0.65121729  0.88007588  0.74631945  1
  Si  Si21  1  0.65121724  0.11992420  0.24631943  1
  Si  Si22  1  0.15121720  0.38007595  0.74631943  1
  Si  Si23  1  0.15121713  0.61992403  0.24631937  1
  P  P24  1  0.99136816  0.95798987  0.75898237  1
  P  P25  1  0.99136815  0.04201018  0.25898233  1
  P  P26  1  0.49136821  0.45798974  0.75898247  1
  P  P27  1  0.49136820  0.54201010  0.25898228  1
  P  P28  1  0.35604140  0.91576978  0.75563245  1
  P  P29  1  0.35604137  0.08423037  0.25563235  1
  P  P30  1  0.85604147  0.41576962  0.75563247  1
  P  P31  1  0.85604143  0.58423022  0.25563240  1
  O  O32  1  0.15691767  0.55332822  0.75517663  1
  O  O33  1  0.85756529  0.58780208  0.74562412  1
  O  O34  1  0.85756531  0.41219745  0.24562428  1
  O  O35  1  0.15691769  0.44667173  0.25517654  1
  O  O36  1  0.65691764  0.05332817  0.75517643  1
  O  O37  1  0.35756533  0.08780277  0.74562427  1
  O  O38  1  0.35756528  0.91219741  0.24562430  1
  O  O39  1  0.65691765  0.94667182  0.25517657  1
  O  O40  1  0.43287649  0.57211177  0.59257208  1
  O  O41  1  0.55481156  0.53798512  0.93388473  1
  O  O42  1  0.55481141  0.46201506  0.43388441  1
  O  O43  1  0.43287665  0.42788844  0.09257252  1
  O  O44  1  0.93287660  0.07211155  0.59257250  1
  O  O45  1  0.05481148  0.03798500  0.93388448  1
  O  O46  1  0.05481146  0.96201507  0.43388442  1
  O  O47  1  0.93287661  0.92788844  0.09257234  1
  O  O48  1  0.26072721  0.87365364  0.74316434  1
  O  O49  1  0.74821948  0.80085645  0.75191251  1
  O  O50  1  0.74821980  0.19914360  0.25191290  1
  O  O51  1  0.26072721  0.12634644  0.24316428  1
  O  O52  1  0.76072722  0.37365361  0.74316435  1
  O  O53  1  0.24821975  0.30085640  0.75191276  1
  O  O54  1  0.24821999  0.69914365  0.25191307  1
  O  O55  1  0.76072727  0.62634632  0.24316429  1
  O  O56  1  0.35887444  0.86412935  0.58562685  1
  O  O57  1  0.65548738  0.80302287  0.90545972  1
  O  O58  1  0.65548739  0.19697718  0.40545965  1
  O  O59  1  0.35887435  0.13587040  0.08562715  1
  O  O60  1  0.85887441  0.36412956  0.58562721  1
  O  O61  1  0.15548734  0.30302287  0.90545974  1
  O  O62  1  0.15548736  0.69697720  0.40545973  1
  O  O63  1  0.85887441  0.63587057  0.08562676  1
  O  O64  1  0.45291735  0.86591532  0.92916639  1
  O  O65  1  0.53459021  0.81882222  0.55534432  1
  O  O66  1  0.53459046  0.18117768  0.05534473  1
  O  O67  1  0.45291746  0.13408471  0.42916665  1
  O  O68  1  0.95291723  0.36591531  0.92916624  1
  O  O69  1  0.03459045  0.31882224  0.55534467  1
  O  O70  1  0.03459041  0.68117776  0.05534456  1
  O  O71  1  0.95291737  0.63408472  0.42916650  1
  O  O72  1  0.05688679  0.85438810  0.73580424  1
  O  O73  1  0.90557391  0.86850777  0.75196768  1
  O  O74  1  0.90557394  0.13149231  0.25196771  1
  O  O75  1  0.05688674  0.14561191  0.23580419  1
  O  O76  1  0.55688675  0.35438808  0.73580413  1
  O  O77  1  0.40557379  0.36850757  0.75196778  1
  O  O78  1  0.40557398  0.63149228  0.25196782  1
  O  O79  1  0.55688674  0.64561186  0.23580434  1
