# generated using pymatgen
data_Na7Mg3ZrP5SO24
_symmetry_space_group_name_H-M   'P 1'
_cell_length_a   9.02922180
_cell_length_b   8.99833204
_cell_length_c   22.31421435
_cell_angle_alpha   89.65399268
_cell_angle_beta   90.20923180
_cell_angle_gamma   119.84569830
_symmetry_Int_Tables_number   1
_chemical_formula_structural   Na7Mg3ZrP5SO24
_chemical_formula_sum   'Na21 Mg9 Zr3 P15 S3 O72'
_cell_volume   1572.49651598
_cell_formula_units_Z   3
loop_
 _symmetry_equiv_pos_site_id
 _symmetry_equiv_pos_as_xyz
  1  'x, y, z'
loop_
 _atom_site_type_symbol
 _atom_site_label
 _atom_site_symmetry_multiplicity
 _atom_site_fract_x
 _atom_site_fract_y
 _atom_site_fract_z
 _atom_site_occupancy
  Na  Na0  1  0.62387477  0.99946668  0.25092457  1
  Na  Na1  1  0.36474623  0.35788570  0.25205889  1
  Na  Na2  1  0.00883663  0.64219922  0.25000706  1
  Na  Na3  1  0.64358860  0.63383396  0.74759372  1
  Na  Na4  1  0.99254703  0.35614490  0.74810366  1
  Na  Na5  1  0.29805502  0.33931237  0.58625913  1
  Na  Na6  1  0.02743166  0.69534765  0.58707451  1
  Na  Na7  1  0.67413041  0.96424829  0.58545603  1
  Na  Na8  1  0.29796877  0.96317137  0.08296063  1
  Na  Na9  1  0.66417062  0.70002392  0.07965135  1
  Na  Na10  1  0.03598781  0.33532336  0.08032622  1
  Na  Na11  1  0.97351918  0.67807465  0.91168114  1
  Na  Na12  1  0.32402611  0.29699451  0.91113014  1
  Na  Na13  1  0.32452019  0.02469199  0.41236916  1
  Na  Na14  1  0.69603497  0.67396047  0.41689344  1
  Na  Na15  1  0.99447709  0.00931914  0.49728525  1
  Na  Na16  1  0.99105682  0.00028530  0.99534972  1
  Na  Na17  1  0.65743984  0.31469118  0.82569783  1
  Na  Na18  1  0.66632043  0.32557313  0.33327910  1
  Na  Na19  1  0.33190056  0.67228214  0.16294611  1
  Na  Na20  1  0.33342668  0.66863284  0.66642803  1
  Mg  Mg21  1  0.00828457  0.00985456  0.35381369  1
  Mg  Mg22  1  0.99605728  0.00176180  0.84803675  1
  Mg  Mg23  1  0.99594000  0.00031179  0.65578844  1
  Mg  Mg24  1  0.00705112  0.99849480  0.14772391  1
  Mg  Mg25  1  0.66671564  0.33487184  0.68709758  1
  Mg  Mg26  1  0.65968947  0.32692803  0.17899860  1
  Mg  Mg27  1  0.33512415  0.66744051  0.01541795  1
  Mg  Mg28  1  0.33186189  0.65896346  0.51272836  1
  Mg  Mg29  1  0.33089097  0.67106626  0.32296462  1
  Zr  Zr30  1  0.66766549  0.32825342  0.98133182  1
  Zr  Zr31  1  0.67921647  0.33818492  0.48013276  1
  Zr  Zr32  1  0.33602814  0.67504141  0.81357838  1
  P  P33  1  0.29504768  0.99952018  0.25011671  1
  P  P34  1  0.29519303  0.28947082  0.75006728  1
  P  P35  1  0.99767487  0.70763697  0.74929684  1
  P  P36  1  0.71043122  0.00470886  0.74845222  1
  P  P37  1  0.96563173  0.33453145  0.58668838  1
  P  P38  1  0.66577368  0.62984225  0.58499756  1
  P  P39  1  0.96215283  0.62804612  0.08629607  1
  P  P40  1  0.66693969  0.03409882  0.08731182  1
  P  P41  1  0.37019515  0.33571477  0.08558200  1
  P  P42  1  0.63133781  0.67331215  0.91904794  1
  P  P43  1  0.04215572  0.37012523  0.91852039  1
  P  P44  1  0.32845755  0.95906643  0.91963728  1
  P  P45  1  0.62800339  0.95699533  0.41610996  1
  P  P46  1  0.32936845  0.37166477  0.41612851  1
  P  P47  1  0.04363943  0.67120341  0.41570606  1
  S  S48  1  0.70712810  0.70705062  0.24998373  1
  S  S49  1  0.99968469  0.29189681  0.24944900  1
  S  S50  1  0.37316088  0.03925074  0.58410533  1
  O  O51  1  0.21122777  0.02848117  0.30562434  1
  O  O52  1  0.81196587  0.78753628  0.30385814  1
  O  O53  1  0.97106840  0.18112691  0.30183148  1
  O  O54  1  0.21253193  0.18841351  0.80712706  1
  O  O55  1  0.97238520  0.78880797  0.80573412  1
  O  O56  1  0.82284386  0.03122366  0.80275009  1
  O  O57  1  0.77799492  0.96435097  0.69101435  1
  O  O58  1  0.18470232  0.21620157  0.69356192  1
  O  O59  1  0.02673758  0.81282787  0.69199939  1
  O  O60  1  0.78603951  0.81403482  0.19599563  1
  O  O61  1  0.02458007  0.21450577  0.19456128  1
  O  O62  1  0.18346867  0.97098905  0.19399869  1
  O  O63  1  0.87893626  0.36194618  0.64062721  1
  O  O64  1  0.48451432  0.12348810  0.63525619  1
  O  O65  1  0.63567162  0.51289541  0.63879215  1
  O  O66  1  0.87724232  0.51426710  0.14140580  1
  O  O67  1  0.63689220  0.11613363  0.14253318  1
  O  O68  1  0.48349088  0.36609666  0.14076281  1
  O  O69  1  0.45768510  0.30493844  0.02991326  1
  O  O70  1  0.84684668  0.54065345  0.02984541  1
  O  O71  1  0.69729081  0.15516502  0.03228950  1
  O  O72  1  0.45115496  0.14465521  0.52819316  1
  O  O73  1  0.69068655  0.54022089  0.52800228  1
  O  O74  1  0.84550638  0.30473838  0.53105009  1
  O  O75  1  0.54568592  0.69037096  0.97505291  1
  O  O76  1  0.14943731  0.45496545  0.97438006  1
  O  O77  1  0.30380317  0.85195604  0.97560794  1
  O  O78  1  0.54552723  0.84981236  0.47270302  1
  O  O79  1  0.31057790  0.45384748  0.47280382  1
  O  O80  1  0.15147987  0.69800918  0.47202423  1
  O  O81  1  0.11713883  0.63900395  0.35890198  1
  O  O82  1  0.51726193  0.88290309  0.35953020  1
  O  O83  1  0.36663237  0.48375044  0.35955611  1
  O  O84  1  0.12410796  0.48752568  0.86237034  1
  O  O85  1  0.35791479  0.87291843  0.86448002  1
  O  O86  1  0.51484942  0.63749467  0.86292387  1
  O  O87  1  0.01641279  0.82808206  0.41026544  1
  O  O88  1  0.80528738  0.97381647  0.40899801  1
  O  O89  1  0.17819444  0.18789776  0.41093899  1
  O  O90  1  0.02610693  0.19467338  0.91120280  1
  O  O91  1  0.17107566  0.98063587  0.91185234  1
  O  O92  1  0.81289907  0.82253396  0.91178298  1
  O  O93  1  0.98317417  0.17180461  0.58834584  1
  O  O94  1  0.20158963  0.02325367  0.58842180  1
  O  O95  1  0.83125733  0.80696718  0.58698787  1
  O  O96  1  0.97503426  0.80589331  0.08920751  1
  O  O97  1  0.83029768  0.01962593  0.09113254  1
  O  O98  1  0.19212566  0.17274324  0.08945402  1
  O  O99  1  0.69015297  0.16417353  0.74228913  1
  O  O100  1  0.47954620  0.32330515  0.74426344  1
  O  O101  1  0.83884096  0.52466771  0.74502496  1
  O  O102  1  0.69090420  0.53304915  0.24481450  1
  O  O103  1  0.84651949  0.31542238  0.24465219  1
  O  O104  1  0.47742300  0.16296889  0.24519987  1
  O  O105  1  0.64330807  0.50256839  0.92302439  1
  O  O106  1  0.86435773  0.36206213  0.92272328  1
  O  O107  1  0.48996272  0.14276685  0.92265291  1
  O  O108  1  0.63936369  0.13736407  0.42261989  1
  O  O109  1  0.49659108  0.35260581  0.42237547  1
  O  O110  1  0.85715521  0.51035462  0.42132724  1
  O  O111  1  0.35212074  0.49651643  0.07824883  1
  O  O112  1  0.14052824  0.64615644  0.07918397  1
  O  O113  1  0.50616390  0.85726992  0.07889563  1
  O  O114  1  0.35470301  0.86608489  0.57756189  1
  O  O115  1  0.50620656  0.65100035  0.57768570  1
  O  O116  1  0.14196674  0.49784359  0.57785401  1
  O  O117  1  0.31527495  0.83645327  0.25503978  1
  O  O118  1  0.53157800  0.68495894  0.25489594  1
  O  O119  1  0.15635767  0.46535044  0.25529202  1
  O  O120  1  0.31247268  0.47625358  0.75579233  1
  O  O121  1  0.15714488  0.67963202  0.75495474  1
  O  O122  1  0.52949493  0.83688292  0.75605609  1
