# generated using pymatgen
data_Sr(Ag3O2)2
_symmetry_space_group_name_H-M   'P 1'
_cell_length_a   6.50538411
_cell_length_b   8.93448496
_cell_length_c   12.46965448
_cell_angle_alpha   90.00000000
_cell_angle_beta   90.00000000
_cell_angle_gamma   90.00000000
_symmetry_Int_Tables_number   1
_chemical_formula_structural   Sr(Ag3O2)2
_chemical_formula_sum   'Sr4 Ag24 O16'
_cell_volume   724.76445603
_cell_formula_units_Z   4
loop_
 _symmetry_equiv_pos_site_id
 _symmetry_equiv_pos_as_xyz
  1  'x, y, z'
loop_
 _atom_site_type_symbol
 _atom_site_label
 _atom_site_symmetry_multiplicity
 _atom_site_fract_x
 _atom_site_fract_y
 _atom_site_fract_z
 _atom_site_occupancy
  Sr  Sr0  1  0.25000000  0.88220272  0.50000000  1
  Sr  Sr1  1  0.25000000  0.61779728  0.00000000  1
  Sr  Sr2  1  0.75000000  0.11779728  0.50000000  1
  Sr  Sr3  1  0.75000000  0.38220272  0.00000000  1
  Ag  Ag4  1  0.42343430  0.53994957  0.73899052  1
  Ag  Ag5  1  0.92343430  0.46005043  0.73899052  1
  Ag  Ag6  1  0.92343430  0.03994957  0.76100948  1
  Ag  Ag7  1  0.57656570  0.46005043  0.26100948  1
  Ag  Ag8  1  0.40745052  0.75000000  0.25000000  1
  Ag  Ag9  1  0.09254948  0.75000000  0.75000000  1
  Ag  Ag10  1  0.59254948  0.25000000  0.75000000  1
  Ag  Ag11  1  0.90745052  0.25000000  0.25000000  1
  Ag  Ag12  1  0.42343430  0.96005043  0.76100948  1
  Ag  Ag13  1  0.07656570  0.53994957  0.26100948  1
  Ag  Ag14  1  0.07656570  0.96005043  0.23899052  1
  Ag  Ag15  1  0.29206689  0.23574923  0.37882781  1
  Ag  Ag16  1  0.29206689  0.26425077  0.12117219  1
  Ag  Ag17  1  0.20793311  0.23574923  0.62117219  1
  Ag  Ag18  1  0.20793311  0.26425077  0.87882781  1
  Ag  Ag19  1  0.70793311  0.76425077  0.62117219  1
  Ag  Ag20  1  0.70793311  0.73574923  0.87882781  1
  Ag  Ag21  1  0.79206689  0.76425077  0.37882781  1
  Ag  Ag22  1  0.79206689  0.73574923  0.12117219  1
  Ag  Ag23  1  0.50000000  0.50000000  0.50000000  1
  Ag  Ag24  1  0.50000000  -0.00000000  0.00000000  1
  Ag  Ag25  1  0.00000000  0.50000000  0.50000000  1
  Ag  Ag26  1  0.00000000  -0.00000000  0.00000000  1
  Ag  Ag27  1  0.57656570  0.03994957  0.23899052  1
  O  O28  1  0.59148488  0.32692723  0.39673432  1
  O  O29  1  0.54633501  0.58283809  0.12008327  1
  O  O30  1  0.54633501  0.91716191  0.37991673  1
  O  O31  1  0.95366499  0.58283809  0.87991673  1
  O  O32  1  0.59148488  0.17307277  0.10326568  1
  O  O33  1  0.90851512  0.32692723  0.60326568  1
  O  O34  1  0.90851512  0.17307277  0.89673432  1
  O  O35  1  0.40851512  0.67307277  0.60326568  1
  O  O36  1  0.40851512  0.82692723  0.89673432  1
  O  O37  1  0.95366499  0.91716191  0.62008327  1
  O  O38  1  0.09148488  0.67307277  0.39673432  1
  O  O39  1  0.04633501  0.08283809  0.37991673  1
  O  O40  1  0.04633501  0.41716191  0.12008327  1
  O  O41  1  0.45366499  0.08283809  0.62008327  1
  O  O42  1  0.45366499  0.41716191  0.87991673  1
  O  O43  1  0.09148488  0.82692723  0.10326568  1
