# generated using pymatgen
data_Na3NbInSi2PO12
_symmetry_space_group_name_H-M   'P 1'
_cell_length_a   9.14864470
_cell_length_b   9.14864438
_cell_length_c   22.51862246
_cell_angle_alpha   89.75323178
_cell_angle_beta   90.24676821
_cell_angle_gamma   119.99297858
_symmetry_Int_Tables_number   1
_chemical_formula_structural   Na3NbInSi2PO12
_chemical_formula_sum   'Na18 Nb6 In6 Si12 P6 O72'
_cell_volume   1632.34258789
_cell_formula_units_Z   6
loop_
 _symmetry_equiv_pos_site_id
 _symmetry_equiv_pos_as_xyz
  1  'x, y, z'
loop_
 _atom_site_type_symbol
 _atom_site_label
 _atom_site_symmetry_multiplicity
 _atom_site_fract_x
 _atom_site_fract_y
 _atom_site_fract_z
 _atom_site_occupancy
  Na  Na0  1  0.99339804  0.99248797  0.49432637  1
  Na  Na1  1  0.00751203  0.00660196  0.99432637  1
  Na  Na2  1  0.66006504  0.32582097  0.82765937  1
  Na  Na3  1  0.67417903  0.33993496  0.32765937  1
  Na  Na4  1  0.32673104  0.65915497  0.16099337  1
  Na  Na5  1  0.34084503  0.67326896  0.66099337  1
  Na  Na6  1  0.65144053  0.01478844  0.25015754  1
  Na  Na7  1  0.98287256  0.62291759  0.24729607  1
  Na  Na8  1  0.98521156  0.34855947  0.75015754  1
  Na  Na9  1  0.37708241  0.01712744  0.74729607  1
  Na  Na10  1  0.31810753  0.34812144  0.58349054  1
  Na  Na11  1  0.64953956  0.95625059  0.58062907  1
  Na  Na12  1  0.65187856  0.68189247  0.08349054  1
  Na  Na13  1  0.04374941  0.35046044  0.08062907  1
  Na  Na14  1  0.98477353  0.68145544  0.91682454  1
  Na  Na15  1  0.31620556  0.28958459  0.91396307  1
  Na  Na16  1  0.31854456  0.01522647  0.41682454  1
  Na  Na17  1  0.71041541  0.68379444  0.41396307  1
  Nb  Nb18  1  0.99631876  0.99471634  0.64662201  1
  Nb  Nb19  1  0.00528366  0.00368124  0.14662201  1
  Nb  Nb20  1  0.66298576  0.32804934  0.97995501  1
  Nb  Nb21  1  0.67195066  0.33701424  0.47995501  1
  Nb  Nb22  1  0.32965176  0.66138334  0.31328901  1
  Nb  Nb23  1  0.33861666  0.67034824  0.81328901  1
  In  In24  1  0.99770233  0.00416175  0.35038256  1
  In  In25  1  0.99583825  0.00229767  0.85038256  1
  In  In26  1  0.66436933  0.33749475  0.68371556  1
  In  In27  1  0.66250525  0.33563067  0.18371556  1
  In  In28  1  0.33103533  0.67082875  0.01704956  1
  In  In29  1  0.32917125  0.66896467  0.51704956  1
  Si  Si30  1  0.70247953  0.70456496  0.25186018  1
  Si  Si31  1  0.00227740  0.29582316  0.24926167  1
  Si  Si32  1  0.29543504  0.29752047  0.75186018  1
  Si  Si33  1  0.70417684  0.99772260  0.74926167  1
  Si  Si34  1  0.36914653  0.03789796  0.58519318  1
  Si  Si35  1  0.66894440  0.62915616  0.58259467  1
  Si  Si36  1  0.96210204  0.63085347  0.08519318  1
  Si  Si37  1  0.37084384  0.33105560  0.08259467  1
  Si  Si38  1  0.03581253  0.37123196  0.91852718  1
  Si  Si39  1  0.33561040  0.96249016  0.91592867  1
  Si  Si40  1  0.62876804  0.96418747  0.41852718  1
  Si  Si41  1  0.03750984  0.66438960  0.41592867  1
  P  P42  1  0.29175685  0.99529784  0.25233028  1
  P  P43  1  0.00470216  0.70824315  0.75233028  1
  P  P44  1  0.95842385  0.32863084  0.58566328  1
  P  P45  1  0.67136916  0.04157615  0.08566328  1
  P  P46  1  0.62508985  0.66196484  0.91899728  1
  P  P47  1  0.33803516  0.37491015  0.41899728  1
  O  O48  1  0.22369498  0.02009763  0.31056540  1
  O  O49  1  0.81303436  0.77955200  0.31136240  1
  O  O50  1  0.96531416  0.17829876  0.30559161  1
  O  O51  1  0.22044800  0.18696564  0.81136240  1
  O  O52  1  0.97990237  0.77630502  0.81056540  1
  O  O53  1  0.82170124  0.03468584  0.80559161  1
  O  O54  1  0.80027596  0.97271639  0.68953314  1
  O  O55  1  0.16406675  0.19293723  0.69369550  1
  O  O56  1  0.02165205  0.82921271  0.69887508  1
  O  O57  1  0.80706277  0.83593325  0.19369550  1
  O  O58  1  0.02728361  0.19972404  0.18953314  1
  O  O59  1  0.17078729  0.97834795  0.19887508  1
  O  O60  1  0.89036198  0.35343063  0.64389840  1
  O  O61  1  0.47970136  0.11288500  0.64469540  1
  O  O62  1  0.63198116  0.51163176  0.63892461  1
  O  O63  1  0.88711500  0.52029864  0.14469540  1
  O  O64  1  0.64656937  0.10963802  0.14389840  1
  O  O65  1  0.48836824  0.36801884  0.13892461  1
  O  O66  1  0.46694296  0.30604939  0.02286614  1
  O  O67  1  0.83073375  0.52627023  0.02702850  1
  O  O68  1  0.68831905  0.16254571  0.03220808  1
  O  O69  1  0.47372977  0.16926625  0.52702850  1
  O  O70  1  0.69395061  0.53305704  0.52286614  1
  O  O71  1  0.83745429  0.31168095  0.53220808  1
  O  O72  1  0.55702798  0.68676463  0.97723240  1
  O  O73  1  0.14636736  0.44621900  0.97802940  1
  O  O74  1  0.29864716  0.84496576  0.97225861  1
  O  O75  1  0.55378100  0.85363264  0.47802940  1
  O  O76  1  0.31323537  0.44297202  0.47723240  1
  O  O77  1  0.15503424  0.70135284  0.47225861  1
  O  O78  1  0.13360896  0.63938339  0.35620014  1
  O  O79  1  0.49739975  0.85960423  0.36036250  1
  O  O80  1  0.35498505  0.49587971  0.36554208  1
  O  O81  1  0.14039577  0.50260025  0.86036250  1
  O  O82  1  0.36061661  0.86639104  0.85620014  1
  O  O83  1  0.50412029  0.64501495  0.86554208  1
  O  O84  1  0.01422133  0.82891699  0.41091464  1
  O  O85  1  0.81389768  0.98631921  0.41289059  1
  O  O86  1  0.19790082  0.19189832  0.41076394  1
  O  O87  1  0.01368079  0.18610232  0.91289059  1
  O  O88  1  0.17108301  0.98577867  0.91091464  1
  O  O89  1  0.80810168  0.80209918  0.91076394  1
  O  O90  1  0.95591876  0.15459103  0.58616222  1
  O  O91  1  0.18780639  0.04057588  0.58926500  1
  O  O92  1  0.84220572  0.81836074  0.58814381  1
  O  O93  1  0.95942412  0.81219361  0.08926500  1
  O  O94  1  0.84540897  0.04408124  0.08616222  1
  O  O95  1  0.18163926  0.15779428  0.08814381  1
  O  O96  1  0.68088833  0.16224999  0.74424764  1
  O  O97  1  0.48056468  0.31965221  0.74622359  1
  O  O98  1  0.86456782  0.52523132  0.74409694  1
  O  O99  1  0.68034779  0.51943532  0.24622359  1
  O  O100  1  0.83775001  0.31911167  0.24424764  1
  O  O101  1  0.47476868  0.13543218  0.24409694  1
  O  O102  1  0.62258576  0.48792403  0.91949522  1
  O  O103  1  0.85447339  0.37390888  0.92259800  1
  O  O104  1  0.50887272  0.15169374  0.92147681  1
  O  O105  1  0.62609112  0.14552661  0.42259800  1
  O  O106  1  0.51207597  0.37741424  0.41949522  1
  O  O107  1  0.84830626  0.49112728  0.42147681  1
  O  O108  1  0.34755433  0.49558399  0.07758164  1
  O  O109  1  0.14723068  0.65298621  0.07955759  1
  O  O110  1  0.53123382  0.85856532  0.07743094  1
  O  O111  1  0.34701379  0.85276932  0.57955759  1
  O  O112  1  0.50441601  0.65244567  0.57758164  1
  O  O113  1  0.14143468  0.46876618  0.57743094  1
  O  O114  1  0.28925176  0.82125803  0.25282922  1
  O  O115  1  0.52113939  0.70724288  0.25593200  1
  O  O116  1  0.17553872  0.48502774  0.25481081  1
  O  O117  1  0.29275712  0.47886061  0.75593200  1
  O  O118  1  0.17874197  0.71074824  0.75282922  1
  O  O119  1  0.51497226  0.82446128  0.75481081  1
