# generated using pymatgen
data_Dy2MgCr2O8
_symmetry_space_group_name_H-M   'P 1'
_cell_length_a   6.06350324
_cell_length_b   6.06347738
_cell_length_c   6.19748625
_cell_angle_alpha   105.68135415
_cell_angle_beta   105.67251926
_cell_angle_gamma   116.50398632
_symmetry_Int_Tables_number   1
_chemical_formula_structural   Dy2MgCr2O8
_chemical_formula_sum   'Dy2 Mg1 Cr2 O8'
_cell_volume   174.96845904
_cell_formula_units_Z   1
loop_
 _symmetry_equiv_pos_site_id
 _symmetry_equiv_pos_as_xyz
  1  'x, y, z'
loop_
 _atom_site_type_symbol
 _atom_site_label
 _atom_site_symmetry_multiplicity
 _atom_site_fract_x
 _atom_site_fract_y
 _atom_site_fract_z
 _atom_site_occupancy
  Dy  Dy0  1  0.40405700  0.59595500  0.74998700  1
  Dy  Dy1  1  0.62476000  0.37520700  0.25001000  1
  Mg  Mg2  1  0.11536700  0.88463400  0.75000600  1
  Cr  Cr3  1  0.85057100  0.14947800  0.75002000  1
  Cr  Cr4  1  0.12671600  0.87307000  0.24996900  1
  O  O5  1  0.31400900  0.23961700  0.42470400  1
  O  O6  1  0.88479800  0.34928300  0.58475700  1
  O  O7  1  0.22128500  0.27228400  0.90815400  1
  O  O8  1  0.29792900  0.86381100  0.05236500  1
  O  O9  1  0.13621200  0.70207100  0.44768100  1
  O  O10  1  0.72776000  0.77874500  0.59184300  1
  O  O11  1  0.76033200  0.68599200  0.07526600  1
  O  O12  1  0.65078100  0.11526700  0.91523600  1
