# generated using pymatgen
data_Sr4Mg(Fe2O5)2
_symmetry_space_group_name_H-M   'P 1'
_cell_length_a   5.59329992
_cell_length_b   5.56820232
_cell_length_c   9.39505785
_cell_angle_alpha   107.92305141
_cell_angle_beta   108.00500440
_cell_angle_gamma   87.79732682
_symmetry_Int_Tables_number   1
_chemical_formula_structural   Sr4Mg(Fe2O5)2
_chemical_formula_sum   'Sr4 Mg1 Fe4 O10'
_cell_volume   264.25187206
_cell_formula_units_Z   1
loop_
 _symmetry_equiv_pos_site_id
 _symmetry_equiv_pos_as_xyz
  1  'x, y, z'
loop_
 _atom_site_type_symbol
 _atom_site_label
 _atom_site_symmetry_multiplicity
 _atom_site_fract_x
 _atom_site_fract_y
 _atom_site_fract_z
 _atom_site_occupancy
  Sr  Sr0  1  0.36317261  0.87113110  0.79712229  1
  Sr  Sr1  1  0.55022724  0.08184495  0.21100344  1
  Sr  Sr2  1  0.83925455  0.37082062  0.78899798  1
  Sr  Sr3  1  0.06607410  0.57403600  0.20287311  1
  Mg  Mg4  1  0.09407588  0.13299353  0.50002472  1
  Fe  Fe5  1  0.94801520  0.96214085  0.97032587  1
  Fe  Fe6  1  0.47768875  0.49177859  0.02966000  1
  Fe  Fe7  1  0.81395414  0.66346944  0.49997404  1
  Fe  Fe8  1  0.39949428  0.45368557  0.49998961  1
  O  O9  1  0.70974732  0.22581695  0.99652301  1
  O  O10  1  0.71876005  0.73557021  0.01074031  1
  O  O11  1  0.20803772  0.22484520  0.98926659  1
  O  O12  1  0.21320178  0.72927980  0.00347185  1
  O  O13  1  0.82682992  0.83402848  0.73333235  1
  O  O14  1  0.15946760  0.18591467  0.31242868  1
  O  O15  1  0.34711804  0.37352185  0.68760226  1
  O  O16  1  0.59346616  0.60062072  0.26665246  1
  O  O17  1  0.16236305  0.77172385  0.50002313  1
  O  O18  1  0.75082360  0.28969162  0.49999131  1
