# generated using pymatgen
data_Tm2MgCr2O8
_symmetry_space_group_name_H-M   'P 1'
_cell_length_a   5.88379996
_cell_length_b   6.21504749
_cell_length_c   6.21520066
_cell_angle_alpha   110.82762711
_cell_angle_beta   103.94562336
_cell_angle_gamma   116.10127231
_symmetry_Int_Tables_number   1
_chemical_formula_structural   Tm2MgCr2O8
_chemical_formula_sum   'Tm2 Mg1 Cr2 O8'
_cell_volume   168.02187451
_cell_formula_units_Z   1
loop_
 _symmetry_equiv_pos_site_id
 _symmetry_equiv_pos_as_xyz
  1  'x, y, z'
loop_
 _atom_site_type_symbol
 _atom_site_label
 _atom_site_symmetry_multiplicity
 _atom_site_fract_x
 _atom_site_fract_y
 _atom_site_fract_z
 _atom_site_occupancy
  Tm  Tm0  1  0.13619700  0.83552400  0.26714200  1
  Tm  Tm1  1  0.86377000  0.13087000  0.69919600  1
  Mg  Mg2  1  0.00019600  0.25766700  0.25754400  1
  Cr  Cr3  1  0.41043700  0.65516600  0.78948200  1
  Cr  Cr4  1  0.58958400  0.37883400  0.24451600  1
  O  O5  1  0.83870400  0.75038400  0.45245700  1
  O  O6  1  0.37257300  0.75402300  0.54239000  1
  O  O7  1  0.77225400  0.83090200  0.00948900  1
  O  O8  1  0.78958200  0.35029300  0.05434800  1
  O  O9  1  0.62730000  0.16975000  0.38143900  1
  O  O10  1  0.21041300  0.26490600  0.56084800  1
  O  O11  1  0.16125200  0.61376700  0.91174000  1
  O  O12  1  0.22773900  0.23708200  0.05857700  1
