# generated using pymatgen
data_Na4ZnGa(PO4)3
_symmetry_space_group_name_H-M   'P 1'
_cell_length_a   8.98751219
_cell_length_b   8.98751188
_cell_length_c   21.54694375
_cell_angle_alpha   90.00000000
_cell_angle_beta   90.00000000
_cell_angle_gamma   120.00000110
_symmetry_Int_Tables_number   1
_chemical_formula_structural   Na4ZnGa(PO4)3
_chemical_formula_sum   'Na24 Zn6 Ga6 P18 O72'
_cell_volume   1507.28464439
_cell_formula_units_Z   6
loop_
 _symmetry_equiv_pos_site_id
 _symmetry_equiv_pos_as_xyz
  1  'x, y, z'
loop_
 _atom_site_type_symbol
 _atom_site_label
 _atom_site_symmetry_multiplicity
 _atom_site_fract_x
 _atom_site_fract_y
 _atom_site_fract_z
 _atom_site_occupancy
  Na  Na0  1  0.63825803  0.00892318  0.24727535  1
  Na  Na1  1  0.37066515  0.36174197  0.24727535  1
  Na  Na2  1  0.99107682  0.62933485  0.24727535  1
  Na  Na3  1  0.63825803  0.62933485  0.74727535  1
  Na  Na4  1  0.99107682  0.36174197  0.74727535  1
  Na  Na5  1  0.37066515  0.00892318  0.74727535  1
  Na  Na6  1  0.30492503  0.34225618  0.58060835  1
  Na  Na7  1  0.03733215  0.69507497  0.58060835  1
  Na  Na8  1  0.65774382  0.96266785  0.58060835  1
  Na  Na9  1  0.30492503  0.96266785  0.08060835  1
  Na  Na10  1  0.65774382  0.69507497  0.08060835  1
  Na  Na11  1  0.03733215  0.34225618  0.08060835  1
  Na  Na12  1  0.97159103  0.67559018  0.91394235  1
  Na  Na13  1  0.70399815  0.02840897  0.91394235  1
  Na  Na14  1  0.32440982  0.29600185  0.91394235  1
  Na  Na15  1  0.97159103  0.29600185  0.41394235  1
  Na  Na16  1  0.32440982  0.02840897  0.41394235  1
  Na  Na17  1  0.70399815  0.67559018  0.41394235  1
  Na  Na18  1  0.00000000  0.00000000  0.49688803  1
  Na  Na19  1  0.00000000  0.00000000  0.99688803  1
  Na  Na20  1  0.66666700  0.33333300  0.83022103  1
  Na  Na21  1  0.66666700  0.33333300  0.33022103  1
  Na  Na22  1  0.33333300  0.66666700  0.16355503  1
  Na  Na23  1  0.33333300  0.66666700  0.66355503  1
  Zn  Zn24  1  0.00000000  0.00000000  0.34662227  1
  Zn  Zn25  1  0.00000000  0.00000000  0.84662227  1
  Zn  Zn26  1  0.66666700  0.33333300  0.67995527  1
  Zn  Zn27  1  0.66666700  0.33333300  0.17995527  1
  Zn  Zn28  1  0.33333300  0.66666700  0.01328927  1
  Zn  Zn29  1  0.33333300  0.66666700  0.51328927  1
  Ga  Ga30  1  0.00000000  0.00000000  0.65036830  1
  Ga  Ga31  1  0.00000000  0.00000000  0.15036830  1
  Ga  Ga32  1  0.66666700  0.33333300  0.98370130  1
  Ga  Ga33  1  0.66666700  0.33333300  0.48370130  1
  Ga  Ga34  1  0.33333300  0.66666700  0.31703530  1
  Ga  Ga35  1  0.33333300  0.66666700  0.81703530  1
  P  P36  1  0.29317009  0.99264787  0.25129506  1
  P  P37  1  0.69947778  0.70682991  0.25129506  1
  P  P38  1  0.00735213  0.30052222  0.25129506  1
  P  P39  1  0.29317009  0.30052222  0.75129506  1
  P  P40  1  0.00735213  0.70682991  0.75129506  1
  P  P41  1  0.69947778  0.99264787  0.75129506  1
  P  P42  1  0.95983709  0.32598087  0.58462806  1
  P  P43  1  0.36614478  0.04016291  0.58462806  1
  P  P44  1  0.67401913  0.63385522  0.58462806  1
  P  P45  1  0.95983709  0.63385522  0.08462806  1
  P  P46  1  0.67401913  0.04016291  0.08462806  1
  P  P47  1  0.36614478  0.32598087  0.08462806  1
  P  P48  1  0.62650309  0.65931487  0.91796206  1
  P  P49  1  0.03281078  0.37349691  0.91796206  1
  P  P50  1  0.34068513  0.96718922  0.91796206  1
  P  P51  1  0.62650309  0.96718922  0.41796206  1
  P  P52  1  0.34068513  0.37349691  0.41796206  1
  P  P53  1  0.03281078  0.65931487  0.41796206  1
  O  O54  1  0.21360288  0.01709999  0.31057099  1
  O  O55  1  0.80349711  0.78639712  0.31057099  1
  O  O56  1  0.98290001  0.19650289  0.31057099  1
  O  O57  1  0.21360288  0.19650289  0.81057099  1
  O  O58  1  0.98290001  0.78639712  0.81057099  1
  O  O59  1  0.80349711  0.01709999  0.81057099  1
  O  O60  1  0.78923642  0.96723463  0.69292238  1
  O  O61  1  0.17799821  0.21076358  0.69292238  1
  O  O62  1  0.03276537  0.82200179  0.69292238  1
  O  O63  1  0.78923642  0.82200179  0.19292238  1
  O  O64  1  0.03276537  0.21076358  0.19292238  1
  O  O65  1  0.17799821  0.96723463  0.19292238  1
  O  O66  1  0.88026988  0.35043299  0.64390399  1
  O  O67  1  0.47016411  0.11973012  0.64390399  1
  O  O68  1  0.64956701  0.52983589  0.64390399  1
  O  O69  1  0.88026988  0.52983589  0.14390399  1
  O  O70  1  0.64956701  0.11973012  0.14390399  1
  O  O71  1  0.47016411  0.35043299  0.14390399  1
  O  O72  1  0.45590342  0.30056763  0.02625538  1
  O  O73  1  0.84466521  0.54409658  0.02625538  1
  O  O74  1  0.69943237  0.15533479  0.02625538  1
  O  O75  1  0.45590342  0.15533479  0.52625538  1
  O  O76  1  0.69943237  0.54409658  0.52625538  1
  O  O77  1  0.84466521  0.30056763  0.52625538  1
  O  O78  1  0.54693588  0.68376699  0.97723799  1
  O  O79  1  0.13683011  0.45306412  0.97723799  1
  O  O80  1  0.31623301  0.86316989  0.97723799  1
  O  O81  1  0.54693588  0.86316989  0.47723799  1
  O  O82  1  0.31623301  0.45306412  0.47723799  1
  O  O83  1  0.13683011  0.68376699  0.47723799  1
  O  O84  1  0.12256942  0.63390163  0.35958938  1
  O  O85  1  0.51133121  0.87743058  0.35958938  1
  O  O86  1  0.36609837  0.48866879  0.35958938  1
  O  O87  1  0.12256942  0.48866879  0.85958938  1
  O  O88  1  0.36609837  0.87743058  0.85958938  1
  O  O89  1  0.51133121  0.63390163  0.85958938  1
  O  O90  1  0.00807632  0.81688448  0.41326310  1
  O  O91  1  0.80880817  0.99192368  0.41326310  1
  O  O92  1  0.18311552  0.19119183  0.41326310  1
  O  O93  1  0.00807632  0.19119183  0.91326310  1
  O  O94  1  0.18311552  0.99192368  0.91326310  1
  O  O95  1  0.80880817  0.81688448  0.91326310  1
  O  O96  1  0.97150441  0.15689461  0.58671360  1
  O  O97  1  0.18539021  0.02849559  0.58671360  1
  O  O98  1  0.84310539  0.81460979  0.58671360  1
  O  O99  1  0.97150441  0.81460979  0.08671360  1
  O  O100  1  0.84310539  0.02849559  0.08671360  1
  O  O101  1  0.18539021  0.15689461  0.08671360  1
  O  O102  1  0.67474332  0.15021748  0.74659610  1
  O  O103  1  0.47547517  0.32525668  0.74659610  1
  O  O104  1  0.84978252  0.52452483  0.74659610  1
  O  O105  1  0.67474332  0.52452483  0.24659610  1
  O  O106  1  0.84978252  0.32525668  0.24659610  1
  O  O107  1  0.47547517  0.15021748  0.24659610  1
  O  O108  1  0.63817141  0.49022761  0.92004660  1
  O  O109  1  0.85205721  0.36182859  0.92004660  1
  O  O110  1  0.50977239  0.14794279  0.92004660  1
  O  O111  1  0.63817141  0.14794279  0.42004660  1
  O  O112  1  0.50977239  0.36182859  0.42004660  1
  O  O113  1  0.85205721  0.49022761  0.42004660  1
  O  O114  1  0.34140932  0.48355148  0.07993010  1
  O  O115  1  0.14214117  0.65859068  0.07993010  1
  O  O116  1  0.51644852  0.85785883  0.07993010  1
  O  O117  1  0.34140932  0.85785883  0.57993010  1
  O  O118  1  0.51644852  0.65859068  0.57993010  1
  O  O119  1  0.14214117  0.48355148  0.57993010  1
  O  O120  1  0.30483741  0.82356161  0.25338060  1
  O  O121  1  0.51872321  0.69516259  0.25338060  1
  O  O122  1  0.17643839  0.48127679  0.25338060  1
  O  O123  1  0.30483741  0.48127679  0.75338060  1
  O  O124  1  0.17643839  0.69516259  0.75338060  1
  O  O125  1  0.51872321  0.82356161  0.75338060  1
