# generated using pymatgen
data_Na2Hf2Si3Ge2(SO8)3
_symmetry_space_group_name_H-M   'P 1'
_cell_length_a   8.78721593
_cell_length_b   8.68278010
_cell_length_c   22.68105802
_cell_angle_alpha   91.29810284
_cell_angle_beta   91.52774476
_cell_angle_gamma   119.73155199
_symmetry_Int_Tables_number   1
_chemical_formula_structural   Na2Hf2Si3Ge2(SO8)3
_chemical_formula_sum   'Na6 Hf6 Si9 Ge6 S9 O72'
_cell_volume   1500.88302505
_cell_formula_units_Z   3
loop_
 _symmetry_equiv_pos_site_id
 _symmetry_equiv_pos_as_xyz
  1  'x, y, z'
loop_
 _atom_site_type_symbol
 _atom_site_label
 _atom_site_symmetry_multiplicity
 _atom_site_fract_x
 _atom_site_fract_y
 _atom_site_fract_z
 _atom_site_occupancy
  Na  Na0  1  0.98499813  0.98276394  0.50020337  1
  Na  Na1  1  0.00689342  0.98683529  0.00348496  1
  Na  Na2  1  0.64701163  0.31037775  0.82614169  1
  Na  Na3  1  0.67033192  0.31933441  0.33763408  1
  Na  Na4  1  0.31543977  0.65920533  0.17574988  1
  Na  Na5  1  0.34464083  0.66173065  0.65985313  1
  Hf  Hf6  1  0.00497475  0.00232374  0.35997975  1
  Hf  Hf7  1  0.01127631  0.01166109  0.84702653  1
  Hf  Hf8  1  0.68076899  0.33525472  0.19287198  1
  Hf  Hf9  1  0.66775272  0.34030784  0.98196524  1
  Hf  Hf10  1  0.31848361  0.67684436  0.02375253  1
  Hf  Hf11  1  0.34855169  0.68145430  0.80385363  1
  Si  Si12  1  0.29330493  0.00053779  0.25374690  1
  Si  Si13  1  0.02281097  0.29222333  0.25279335  1
  Si  Si14  1  0.28428567  0.27800470  0.74205919  1
  Si  Si15  1  0.71499922  0.01840902  0.74350644  1
  Si  Si16  1  0.66491451  0.61454765  0.58254100  1
  Si  Si17  1  0.95664856  0.64326973  0.08890978  1
  Si  Si18  1  0.32848765  0.96283513  0.91570410  1
  Si  Si19  1  0.61376130  0.95635431  0.41821900  1
  Si  Si20  1  0.05352918  0.66255506  0.42281070  1
  Ge  Ge21  1  0.96879194  0.99915974  0.64488387  1
  Ge  Ge22  1  0.00963320  0.98672823  0.16034867  1
  Ge  Ge23  1  0.63961496  0.32551887  0.68450186  1
  Ge  Ge24  1  0.69296262  0.35117749  0.47599623  1
  Ge  Ge25  1  0.36778734  0.68994580  0.51510079  1
  Ge  Ge26  1  0.29896323  0.68121922  0.31608018  1
  S  S27  1  0.70894285  0.71923592  0.24913021  1
  S  S28  1  0.98986544  0.70353275  0.74469290  1
  S  S29  1  0.95251034  0.33262676  0.58447739  1
  S  S30  1  0.37311551  0.04030189  0.58153971  1
  S  S31  1  0.67949048  0.04539996  0.08369507  1
  S  S32  1  0.37071602  0.32933697  0.08351971  1
  S  S33  1  0.62343508  0.66960738  0.91722462  1
  S  S34  1  0.04008602  0.37674876  0.91525553  1
  S  S35  1  0.34592250  0.38988139  0.41949579  1
  O  O36  1  0.19901912  0.02455073  0.30951393  1
  O  O37  1  0.81861092  0.79403726  0.30294851  1
  O  O38  1  0.97801403  0.16860879  0.30776586  1
  O  O39  1  0.20907730  0.16692620  0.80220841  1
  O  O40  1  0.96776301  0.78437750  0.80059616  1
  O  O41  1  0.82794902  0.04553606  0.80492529  1
  O  O42  1  0.79158689  0.96082009  0.68806168  1
  O  O43  1  0.15425549  0.17408228  0.68437435  1
  O  O44  1  0.02304641  0.81569358  0.69416726  1
  O  O45  1  0.79205924  0.82473315  0.19523646  1
  O  O46  1  0.03860952  0.19243752  0.18982300  1
  O  O47  1  0.17293979  0.95260386  0.19143200  1
  O  O48  1  0.86947272  0.35695615  0.63690061  1
  O  O49  1  0.48470890  0.11599957  0.63886113  1
  O  O50  1  0.63351110  0.49466724  0.64106949  1
  O  O51  1  0.85948181  0.51123392  0.14063891  1
  O  O52  1  0.64151705  0.12243575  0.13591765  1
  O  O53  1  0.47988175  0.35557538  0.13680157  1
  O  O54  1  0.45737376  0.30585588  0.03006363  1
  O  O55  1  0.84653542  0.55659246  0.02603457  1
  O  O56  1  0.68782879  0.14792624  0.03047174  1
  O  O57  1  0.45732311  0.14879445  0.53151635  1
  O  O58  1  0.69821036  0.52006703  0.52487980  1
  O  O59  1  0.84260973  0.29543270  0.52857780  1
  O  O60  1  0.53889256  0.68735399  0.97009417  1
  O  O61  1  0.14898445  0.45882618  0.97072258  1
  O  O62  1  0.31243483  0.84868647  0.97430063  1
  O  O63  1  0.54788793  0.84104259  0.47756279  1
  O  O64  1  0.31696563  0.46812277  0.47468635  1
  O  O65  1  0.17918042  0.68529334  0.48131870  1
  O  O66  1  0.11819083  0.61774769  0.36057345  1
  O  O67  1  0.48473554  0.85557920  0.35907620  1
  O  O68  1  0.36657705  0.49023422  0.36665410  1
  O  O69  1  0.12143359  0.47740510  0.86363270  1
  O  O70  1  0.34912631  0.86016732  0.85880566  1
  O  O71  1  0.51340647  0.63737239  0.86248567  1
  O  O72  1  0.03459583  0.83787877  0.41792902  1
  O  O73  1  0.80886476  0.98566528  0.41066247  1
  O  O74  1  0.18688976  0.21105971  0.41602728  1
  O  O75  1  0.01746134  0.19626784  0.91257099  1
  O  O76  1  0.15259855  0.97984468  0.91307205  1
  O  O77  1  0.79697043  0.82780867  0.91253932  1
  O  O78  1  0.96601305  0.16301196  0.58713181  1
  O  O79  1  0.19799943  0.02038679  0.58765143  1
  O  O80  1  0.84755296  0.81529142  0.59135704  1
  O  O81  1  0.96784864  0.83917647  0.09608801  1
  O  O82  1  0.83872418  0.03697114  0.08860925  1
  O  O83  1  0.19652222  0.17376309  0.08473034  1
  O  O84  1  0.70238377  0.19781790  0.73371424  1
  O  O85  1  0.48296566  0.30805082  0.73813114  1
  O  O86  1  0.83145173  0.52758139  0.73932598  1
  O  O87  1  0.69040656  0.54039072  0.24207243  1
  O  O88  1  0.85416639  0.32212063  0.24285857  1
  O  O89  1  0.48340498  0.17344915  0.24362978  1
  O  O90  1  0.64273777  0.50846523  0.92080390  1
  O  O91  1  0.86563979  0.36192408  0.92213107  1
  O  O92  1  0.50532777  0.15691012  0.92193933  1
  O  O93  1  0.62106035  0.15066304  0.42972922  1
  O  O94  1  0.50268044  0.36681278  0.42569614  1
  O  O95  1  0.85559020  0.48689190  0.42637270  1
  O  O96  1  0.35953790  0.49373593  0.07638884  1
  O  O97  1  0.15251747  0.66261607  0.08205631  1
  O  O98  1  0.52502360  0.86276515  0.07669246  1
  O  O99  1  0.35953384  0.85924328  0.57834054  1
  O  O100  1  0.48861961  0.64022430  0.57390982  1
  O  O101  1  0.12867618  0.48541981  0.58097282  1
  O  O102  1  0.30944565  0.82050523  0.25729818  1
  O  O103  1  0.53666411  0.70349770  0.25130289  1
  O  O104  1  0.20241399  0.48802574  0.26175652  1
  O  O105  1  0.29797535  0.47045085  0.75148150  1
  O  O106  1  0.14533676  0.68030596  0.75316294  1
  O  O107  1  0.51949488  0.84398012  0.75041472  1
