# generated using pymatgen
data_Na3La2Y2P3(SO8)3
_symmetry_space_group_name_H-M   'P 1'
_cell_length_a   9.37622768
_cell_length_b   9.37235738
_cell_length_c   24.76679739
_cell_angle_alpha   89.53975181
_cell_angle_beta   90.40646391
_cell_angle_gamma   120.20636051
_symmetry_Int_Tables_number   1
_chemical_formula_structural   Na3La2Y2P3(SO8)3
_chemical_formula_sum   'Na9 La6 Y6 P9 S9 O72'
_cell_volume   1880.84887998
_cell_formula_units_Z   3
loop_
 _symmetry_equiv_pos_site_id
 _symmetry_equiv_pos_as_xyz
  1  'x, y, z'
loop_
 _atom_site_type_symbol
 _atom_site_label
 _atom_site_symmetry_multiplicity
 _atom_site_fract_x
 _atom_site_fract_y
 _atom_site_fract_z
 _atom_site_occupancy
  Na  Na0  1  0.35492873  0.35494125  0.25228583  1
  Na  Na1  1  0.68713683  0.02108951  0.91778568  1
  Na  Na2  1  0.98013653  0.31078974  0.41577690  1
  Na  Na3  1  0.00839736  0.99771643  0.49907999  1
  Na  Na4  1  0.00070899  0.99074331  0.00147592  1
  Na  Na5  1  0.65826982  0.33513891  0.83447755  1
  Na  Na6  1  0.66610028  0.33359284  0.33383332  1
  Na  Na7  1  0.33265718  0.68669692  0.16786776  1
  Na  Na8  1  0.33311553  0.66661257  0.66732005  1
  La  La9  1  0.00263727  0.99425776  0.85065054  1
  La  La10  1  0.99110962  0.00747877  0.64743777  1
  La  La11  1  0.67433187  0.32575799  0.68355152  1
  La  La12  1  0.34170697  0.67700828  0.02016393  1
  La  La13  1  0.32291325  0.65839992  0.51467960  1
  La  La14  1  0.34474669  0.67553756  0.81857834  1
  Y  Y15  1  0.00967581  0.99759558  0.34822150  1
  Y  Y16  1  0.99781626  0.00392676  0.15063050  1
  Y  Y17  1  0.67389996  0.31873715  0.18557680  1
  Y  Y18  1  0.66182365  0.33367009  0.98588509  1
  Y  Y19  1  0.66441487  0.33877726  0.48072280  1
  Y  Y20  1  0.32208885  0.66875232  0.31607273  1
  P  P21  1  0.29395346  0.00174154  0.24847429  1
  P  P22  1  0.00337522  0.29343630  0.25184884  1
  P  P23  1  0.69877017  0.99884022  0.75215606  1
  P  P24  1  0.96072095  0.33301041  0.57901512  1
  P  P25  1  0.67573445  0.04396849  0.08333988  1
  P  P26  1  0.63343505  0.66224316  0.91878701  1
  P  P27  1  0.34149054  0.97404874  0.91870624  1
  P  P28  1  0.33207782  0.36757889  0.41255306  1
  P  P29  1  0.03079306  0.66446094  0.41504856  1
  S  S30  1  0.70212322  0.70252390  0.24976174  1
  S  S31  1  0.30209483  0.30254334  0.74945000  1
  S  S32  1  0.00118986  0.69971064  0.74885216  1
  S  S33  1  0.37055226  0.03834792  0.58112003  1
  S  S34  1  0.66689253  0.62710619  0.58175716  1
  S  S35  1  0.95372706  0.62761681  0.08567053  1
  S  S36  1  0.37241300  0.32697824  0.08692724  1
  S  S37  1  0.02574325  0.36582834  0.91845375  1
  S  S38  1  0.63570567  0.96828977  0.41488147  1
  O  O39  1  0.21335954  0.02907120  0.29904553  1
  O  O40  1  0.80285745  0.78065341  0.29836286  1
  O  O41  1  0.97887195  0.19153993  0.30399444  1
  O  O42  1  0.22098521  0.20513711  0.79872556  1
  O  O43  1  0.98894070  0.78090714  0.79842104  1
  O  O44  1  0.79384083  0.01189017  0.80515849  1
  O  O45  1  0.79220285  0.98784546  0.70237233  1
  O  O46  1  0.20483177  0.21690225  0.70062205  1
  O  O47  1  0.01579032  0.79873890  0.70026415  1
  O  O48  1  0.78149666  0.80347453  0.20090647  1
  O  O49  1  0.02785452  0.20628449  0.20254324  1
  O  O50  1  0.18576559  0.97781168  0.19828460  1
  O  O51  1  0.87561050  0.34539410  0.63050353  1
  O  O52  1  0.46152050  0.11670955  0.63144641  1
  O  O53  1  0.65143680  0.53423074  0.63181462  1
  O  O54  1  0.86811861  0.52689317  0.13374469  1
  O  O55  1  0.65832558  0.13573137  0.13232305  1
  O  O56  1  0.47188571  0.34593740  0.13595093  1
  O  O57  1  0.45447535  0.31245206  0.03769275  1
  O  O58  1  0.85817444  0.54864078  0.03572702  1
  O  O59  1  0.69003964  0.14007217  0.03015803  1
  O  O60  1  0.45947290  0.14099403  0.53325059  1
  O  O61  1  0.67639547  0.53803571  0.53355721  1
  O  O62  1  0.85949197  0.32225820  0.52763480  1
  O  O63  1  0.54534201  0.68747356  0.96741958  1
  O  O64  1  0.12817565  0.44651974  0.96652801  1
  O  O65  1  0.31651010  0.86388456  0.96844532  1
  O  O66  1  0.56366548  0.87242944  0.46465655  1
  O  O67  1  0.30243523  0.44788953  0.46258886  1
  O  O68  1  0.13433913  0.69361581  0.46666376  1
  O  O69  1  0.11949550  0.63746810  0.36648850  1
  O  O70  1  0.53045262  0.88543737  0.36725186  1
  O  O71  1  0.35603065  0.47472420  0.36138610  1
  O  O72  1  0.10157629  0.46069369  0.86874630  1
  O  O73  1  0.36652106  0.89378631  0.86771870  1
  O  O74  1  0.53224390  0.63815755  0.86667956  1
  O  O75  1  0.00418622  0.81223039  0.40656943  1
  O  O76  1  0.80529004  0.99330984  0.40810461  1
  O  O77  1  0.16884040  0.19659814  0.40719921  1
  O  O78  1  0.00099379  0.19513822  0.91484733  1
  O  O79  1  0.19183962  0.99925259  0.91392791  1
  O  O80  1  0.80215214  0.82779900  0.91470278  1
  O  O81  1  0.97588898  0.17509230  0.58126417  1
  O  O82  1  0.20403317  0.02093573  0.58268458  1
  O  O83  1  0.82044567  0.79162847  0.58267882  1
  O  O84  1  0.97225425  0.79474190  0.08979742  1
  O  O85  1  0.83137343  0.02667575  0.08961508  1
  O  O86  1  0.20634963  0.17520962  0.09029192  1
  O  O87  1  0.68225164  0.15514681  0.74906026  1
  O  O88  1  0.46890259  0.32181099  0.74685978  1
  O  O89  1  0.84889194  0.53515958  0.74707369  1
  O  O90  1  0.67831288  0.53248048  0.24388942  1
  O  O91  1  0.85332730  0.31867908  0.24415780  1
  O  O92  1  0.46429937  0.16681283  0.24265065  1
  O  O93  1  0.65772123  0.51247794  0.92625665  1
  O  O94  1  0.85709079  0.34500355  0.92387742  1
  O  O95  1  0.50626090  0.14235153  0.92478774  1
  O  O96  1  0.65624487  0.13799087  0.41977964  1
  O  O97  1  0.48386486  0.34562714  0.42095242  1
  O  O98  1  0.86230520  0.49811755  0.42082909  1
  O  O99  1  0.35228156  0.47409161  0.08236782  1
  O  O100  1  0.11947463  0.64275386  0.08273935  1
  O  O101  1  0.51800912  0.86952633  0.08246372  1
  O  O102  1  0.35656525  0.87385935  0.57813684  1
  O  O103  1  0.52115879  0.64888757  0.57800980  1
  O  O104  1  0.13570210  0.48800355  0.57861087  1
  O  O105  1  0.31933820  0.85162939  0.25615396  1
  O  O106  1  0.53318098  0.68145420  0.25536799  1
  O  O107  1  0.16769259  0.46477445  0.25661360  1
  O  O108  1  0.31393077  0.46636840  0.75162784  1
  O  O109  1  0.14844734  0.67995214  0.75179201  1
  O  O110  1  0.52512252  0.84188265  0.75163761  1
