# generated using pymatgen
data_Na6Zr2Zn2Si3(SO8)3
_symmetry_space_group_name_H-M   'P 1'
_cell_length_a   9.16722419
_cell_length_b   9.15336799
_cell_length_c   22.79471334
_cell_angle_alpha   89.84556188
_cell_angle_beta   90.49122437
_cell_angle_gamma   119.57400038
_symmetry_Int_Tables_number   1
_chemical_formula_structural   Na6Zr2Zn2Si3(SO8)3
_chemical_formula_sum   'Na18 Zr6 Zn6 Si9 S9 O72'
_cell_volume   1663.47094319
_cell_formula_units_Z   3
loop_
 _symmetry_equiv_pos_site_id
 _symmetry_equiv_pos_as_xyz
  1  'x, y, z'
loop_
 _atom_site_type_symbol
 _atom_site_label
 _atom_site_symmetry_multiplicity
 _atom_site_fract_x
 _atom_site_fract_y
 _atom_site_fract_z
 _atom_site_occupancy
  Na  Na0  1  0.37534222  0.35462745  0.24525403  1
  Na  Na1  1  0.99549896  0.63452774  0.23839194  1
  Na  Na2  1  0.98707077  0.35164197  0.74298420  1
  Na  Na3  1  0.38550360  0.02512699  0.74638837  1
  Na  Na4  1  0.29722055  0.33590709  0.58186400  1
  Na  Na5  1  0.65672759  0.97516634  0.59066622  1
  Na  Na6  1  0.29998249  0.95563011  0.07305757  1
  Na  Na7  1  0.65641752  0.68382764  0.07967509  1
  Na  Na8  1  0.98403808  0.68613287  0.91617767  1
  Na  Na9  1  0.31784937  0.27911139  0.90747985  1
  Na  Na10  1  0.98353891  0.30020385  0.42555433  1
  Na  Na11  1  0.32344220  0.04038589  0.41558133  1
  Na  Na12  1  0.00810022  0.00037884  0.50326904  1
  Na  Na13  1  0.00541846  0.00741728  0.99086245  1
  Na  Na14  1  0.65252142  0.31641133  0.82178447  1
  Na  Na15  1  0.64754499  0.32344112  0.32879324  1
  Na  Na16  1  0.32069451  0.65743248  0.15488883  1
  Na  Na17  1  0.32499024  0.66499942  0.65991533  1
  Zr  Zr18  1  0.00464974  0.01352080  0.64924707  1
  Zr  Zr19  1  0.01587795  0.00136394  0.14444960  1
  Zr  Zr20  1  0.65627425  0.32588731  0.98297260  1
  Zr  Zr21  1  0.65422745  0.33230874  0.48698681  1
  Zr  Zr22  1  0.34232419  0.67142989  0.31582469  1
  Zr  Zr23  1  0.35211133  0.68200410  0.81110020  1
  Zn  Zn24  1  0.03002839  0.02139086  0.34841668  1
  Zn  Zn25  1  0.01825002  0.01551325  0.84091155  1
  Zn  Zn26  1  0.65589584  0.30465893  0.68304886  1
  Zn  Zn27  1  0.65241344  0.32939178  0.17562933  1
  Zn  Zn28  1  0.29992544  0.65429910  0.01958229  1
  Zn  Zn29  1  0.30459194  0.64571417  0.52317297  1
  Si  Si30  1  0.30747187  0.00565530  0.25179942  1
  Si  Si31  1  0.30699619  0.30144228  0.75236877  1
  Si  Si32  1  0.71544166  0.00307714  0.75205690  1
  Si  Si33  1  0.95854083  0.33712790  0.58599132  1
  Si  Si34  1  0.36327001  0.02249734  0.58388448  1
  Si  Si35  1  0.95613867  0.61694235  0.08782951  1
  Si  Si36  1  0.37157768  0.34544091  0.08473218  1
  Si  Si37  1  0.32800671  0.95793176  0.91943036  1
  Si  Si38  1  0.33347574  0.37265114  0.41852949  1
  S  S39  1  0.71181232  0.71540459  0.25253813  1
  S  S40  1  0.99689857  0.29233505  0.25285845  1
  S  S41  1  0.99749643  0.70530674  0.75287707  1
  S  S42  1  0.66948361  0.62838074  0.58547994  1
  S  S43  1  0.66888357  0.04144026  0.08572032  1
  S  S44  1  0.62887296  0.66848875  0.91993606  1
  S  S45  1  0.03935342  0.37362376  0.91743746  1
  S  S46  1  0.63337542  0.96198439  0.41769621  1
  S  S47  1  0.03836812  0.66724134  0.41527855  1
  O  O48  1  0.22151884  0.03222879  0.30977480  1
  O  O49  1  0.81438650  0.80494569  0.30363430  1
  O  O50  1  0.97719049  0.19619509  0.30701606  1
  O  O51  1  0.23261110  0.18812485  0.81118515  1
  O  O52  1  0.98030585  0.78009078  0.80772087  1
  O  O53  1  0.83050435  0.02238563  0.80795498  1
  O  O54  1  0.79267174  0.97077899  0.69076261  1
  O  O55  1  0.17593265  0.20730298  0.69500071  1
  O  O56  1  0.02734438  0.81800065  0.70158237  1
  O  O57  1  0.78239901  0.81105707  0.19717009  1
  O  O58  1  0.02221109  0.20787944  0.20123964  1
  O  O59  1  0.17579820  0.96999843  0.19478576  1
  O  O60  1  0.86853182  0.35771372  0.64269871  1
  O  O61  1  0.47781524  0.10612739  0.64114697  1
  O  O62  1  0.64597743  0.52297419  0.63626786  1
  O  O63  1  0.86981268  0.51344147  0.14714852  1
  O  O64  1  0.64306947  0.11949156  0.13756729  1
  O  O65  1  0.47720470  0.37275371  0.14492958  1
  O  O66  1  0.46115371  0.29984529  0.02923711  1
  O  O67  1  0.83800267  0.53038319  0.02863923  1
  O  O68  1  0.69515589  0.14615791  0.03209541  1
  O  O69  1  0.45458833  0.15643746  0.52562561  1
  O  O70  1  0.69082791  0.54563250  0.53040064  1
  O  O71  1  0.84427705  0.31046475  0.52376966  1
  O  O72  1  0.55151819  0.68591609  0.97317500  1
  O  O73  1  0.14659322  0.45242740  0.96933188  1
  O  O74  1  0.30523913  0.84691961  0.97799872  1
  O  O75  1  0.55672572  0.86627892  0.47052749  1
  O  O76  1  0.30600080  0.46546061  0.47376970  1
  O  O77  1  0.14684428  0.69722292  0.46646632  1
  O  O78  1  0.12297691  0.64324296  0.36130688  1
  O  O79  1  0.51721033  0.87613009  0.36498640  1
  O  O80  1  0.35367063  0.48569584  0.35764627  1
  O  O81  1  0.11604146  0.47772353  0.86393585  1
  O  O82  1  0.35015643  0.86319209  0.86119611  1
  O  O83  1  0.51728969  0.63848053  0.86744408  1
  O  O84  1  0.01470789  0.81400849  0.40746832  1
  O  O85  1  0.80143163  0.98545578  0.40760326  1
  O  O86  1  0.16299714  0.18400415  0.41383616  1
  O  O87  1  0.01782910  0.20386424  0.91282096  1
  O  O88  1  0.15978293  0.97979552  0.91384410  1
  O  O89  1  0.79915612  0.80891888  0.91249744  1
  O  O90  1  0.96413304  0.15435505  0.58623413  1
  O  O91  1  0.18045837  0.01648958  0.58697507  1
  O  O92  1  0.82258226  0.79700206  0.58723617  1
  O  O93  1  0.96059974  0.80710561  0.09051651  1
  O  O94  1  0.82164272  0.02244230  0.09121326  1
  O  O95  1  0.18624362  0.16743734  0.08916723  1
  O  O96  1  0.69280894  0.16851939  0.74887943  1
  O  O97  1  0.48917643  0.32064926  0.74164311  1
  O  O98  1  0.85542050  0.53643419  0.74550735  1
  O  O99  1  0.69426218  0.54546815  0.24993020  1
  O  O100  1  0.85643883  0.32446705  0.24683571  1
  O  O101  1  0.48845786  0.17374687  0.24320108  1
  O  O102  1  0.64055724  0.50627361  0.92208752  1
  O  O103  1  0.87203580  0.36701934  0.92359435  1
  O  O104  1  0.49765536  0.15068313  0.92289644  1
  O  O105  1  0.64397216  0.13329558  0.41847453  1
  O  O106  1  0.50102850  0.34603609  0.41912628  1
  O  O107  1  0.87463571  0.50718087  0.41873453  1
  O  O108  1  0.36379467  0.51576132  0.07335625  1
  O  O109  1  0.15075147  0.66520494  0.08361934  1
  O  O110  1  0.52242905  0.87206157  0.07863455  1
  O  O111  1  0.36443508  0.84881235  0.57103577  1
  O  O112  1  0.52097344  0.64983719  0.57722958  1
  O  O113  1  0.15276799  0.48462346  0.58225313  1
  O  O114  1  0.30557951  0.82202020  0.25643625  1
  O  O115  1  0.53439571  0.68964840  0.25613868  1
  O  O116  1  0.15916677  0.46375965  0.25588697  1
  O  O117  1  0.29738408  0.47763898  0.75867437  1
  O  O118  1  0.15737578  0.69122073  0.75597756  1
  O  O119  1  0.51883867  0.83753221  0.75492054  1
