# generated using pymatgen
data_Mg(BiO2)4
_symmetry_space_group_name_H-M   'P 1'
_cell_length_a   6.34383169
_cell_length_b   6.37627724
_cell_length_c   7.15281984
_cell_angle_alpha   57.56308257
_cell_angle_beta   57.15414310
_cell_angle_gamma   75.21379990
_symmetry_Int_Tables_number   1
_chemical_formula_structural   Mg(BiO2)4
_chemical_formula_sum   'Mg1 Bi4 O8'
_cell_volume   204.89256810
_cell_formula_units_Z   1
loop_
 _symmetry_equiv_pos_site_id
 _symmetry_equiv_pos_as_xyz
  1  'x, y, z'
loop_
 _atom_site_type_symbol
 _atom_site_label
 _atom_site_symmetry_multiplicity
 _atom_site_fract_x
 _atom_site_fract_y
 _atom_site_fract_z
 _atom_site_occupancy
  Mg  Mg0  1  0.62388720  0.12426482  0.63552475  1
  Bi  Bi1  1  0.04882519  0.11974907  0.91173324  1
  Bi  Bi2  1  0.19944935  0.13067875  0.35240799  1
  Bi  Bi3  1  0.62692844  0.62258040  0.13162949  1
  Bi  Bi4  1  0.62483249  0.62655527  0.63097336  1
  O  O5  1  0.36109947  0.26355275  0.49550801  1
  O  O6  1  0.44874583  0.81600026  0.38889081  1
  O  O7  1  0.38322983  0.29082503  0.87094108  1
  O  O8  1  0.83339337  0.46413577  0.38122128  1
  O  O9  1  0.41707708  0.78142440  0.88937334  1
  O  O10  1  0.80769121  0.43892717  0.86623020  1
  O  O11  1  0.86215893  0.96465227  0.39477809  1
  O  O12  1  0.88768160  0.98165404  0.77301036  1
