# generated using pymatgen
data_Tl2Te2O5
_symmetry_space_group_name_H-M   'P 1'
_cell_length_a   12.06456458
_cell_length_b   7.24779161
_cell_length_c   8.53308292
_cell_angle_alpha   65.30139125
_cell_angle_beta   90.00000000
_cell_angle_gamma   90.00000000
_symmetry_Int_Tables_number   1
_chemical_formula_structural   Tl2Te2O5
_chemical_formula_sum   'Tl8 Te8 O20'
_cell_volume   677.88653550
_cell_formula_units_Z   4
loop_
 _symmetry_equiv_pos_site_id
 _symmetry_equiv_pos_as_xyz
  1  'x, y, z'
loop_
 _atom_site_type_symbol
 _atom_site_label
 _atom_site_symmetry_multiplicity
 _atom_site_fract_x
 _atom_site_fract_y
 _atom_site_fract_z
 _atom_site_occupancy
  Tl  Tl0  1  0.55764417  0.21747697  0.01666694  1
  Tl  Tl1  1  0.05764417  0.78252303  0.48333306  1
  Tl  Tl2  1  0.44235583  0.78252303  0.98333306  1
  Tl  Tl3  1  0.94235583  0.21747697  0.51666694  1
  Tl  Tl4  1  0.71215444  0.51770811  0.21739443  1
  Tl  Tl5  1  0.21215444  0.48229189  0.28260557  1
  Tl  Tl6  1  0.28784556  0.48229189  0.78260557  1
  Tl  Tl7  1  0.78784556  0.51770811  0.71739443  1
  Te  Te8  1  0.70250741  0.93715794  0.79132704  1
  Te  Te9  1  0.20250741  0.06284206  0.70867296  1
  Te  Te10  1  0.29749259  0.06284206  0.20867296  1
  Te  Te11  1  0.79749259  0.93715794  0.29132704  1
  Te  Te12  1  0.47038168  0.20830062  0.51168885  1
  Te  Te13  1  0.97038168  0.79169938  0.98831115  1
  Te  Te14  1  0.52961832  0.79169938  0.48831115  1
  Te  Te15  1  0.02961832  0.20830062  0.01168885  1
  O  O16  1  0.65150198  0.87613276  0.01528220  1
  O  O17  1  0.15150198  0.12386724  0.48471780  1
  O  O18  1  0.34849802  0.12386724  0.98471780  1
  O  O19  1  0.84849802  0.87613276  0.51528220  1
  O  O20  1  0.62787138  0.72772957  0.75843941  1
  O  O21  1  0.12787138  0.27227043  0.74156059  1
  O  O22  1  0.37212862  0.27227043  0.24156059  1
  O  O23  1  0.87212862  0.72772957  0.25843941  1
  O  O24  1  0.40491247  0.94787930  0.56697504  1
  O  O25  1  0.90491247  0.05212070  0.93302496  1
  O  O26  1  0.59508753  0.05212070  0.43302496  1
  O  O27  1  0.09508753  0.94787930  0.06697504  1
  O  O28  1  0.32732875  0.27339504  0.60056551  1
  O  O29  1  0.82732875  0.72660496  0.89943449  1
  O  O30  1  0.67267125  0.72660496  0.39943449  1
  O  O31  1  0.17267125  0.27339504  0.10056551  1
  O  O32  1  0.95710850  0.11179733  0.23337426  1
  O  O33  1  0.45710850  0.88820267  0.26662574  1
  O  O34  1  0.04289150  0.88820267  0.76662574  1
  O  O35  1  0.54289150  0.11179733  0.73337426  1
