# generated using pymatgen
data_NaMgIn3(SO4)6
_symmetry_space_group_name_H-M   'P 1'
_cell_length_a   8.80836389
_cell_length_b   8.80836360
_cell_length_c   23.28975340
_cell_angle_alpha   90.00000000
_cell_angle_beta   90.00000000
_cell_angle_gamma   120.00000112
_symmetry_Int_Tables_number   1
_chemical_formula_structural   NaMgIn3(SO4)6
_chemical_formula_sum   'Na3 Mg3 In9 S18 O72'
_cell_volume   1564.89786649
_cell_formula_units_Z   3
loop_
 _symmetry_equiv_pos_site_id
 _symmetry_equiv_pos_as_xyz
  1  'x, y, z'
loop_
 _atom_site_type_symbol
 _atom_site_label
 _atom_site_symmetry_multiplicity
 _atom_site_fract_x
 _atom_site_fract_y
 _atom_site_fract_z
 _atom_site_occupancy
  Na  Na0  1  0.00000000  0.00000000  0.99619704  1
  Na  Na1  1  0.66666700  0.33333300  0.83760576  1
  Na  Na2  1  0.66666700  0.33333300  0.33310922  1
  Mg  Mg3  1  0.00000000  0.00000000  0.35402373  1
  Mg  Mg4  1  0.00000000  0.00000000  0.85152474  1
  Mg  Mg5  1  0.66666700  0.33333300  0.98203375  1
  In  In6  1  0.00000000  0.00000000  0.64965717  1
  In  In7  1  0.00000000  0.00000000  0.14966792  1
  In  In8  1  0.66666700  0.33333300  0.68531039  1
  In  In9  1  0.66666700  0.33333300  0.18364433  1
  In  In10  1  0.66666700  0.33333300  0.48277911  1
  In  In11  1  0.33333300  0.66666700  0.01738475  1
  In  In12  1  0.33333300  0.66666700  0.51657815  1
  In  In13  1  0.33333300  0.66666700  0.31394732  1
  In  In14  1  0.33333300  0.66666700  0.81589534  1
  S  S15  1  0.29302293  0.00292413  0.25203585  1
  S  S16  1  0.70990120  0.70697707  0.25203585  1
  S  S17  1  0.99707587  0.29009880  0.25203585  1
  S  S18  1  0.29286090  0.29100110  0.75218011  1
  S  S19  1  -0.00185980  0.70713910  0.75218011  1
  S  S20  1  0.70899890  0.00185980  0.75218011  1
  S  S21  1  0.96301799  0.33346517  0.58351507  1
  S  S22  1  0.37044818  0.03698201  0.58351507  1
  S  S23  1  0.66653483  0.62955182  0.58351507  1
  S  S24  1  0.95806124  0.62707709  0.08133939  1
  S  S25  1  0.66901686  0.04193876  0.08133939  1
  S  S26  1  0.37292291  0.33098314  0.08133939  1
  S  S27  1  0.63437446  0.66668802  0.91663194  1
  S  S28  1  0.03231257  0.36562554  0.91663194  1
  S  S29  1  0.33331198  0.96768743  0.91663194  1
  S  S30  1  0.63197179  0.96405396  0.41516509  1
  S  S31  1  0.33208117  0.36802821  0.41516509  1
  S  S32  1  0.03594604  0.66791883  0.41516509  1
  O  O33  1  0.20501192  0.02552482  0.30162364  1
  O  O34  1  0.82051289  0.79498808  0.30162364  1
  O  O35  1  0.97447518  0.17948711  0.30162364  1
  O  O36  1  0.20504567  0.18013248  0.80184467  1
  O  O37  1  0.97508681  0.79495433  0.80184467  1
  O  O38  1  0.81986752  0.02491319  0.80184467  1
  O  O39  1  0.78225220  0.97887585  0.69741967  1
  O  O40  1  0.19662365  0.21774780  0.69741967  1
  O  O41  1  0.02112415  0.80337635  0.69741967  1
  O  O42  1  0.78236427  0.80308728  0.19698733  1
  O  O43  1  0.02072301  0.21763573  0.19698733  1
  O  O44  1  0.19691272  0.97927699  0.19698733  1
  O  O45  1  0.88421034  0.36489329  0.63545865  1
  O  O46  1  0.48068395  0.11578966  0.63545865  1
  O  O47  1  0.63510671  0.51931605  0.63545865  1
  O  O48  1  0.88524651  0.53023382  0.13629126  1
  O  O49  1  0.64498831  0.11475349  0.13629126  1
  O  O50  1  0.46976618  0.35501169  0.13629126  1
  O  O51  1  0.46118037  0.30786684  0.03171576  1
  O  O52  1  0.84668747  0.53881963  0.03171576  1
  O  O53  1  0.69213316  0.15331253  0.03171576  1
  O  O54  1  0.44882565  0.14701902  0.53158437  1
  O  O55  1  0.69819437  0.55117435  0.53158437  1
  O  O56  1  0.85298098  0.30180563  0.53158437  1
  O  O57  1  0.55478548  0.69821078  0.96856395  1
  O  O58  1  0.14342431  0.44521452  0.96856395  1
  O  O59  1  0.30178922  0.85657569  0.96856395  1
  O  O60  1  0.55365773  0.86070346  0.46838945  1
  O  O61  1  0.30704473  0.44634227  0.46838945  1
  O  O62  1  0.13929654  0.69295527  0.46838945  1
  O  O63  1  0.11539536  0.62998052  0.36468954  1
  O  O64  1  0.51458416  0.88460464  0.36468954  1
  O  O65  1  0.37001948  0.48541584  0.36468954  1
  O  O66  1  0.11195890  0.47682181  0.86472380  1
  O  O67  1  0.36486191  0.88804110  0.86472380  1
  O  O68  1  0.52317819  0.63513809  0.86472380  1
  O  O69  1  0.01977923  0.82288604  0.40636594  1
  O  O70  1  0.80310681  0.98022077  0.40636594  1
  O  O71  1  0.17711396  0.19689319  0.40636594  1
  O  O72  1  0.01630316  0.19146907  0.90934735  1
  O  O73  1  0.17516591  0.98369684  0.90934735  1
  O  O74  1  0.80853093  0.82483409  0.90934735  1
  O  O75  1  0.97973189  0.17568762  0.59042414  1
  O  O76  1  0.19595574  0.02026811  0.59042414  1
  O  O77  1  0.82431238  0.80404426  0.59042414  1
  O  O78  1  0.97510877  0.80546756  0.08526539  1
  O  O79  1  0.83035879  0.02489123  0.08526539  1
  O  O80  1  0.19453244  0.16964121  0.08526539  1
  O  O81  1  0.69210100  0.16341614  0.74845821  1
  O  O82  1  0.47131614  0.30789900  0.74845821  1
  O  O83  1  0.83658386  0.52868386  0.74845821  1
  O  O84  1  0.69189714  0.52787248  0.24811813  1
  O  O85  1  0.83597634  0.30810286  0.24811813  1
  O  O86  1  0.47212752  0.16402366  0.24811813  1
  O  O87  1  0.65036092  0.50844426  0.92391917  1
  O  O88  1  0.85808434  0.34963908  0.92391917  1
  O  O89  1  0.49155574  0.14191566  0.92391917  1
  O  O90  1  0.64854127  0.14183196  0.42046535  1
  O  O91  1  0.49329169  0.35145873  0.42046535  1
  O  O92  1  0.85816804  0.50670831  0.42046535  1
  O  O93  1  0.35188138  0.48734316  0.07559161  1
  O  O94  1  0.13546078  0.64811862  0.07559161  1
  O  O95  1  0.51265684  0.86453922  0.07559161  1
  O  O96  1  0.35394516  0.86246076  0.57629961  1
  O  O97  1  0.50851461  0.64605484  0.57629961  1
  O  O98  1  0.13753924  0.49148539  0.57629961  1
  O  O99  1  0.31446060  0.84663033  0.25716284  1
  O  O100  1  0.53216874  0.68553940  0.25716284  1
  O  O101  1  0.15336967  0.46783126  0.25716284  1
  O  O102  1  0.31392061  0.46854004  0.75752515  1
  O  O103  1  0.15461843  0.68607939  0.75752515  1
  O  O104  1  0.53145996  0.84538157  0.75752515  1
