# generated using pymatgen
data_Na3MgNbSi(PO6)2
_symmetry_space_group_name_H-M   'P 1'
_cell_length_a   9.00712913
_cell_length_b   9.04136674
_cell_length_c   22.13136136
_cell_angle_alpha   89.82870896
_cell_angle_beta   90.00000000
_cell_angle_gamma   119.87481343
_symmetry_Int_Tables_number   1
_chemical_formula_structural   Na3MgNbSi(PO6)2
_chemical_formula_sum   'Na18 Mg6 Nb6 Si6 P12 O72'
_cell_volume   1562.79898300
_cell_formula_units_Z   6
loop_
 _symmetry_equiv_pos_site_id
 _symmetry_equiv_pos_as_xyz
  1  'x, y, z'
loop_
 _atom_site_type_symbol
 _atom_site_label
 _atom_site_symmetry_multiplicity
 _atom_site_fract_x
 _atom_site_fract_y
 _atom_site_fract_z
 _atom_site_occupancy
  Na  Na0  1  0.99701401  0.00720157  0.49029603  1
  Na  Na1  1  0.01018756  0.00720157  0.99029603  1
  Na  Na2  1  0.67106589  0.32745914  0.82430447  1
  Na  Na3  1  0.65639425  0.32745914  0.32430447  1
  Na  Na4  1  0.34808539  0.65490322  0.15714386  1
  Na  Na5  1  0.30681683  0.65490322  0.65714386  1
  Na  Na6  1  0.65172085  0.01805837  0.24461060  1
  Na  Na7  1  0.98909316  0.62387905  0.24033575  1
  Na  Na8  1  0.63478588  0.62387905  0.74033575  1
  Na  Na9  1  0.36633752  0.01805837  0.74461060  1
  Na  Na10  1  0.31548125  0.35271219  0.58101708  1
  Na  Na11  1  0.64684724  0.95404448  0.57432216  1
  Na  Na12  1  0.30719825  0.95404448  0.07432216  1
  Na  Na13  1  0.03723194  0.35271219  0.08101708  1
  Na  Na14  1  0.97954039  0.68407243  0.91435966  1
  Na  Na15  1  0.70185020  0.02235320  0.90828726  1
  Na  Na16  1  0.32050200  0.02235320  0.40828726  1
  Na  Na17  1  0.70453104  0.68407243  0.41435966  1
  Mg  Mg18  1  0.00212957  0.00774760  0.35223124  1
  Mg  Mg19  1  0.00561803  0.00774760  0.85223124  1
  Mg  Mg20  1  0.67264551  0.33250339  0.68561609  1
  Mg  Mg21  1  0.65985888  0.33250339  0.18561609  1
  Mg  Mg22  1  0.33359793  0.66806522  0.01878216  1
  Mg  Mg23  1  0.33446629  0.66806522  0.51878216  1
  Nb  Nb24  1  0.99353932  0.99606013  0.64674812  1
  Nb  Nb25  1  0.00252081  0.99606013  0.14674812  1
  Nb  Nb26  1  0.66243304  0.33613441  0.97981516  1
  Nb  Nb27  1  0.67370237  0.33613441  0.47981516  1
  Nb  Nb28  1  0.33226397  0.66734051  0.31323137  1
  Nb  Nb29  1  0.33507554  0.66734051  0.81323137  1
  Si  Si30  1  0.29845325  0.00431799  0.25579237  1
  Si  Si31  1  0.70586474  0.00431799  0.75579237  1
  Si  Si32  1  0.66542337  0.62526976  0.58769560  1
  Si  Si33  1  0.95984739  0.62526976  0.08769560  1
  Si  Si34  1  0.33190467  0.96516209  0.92047287  1
  Si  Si35  1  0.63325642  0.96516209  0.42047287  1
  P  P36  1  0.70725796  0.70684766  0.25394885  1
  P  P37  1  0.00455256  0.29220642  0.25012638  1
  P  P38  1  0.28765385  0.29220642  0.75012638  1
  P  P39  1  0.99958969  0.70684766  0.75394885  1
  P  P40  1  0.95879579  0.33345208  0.58621431  1
  P  P41  1  0.37097230  0.04177442  0.58552045  1
  P  P42  1  0.67080313  0.04177442  0.08552045  1
  P  P43  1  0.37465729  0.33345208  0.08621431  1
  P  P44  1  0.62020696  0.66240271  0.91812817  1
  P  P45  1  0.04080369  0.37452287  0.92161747  1
  P  P46  1  0.33371819  0.37452287  0.42161747  1
  P  P47  1  0.04219475  0.66240271  0.41812817  1
  O  O48  1  0.20415885  0.00871328  0.31555341  1
  O  O49  1  0.80578449  0.78918182  0.31129884  1
  O  O50  1  0.97636003  0.17439444  0.30242600  1
  O  O51  1  0.19803441  0.17439444  0.80242600  1
  O  O52  1  0.98339733  0.78918182  0.81129884  1
  O  O53  1  0.80455444  0.00871328  0.81555341  1
  O  O54  1  0.81219507  0.97975381  0.69570624  1
  O  O55  1  0.18503772  0.20782998  0.68940284  1
  O  O56  1  0.02917338  0.83376550  0.69833235  1
  O  O57  1  0.80459212  0.83376550  0.19833235  1
  O  O58  1  0.02279227  0.20782998  0.18940284  1
  O  O59  1  0.16755874  0.97975381  0.19570624  1
  O  O60  1  0.87069222  0.34405428  0.64175642  1
  O  O61  1  0.47524513  0.12371742  0.64201969  1
  O  O62  1  0.64531999  0.51445996  0.64598074  1
  O  O63  1  0.86914097  0.51445996  0.14598074  1
  O  O64  1  0.64847329  0.12371742  0.14201969  1
  O  O65  1  0.47336306  0.34405428  0.14175642  1
  O  O66  1  0.46576398  0.30662123  0.02829087  1
  O  O67  1  0.83689495  0.52494651  0.02644702  1
  O  O68  1  0.68954228  0.16113172  0.02863500  1
  O  O69  1  0.47159044  0.16113172  0.52863500  1
  O  O70  1  0.68805256  0.52494651  0.52644702  1
  O  O71  1  0.84085825  0.30662123  0.52829087  1
  O  O72  1  0.52538505  0.68005648  0.97078516  1
  O  O73  1  0.13153371  0.45486035  0.98020322  1
  O  O74  1  0.31285647  0.85487618  0.97921609  1
  O  O75  1  0.54201870  0.85487618  0.47921609  1
  O  O76  1  0.32332564  0.45486035  0.48020322  1
  O  O77  1  0.15467043  0.68005648  0.47078516  1
  O  O78  1  0.12477148  0.64010854  0.35758237  1
  O  O79  1  0.49671896  0.85620853  0.36062780  1
  O  O80  1  0.35147280  0.49495751  0.36637548  1
  O  O81  1  0.14348371  0.49495751  0.86637548  1
  O  O82  1  0.35948857  0.85620853  0.86062780  1
  O  O83  1  0.51533607  0.64010854  0.85758237  1
  O  O84  1  0.01047853  0.81334849  0.41377105  1
  O  O85  1  0.81773184  0.98508052  0.41062216  1
  O  O86  1  0.18896240  0.19203016  0.41420512  1
  O  O87  1  0.00306776  0.19203016  0.91420512  1
  O  O88  1  0.16734868  0.98508052  0.91062216  1
  O  O89  1  0.80286995  0.81334849  0.91377105  1
  O  O90  1  0.96565551  0.16005112  0.58633073  1
  O  O91  1  0.19740727  0.04447014  0.58604066  1
  O  O92  1  0.84541486  0.81948476  0.58950860  1
  O  O93  1  0.97406990  0.81948476  0.08950860  1
  O  O94  1  0.84706287  0.04447014  0.08604066  1
  O  O95  1  0.19439560  0.16005112  0.08633073  1
  O  O96  1  0.66136165  0.15320234  0.74670493  1
  O  O97  1  0.47140471  0.32423661  0.74549121  1
  O  O98  1  0.84537716  0.53173186  0.74483834  1
  O  O99  1  0.68635569  0.53173186  0.24483834  1
  O  O100  1  0.85283290  0.32423661  0.24549121  1
  O  O101  1  0.49184169  0.15320234  0.24670493  1
  O  O102  1  0.63621140  0.49555258  0.92130016  1
  O  O103  1  0.86225477  0.37314904  0.91953881  1
  O  O104  1  0.51832653  0.14866505  0.92080293  1
  O  O105  1  0.63033952  0.14866505  0.42080293  1
  O  O106  1  0.51089527  0.37314904  0.41953881  1
  O  O107  1  0.85934218  0.49555258  0.42130016  1
  O  O108  1  0.34023510  0.48025228  0.07747516  1
  O  O109  1  0.15304360  0.65768447  0.08172882  1
  O  O110  1  0.52112374  0.86213600  0.07744341  1
  O  O111  1  0.34101126  0.86213600  0.57744341  1
  O  O112  1  0.50463987  0.65768447  0.58172882  1
  O  O113  1  0.14001619  0.48025228  0.57747516  1
  O  O114  1  0.29870625  0.81456065  0.25394613  1
  O  O115  1  0.52846099  0.70011912  0.25423007  1
  O  O116  1  0.17352584  0.47081638  0.25476468  1
  O  O117  1  0.29728953  0.47081638  0.75476468  1
  O  O118  1  0.17165713  0.70011912  0.75423007  1
  O  O119  1  0.51585340  0.81456065  0.75394613  1
