# generated using pymatgen
data_NaHf2Zn2PS5O24
_symmetry_space_group_name_H-M   'P 1'
_cell_length_a   8.80232928
_cell_length_b   8.80088312
_cell_length_c   22.78745302
_cell_angle_alpha   90.08394212
_cell_angle_beta   89.87862054
_cell_angle_gamma   120.07475691
_symmetry_Int_Tables_number   1
_chemical_formula_structural   NaHf2Zn2PS5O24
_chemical_formula_sum   'Na3 Hf6 Zn6 P3 S15 O72'
_cell_volume   1527.64208099
_cell_formula_units_Z   3
loop_
 _symmetry_equiv_pos_site_id
 _symmetry_equiv_pos_as_xyz
  1  'x, y, z'
loop_
 _atom_site_type_symbol
 _atom_site_label
 _atom_site_symmetry_multiplicity
 _atom_site_fract_x
 _atom_site_fract_y
 _atom_site_fract_z
 _atom_site_occupancy
  Na  Na0  1  0.66980771  0.33339038  0.82833615  1
  Na  Na1  1  0.66236965  0.33407525  0.33270795  1
  Na  Na2  1  0.33662151  0.66975648  0.16285308  1
  Hf  Hf3  1  0.00200627  0.99399944  0.35558185  1
  Hf  Hf4  1  0.99915670  -0.00000631  0.64238418  1
  Hf  Hf5  1  0.99871357  0.99327326  0.14410476  1
  Hf  Hf6  1  0.67114172  0.33302710  0.97765588  1
  Hf  Hf7  1  0.33907646  0.67243413  0.31340628  1
  Hf  Hf8  1  0.32577498  0.66116273  0.81096024  1
  Zn  Zn9  1  0.00012713  0.00819797  0.85438775  1
  Zn  Zn10  1  0.66666010  0.33288371  0.68021181  1
  Zn  Zn11  1  0.65721394  0.33364044  0.18654301  1
  Zn  Zn12  1  0.66641618  0.33336810  0.48849932  1
  Zn  Zn13  1  0.32797213  0.65896297  0.01338606  1
  Zn  Zn14  1  0.33339507  0.66609113  0.52535405  1
  P  P15  1  0.29459746  0.00449784  0.24946330  1
  P  P16  1  0.71098321  0.70534188  0.24957723  1
  P  P17  1  0.04714190  0.37242963  0.91740569  1
  S  S18  1  0.99726107  0.28890779  0.25001714  1
  S  S19  1  0.29337151  0.28625401  0.75061388  1
  S  S20  1  0.99381460  0.70916780  0.75114561  1
  S  S21  1  0.71180540  0.00467981  0.75085947  1
  S  S22  1  0.95768710  0.33817987  0.58293159  1
  S  S23  1  0.38020681  0.04203758  0.58295444  1
  S  S24  1  0.66163543  0.61934308  0.58298332  1
  S  S25  1  0.95941282  0.61904166  0.08470601  1
  S  S26  1  0.66113164  0.04005360  0.08466158  1
  S  S27  1  0.37824169  0.33901509  0.08418285  1
  S  S28  1  0.62590187  0.67182396  0.91708958  1
  S  S29  1  0.32777955  0.95370079  0.91718638  1
  S  S30  1  0.62347657  0.96115501  0.41872913  1
  S  S31  1  0.33705018  0.37840303  0.41813600  1
  S  S32  1  0.04065821  0.66028880  0.41851187  1
  O  O33  1  0.20153868  0.02597323  0.30415315  1
  O  O34  1  0.82338733  0.80091946  0.30425300  1
  O  O35  1  0.97557770  0.18160810  0.30290802  1
  O  O36  1  0.21389911  0.18072801  0.80299335  1
  O  O37  1  0.96977141  0.78998722  0.80373861  1
  O  O38  1  0.81792161  0.03054450  0.80304654  1
  O  O39  1  0.79262338  0.97328460  0.69775650  1
  O  O40  1  0.18083941  0.20712470  0.69776558  1
  O  O41  1  0.02584316  0.82031119  0.69798249  1
  O  O42  1  0.79571360  0.82610671  0.19537940  1
  O  O43  1  0.02931709  0.20944289  0.19724475  1
  O  O44  1  0.17486528  0.97243309  0.19536273  1
  O  O45  1  0.87975344  0.36492999  0.63614459  1
  O  O46  1  0.48490061  0.12016833  0.63606107  1
  O  O47  1  0.63498452  0.51474228  0.63610211  1
  O  O48  1  0.87771885  0.51308184  0.13700228  1
  O  O49  1  0.63655358  0.12200686  0.13698510  1
  O  O50  1  0.48425623  0.36452895  0.13655366  1
  O  O51  1  0.45889910  0.30688465  0.03127849  1
  O  O52  1  0.84698582  0.53942607  0.03156778  1
  O  O53  1  0.69231132  0.15276180  0.03141102  1
  O  O54  1  0.44919569  0.15178169  0.53013622  1
  O  O55  1  0.70280480  0.55076668  0.53010386  1
  O  O56  1  0.84798126  0.29709677  0.53017290  1
  O  O57  1  0.54777344  0.69631081  0.97016792  1
  O  O58  1  0.15181993  0.45666740  0.97227355  1
  O  O59  1  0.30806481  0.85345193  0.97033153  1
  O  O60  1  0.54588096  0.84936203  0.46924660  1
  O  O61  1  0.30392405  0.45527262  0.46920749  1
  O  O62  1  0.15124526  0.69532827  0.46934571  1
  O  O63  1  0.12679375  0.63894569  0.36384932  1
  O  O64  1  0.51294389  0.87400988  0.36410495  1
  O  O65  1  0.35972672  0.48803831  0.36373535  1
  O  O66  1  0.13086131  0.49644127  0.86269023  1
  O  O67  1  0.36727547  0.87649436  0.86431449  1
  O  O68  1  0.51016584  0.63549358  0.86436347  1
  O  O69  1  0.02439593  0.82071602  0.40793355  1
  O  O70  1  0.79852463  0.97797603  0.40659448  1
  O  O71  1  0.17699923  0.20321889  0.40664194  1
  O  O72  1  0.01959789  0.19270910  0.90680696  1
  O  O73  1  0.17848020  0.97635937  0.90763329  1
  O  O74  1  0.80011408  0.81844016  0.90753818  1
  O  O75  1  0.97577591  0.17664011  0.59309231  1
  O  O76  1  0.20063285  0.02400106  0.59326721  1
  O  O77  1  0.82346031  0.79912476  0.59310113  1
  O  O78  1  0.97180591  0.79557004  0.09053744  1
  O  O79  1  0.82448676  0.02816592  0.09133508  1
  O  O80  1  0.20152555  0.17722332  0.09162915  1
  O  O81  1  0.68782165  0.15710715  0.74286622  1
  O  O82  1  0.47041871  0.31233758  0.74261192  1
  O  O83  1  0.84314432  0.53168983  0.74328349  1
  O  O84  1  0.69392971  0.52713032  0.24439943  1
  O  O85  1  0.84388433  0.30838753  0.24419525  1
  O  O86  1  0.47541504  0.16262796  0.24447646  1
  O  O87  1  0.63749835  0.50471138  0.92385417  1
  O  O88  1  0.86023669  0.35981054  0.92421079  1
  O  O89  1  0.49302469  0.13447472  0.92358488  1
  O  O90  1  0.64232650  0.13601001  0.42168402  1
  O  O91  1  0.49212120  0.35762313  0.42125534  1
  O  O92  1  0.86417543  0.50611690  0.42162280  1
  O  O93  1  0.35606256  0.49223790  0.07725742  1
  O  O94  1  0.13630704  0.64649273  0.07727400  1
  O  O95  1  0.50928841  0.86423025  0.07625273  1
  O  O96  1  0.35428529  0.86614288  0.57485859  1
  O  O97  1  0.51191564  0.64546282  0.57503292  1
  O  O98  1  0.13370069  0.48818762  0.57496927  1
  O  O99  1  0.30389769  0.83306992  0.25744058  1
  O  O100  1  0.52778395  0.69116822  0.25736290  1
  O  O101  1  0.15941877  0.46475852  0.25706544  1
  O  O102  1  0.30845428  0.46398536  0.75795892  1
  O  O103  1  0.15779358  0.69598081  0.75782801  1
  O  O104  1  0.53523463  0.84241036  0.75861550  1
