# generated using pymatgen
data_Na3HfZrSi2PO12
_symmetry_space_group_name_H-M   'P 1'
_cell_length_a   9.16555228
_cell_length_b   9.16576331
_cell_length_c   22.50693104
_cell_angle_alpha   89.77014791
_cell_angle_beta   90.22354458
_cell_angle_gamma   119.84330073
_symmetry_Int_Tables_number   1
_chemical_formula_structural   Na3HfZrSi2PO12
_chemical_formula_sum   'Na18 Hf6 Zr6 Si12 P6 O72'
_cell_volume   1640.03545571
_cell_formula_units_Z   6
loop_
 _symmetry_equiv_pos_site_id
 _symmetry_equiv_pos_as_xyz
  1  'x, y, z'
loop_
 _atom_site_type_symbol
 _atom_site_label
 _atom_site_symmetry_multiplicity
 _atom_site_fract_x
 _atom_site_fract_y
 _atom_site_fract_z
 _atom_site_occupancy
  Na  Na0  1  0.99758913  0.98392119  0.50129155  1
  Na  Na1  1  0.01708104  0.00296162  0.00117715  1
  Na  Na2  1  0.66431455  0.31569735  0.83505237  1
  Na  Na3  1  0.68148411  0.33593471  0.33348914  1
  Na  Na4  1  0.33054588  0.64946501  0.16742544  1
  Na  Na5  1  0.35111041  0.66906783  0.66860258  1
  Na  Na6  1  0.64301974  0.00087082  0.25102403  1
  Na  Na7  1  0.99482536  0.63312588  0.25413132  1
  Na  Na8  1  0.99888009  0.35852492  0.75236562  1
  Na  Na9  1  0.36915110  0.00407099  0.75557901  1
  Na  Na10  1  0.30635164  0.33423668  0.58482568  1
  Na  Na11  1  0.66239914  0.96490616  0.58788410  1
  Na  Na12  1  0.66626326  0.69418794  0.08441531  1
  Na  Na13  1  0.03555865  0.33736771  0.08672538  1
  Na  Na14  1  0.97507640  0.66745910  0.91852455  1
  Na  Na15  1  0.32859881  0.29774141  0.92126411  1
  Na  Na16  1  0.33168408  0.02723836  0.41757720  1
  Na  Na17  1  0.70263211  0.67167892  0.42072502  1
  Hf  Hf18  1  0.99700059  0.00512351  0.85448578  1
  Hf  Hf19  1  0.66373873  0.33804684  0.18554068  1
  Hf  Hf20  1  0.66183436  0.32601527  0.97951914  1
  Hf  Hf21  1  0.32787248  0.66917538  0.01998232  1
  Hf  Hf22  1  0.32862792  0.65881764  0.31287938  1
  Hf  Hf23  1  0.34064341  0.67108785  0.81436433  1
  Zr  Zr24  1  0.99420936  0.00300126  0.35246859  1
  Zr  Zr25  1  0.99534498  0.99139485  0.64783927  1
  Zr  Zr26  1  0.00841572  0.00454373  0.14634450  1
  Zr  Zr27  1  0.66123149  0.33703098  0.68775268  1
  Zr  Zr28  1  0.67551103  0.33802682  0.47966837  1
  Zr  Zr29  1  0.32956156  0.67222413  0.52011838  1
  Si  Si30  1  0.70212044  0.70390172  0.24863902  1
  Si  Si31  1  0.00090427  0.29924428  0.24513837  1
  Si  Si32  1  0.29243314  0.29615831  0.75081989  1
  Si  Si33  1  0.70210224  0.99641000  0.74751012  1
  Si  Si34  1  0.37040102  0.03996522  0.58299362  1
  Si  Si35  1  0.66855039  0.63147018  0.57931669  1
  Si  Si36  1  0.95945307  0.62710096  0.08196500  1
  Si  Si37  1  0.37118711  0.33368259  0.07894774  1
  Si  Si38  1  0.03805697  0.37351324  0.91658441  1
  Si  Si39  1  0.33457061  0.96332358  0.91345397  1
  Si  Si40  1  0.62600347  0.96182187  0.41543428  1
  Si  Si41  1  0.03628873  0.66582496  0.41185369  1
  P  P42  1  0.29767712  0.00132172  0.25310840  1
  P  P43  1  0.00071983  0.70545103  0.75524752  1
  P  P44  1  0.96214097  0.33419168  0.58758908  1
  P  P45  1  0.66379124  0.03943309  0.08567229  1
  P  P46  1  0.62755205  0.66808405  0.92019047  1
  P  P47  1  0.33193525  0.37247095  0.41943524  1
  O  O48  1  0.22111567  0.01984961  0.31123753  1
  O  O49  1  0.82386450  0.79502249  0.30671087  1
  O  O50  1  0.98519216  0.17466265  0.30012688  1
  O  O51  1  0.19843487  0.17449925  0.80849357  1
  O  O52  1  0.98497346  0.78640992  0.81289337  1
  O  O53  1  0.82590785  0.00921902  0.80223728  1
  O  O54  1  0.78636518  0.98162272  0.68539742  1
  O  O55  1  0.17767037  0.20210339  0.69190143  1
  O  O56  1  0.01517157  0.81973664  0.70193975  1
  O  O57  1  0.79735754  0.82278230  0.19057179  1
  O  O58  1  0.01835879  0.21400414  0.18377992  1
  O  O59  1  0.17940327  0.98359228  0.20050857  1
  O  O60  1  0.88308159  0.34895985  0.64582211  1
  O  O61  1  0.48912414  0.13299007  0.64141353  1
  O  O62  1  0.65886441  0.51068995  0.63479330  1
  O  O63  1  0.86736999  0.50725716  0.14020704  1
  O  O64  1  0.64836590  0.11889268  0.14365433  1
  O  O65  1  0.49238170  0.34531292  0.13430999  1
  O  O66  1  0.45785430  0.31867299  0.01769163  1
  O  O67  1  0.84257091  0.53158002  0.02375851  1
  O  O68  1  0.67701818  0.15490555  0.03297784  1
  O  O69  1  0.46690071  0.15457466  0.52427996  1
  O  O70  1  0.68240839  0.54548990  0.51754050  1
  O  O71  1  0.84763150  0.32236050  0.53452454  1
  O  O72  1  0.54839421  0.68528613  0.97815967  1
  O  O73  1  0.15933012  0.46503935  0.97469398  1
  O  O74  1  0.31976355  0.83964831  0.96854352  1
  O  O75  1  0.53543950  0.84531272  0.47447388  1
  O  O76  1  0.31711528  0.45031437  0.47783453  1
  O  O77  1  0.15574543  0.67624855  0.46775452  1
  O  O78  1  0.12503711  0.65321992  0.35071684  1
  O  O79  1  0.50991915  0.86268984  0.35747946  1
  O  O80  1  0.34206540  0.48738222  0.36676349  1
  O  O81  1  0.13394534  0.49160737  0.85862540  1
  O  O82  1  0.35057453  0.87683754  0.85228696  1
  O  O83  1  0.51127724  0.65278584  0.86753163  1
  O  O84  1  0.02743007  0.84094541  0.41413289  1
  O  O85  1  0.81128996  0.97636706  0.41241419  1
  O  O86  1  0.18164393  0.19223856  0.41337239  1
  O  O87  1  0.02302047  0.18790074  0.91268096  1
  O  O88  1  0.15945081  0.97344851  0.91448478  1
  O  O89  1  0.80740976  0.81937514  0.91357172  1
  O  O90  1  0.97258504  0.16975912  0.58542099  1
  O  O91  1  0.18793003  0.03014716  0.58644029  1
  O  O92  1  0.82872739  0.82240081  0.58343493  1
  O  O93  1  0.97051598  0.81049250  0.08615322  1
  O  O94  1  0.82721214  0.02665054  0.08440910  1
  O  O95  1  0.17964678  0.17322915  0.08303086  1
  O  O96  1  0.69337590  0.17197158  0.74903288  1
  O  O97  1  0.47743656  0.30991328  0.74783979  1
  O  O98  1  0.84955349  0.52585748  0.74940228  1
  O  O99  1  0.68839331  0.51934694  0.24434938  1
  O  O100  1  0.82552331  0.30773092  0.24618902  1
  O  O101  1  0.47678308  0.15265592  0.24538765  1
  O  O102  1  0.64097688  0.50491386  0.91937096  1
  O  O103  1  0.85443033  0.36156113  0.92100802  1
  O  O104  1  0.49480487  0.15473646  0.91796289  1
  O  O105  1  0.63634319  0.14475591  0.41840092  1
  O  O106  1  0.49656520  0.36203371  0.41706142  1
  O  O107  1  0.84520343  0.50537508  0.41559796  1
  O  O108  1  0.36217084  0.50932208  0.08044433  1
  O  O109  1  0.14507849  0.64175381  0.07855743  1
  O  O110  1  0.51210474  0.85932908  0.07944076  1
  O  O111  1  0.35668952  0.85517630  0.58060771  1
  O  O112  1  0.49269246  0.63871203  0.58174478  1
  O  O113  1  0.14173423  0.48465657  0.58179944  1
  O  O114  1  0.31135880  0.83838110  0.25226339  1
  O  O115  1  0.51911765  0.69265963  0.25351087  1
  O  O116  1  0.16125725  0.48984119  0.25050544  1
  O  O117  1  0.30408362  0.47941948  0.75527171  1
  O  O118  1  0.16416485  0.69277420  0.75406729  1
  O  O119  1  0.51085675  0.83629054  0.75205902  1
