# generated using pymatgen
data_Na2NbAlSi(PO6)2
_symmetry_space_group_name_H-M   'P 1'
_cell_length_a   8.74662209
_cell_length_b   8.74662181
_cell_length_c   22.22933171
_cell_angle_alpha   89.74510518
_cell_angle_beta   90.25489482
_cell_angle_gamma   119.82361433
_symmetry_Int_Tables_number   1
_chemical_formula_structural   Na2NbAlSi(PO6)2
_chemical_formula_sum   'Na12 Nb6 Al6 Si6 P12 O72'
_cell_volume   1475.37076682
_cell_formula_units_Z   6
loop_
 _symmetry_equiv_pos_site_id
 _symmetry_equiv_pos_as_xyz
  1  'x, y, z'
loop_
 _atom_site_type_symbol
 _atom_site_label
 _atom_site_symmetry_multiplicity
 _atom_site_fract_x
 _atom_site_fract_y
 _atom_site_fract_z
 _atom_site_occupancy
  Na  Na0  1  0.99374303  0.62970375  0.24651232  1
  Na  Na1  1  0.37029625  0.00625697  0.74651232  1
  Na  Na2  1  0.66063649  0.96528275  0.58297487  1
  Na  Na3  1  0.03471725  0.33936351  0.08297487  1
  Na  Na4  1  0.97335626  0.67245019  0.91632862  1
  Na  Na5  1  0.32754981  0.02664374  0.41632862  1
  Na  Na6  1  0.00037419  0.99687247  0.49459357  1
  Na  Na7  1  0.00312753  0.99962581  0.99459357  1
  Na  Na8  1  0.66875584  0.33018541  0.82793008  1
  Na  Na9  1  0.66981459  0.33124416  0.32793008  1
  Na  Na10  1  0.34949961  0.67669080  0.16101793  1
  Na  Na11  1  0.32330920  0.65050039  0.66101793  1
  Nb  Nb12  1  0.00262080  -0.00016547  0.64536767  1
  Nb  Nb13  1  0.00016547  0.99737920  0.14536767  1
  Nb  Nb14  1  0.66157504  0.33037054  0.97843916  1
  Nb  Nb15  1  0.66962946  0.33842496  0.47843916  1
  Nb  Nb16  1  0.32720323  0.65861564  0.31160030  1
  Nb  Nb17  1  0.34138436  0.67279678  0.81160030  1
  Al  Al18  1  0.99138668  0.99725714  0.35379854  1
  Al  Al19  1  0.00274286  0.00861332  0.85379854  1
  Al  Al20  1  0.66998526  0.32992056  0.68622659  1
  Al  Al21  1  0.67007944  0.33001474  0.18622659  1
  Al  Al22  1  0.33053518  0.67437902  0.01988175  1
  Al  Al23  1  0.32562098  0.66946482  0.51988175  1
  Si  Si24  1  0.98482066  0.27604612  0.25231036  1
  Si  Si25  1  0.72395388  0.01517934  0.75231036  1
  Si  Si26  1  0.37956275  0.03815724  0.58482723  1
  Si  Si27  1  0.96184276  0.62043725  0.08482723  1
  Si  Si28  1  0.32342410  0.95458910  0.91787377  1
  Si  Si29  1  0.04541090  0.67657590  0.41787377  1
  P  P30  1  0.29820370  0.01490045  0.25276617  1
  P  P31  1  0.71376043  0.70900643  0.25200288  1
  P  P32  1  0.29099357  0.28623957  0.75200288  1
  P  P33  1  0.98509955  0.70179630  0.75276617  1
  P  P34  1  0.96216317  0.34654856  0.58555007  1
  P  P35  1  0.65614535  0.61226248  0.58623446  1
  P  P36  1  0.65345144  0.03783683  0.08555007  1
  P  P37  1  0.38773752  0.34385465  0.08623446  1
  P  P38  1  0.62230287  0.67657136  0.92023940  1
  P  P39  1  0.05232213  0.37279688  0.91916382  1
  P  P40  1  0.62720312  0.94767787  0.41916382  1
  P  P41  1  0.32342864  0.37769713  0.42023940  1
  O  O42  1  0.21048655  0.03197950  0.30939073  1
  O  O43  1  0.83529585  0.79476093  0.30581515  1
  O  O44  1  0.97060579  0.15785706  0.30882271  1
  O  O45  1  0.20523907  0.16470415  0.80581515  1
  O  O46  1  0.96802050  0.78951345  0.80939073  1
  O  O47  1  0.84214294  0.02939421  0.80882271  1
  O  O48  1  0.79947697  0.97405306  0.68950114  1
  O  O49  1  0.17364417  0.19971836  0.69453091  1
  O  O50  1  0.03072877  0.82935758  0.69685227  1
  O  O51  1  0.80028164  0.82635583  0.19453091  1
  O  O52  1  0.02594694  0.20052303  0.18950114  1
  O  O53  1  0.17064242  0.96927123  0.19685227  1
  O  O54  1  0.87258713  0.36831483  0.64051330  1
  O  O55  1  0.50320916  0.13362238  0.64274428  1
  O  O56  1  0.63881223  0.50067227  0.64064588  1
  O  O57  1  0.86637762  0.49679084  0.14274428  1
  O  O58  1  0.63168517  0.12741287  0.14051330  1
  O  O59  1  0.49932773  0.36118777  0.14064588  1
  O  O60  1  0.46567820  0.30542006  0.02835778  1
  O  O61  1  0.83954689  0.53335998  0.02342267  1
  O  O62  1  0.69385027  0.16020560  0.02884792  1
  O  O63  1  0.46664002  0.16045311  0.52342267  1
  O  O64  1  0.69457994  0.53432180  0.52835778  1
  O  O65  1  0.83979440  0.30614973  0.52884792  1
  O  O66  1  0.52714225  0.69270533  0.97431118  1
  O  O67  1  0.15787978  0.45694661  0.97651184  1
  O  O68  1  0.29041186  0.82310997  0.97304145  1
  O  O69  1  0.54305339  0.84212022  0.47651184  1
  O  O70  1  0.30729467  0.47285775  0.47431118  1
  O  O71  1  0.17689003  0.70958814  0.47304145  1
  O  O72  1  0.13159172  0.63946706  0.35606508  1
  O  O73  1  0.50371675  0.86504471  0.36360973  1
  O  O74  1  0.35969034  0.49227330  0.36188048  1
  O  O75  1  0.13495529  0.49628325  0.86360973  1
  O  O76  1  0.36053294  0.86840828  0.85606508  1
  O  O77  1  0.50772670  0.64030966  0.86188048  1
  O  O78  1  0.02951735  0.85108603  0.40716805  1
  O  O79  1  0.80994883  0.97165646  0.41019487  1
  O  O80  1  0.16667878  0.19223104  0.41204317  1
  O  O81  1  0.02834354  0.19005117  0.91019487  1
  O  O82  1  0.14891397  0.97048265  0.90716805  1
  O  O83  1  0.80776896  0.83332122  0.91204317  1
  O  O84  1  0.97031168  0.17051687  0.58899797  1
  O  O85  1  0.18272275  0.02017632  0.58879678  1
  O  O86  1  0.82410994  0.80227717  0.58977628  1
  O  O87  1  0.97982368  0.81727725  0.08879678  1
  O  O88  1  0.82948313  0.02968832  0.08899797  1
  O  O89  1  0.19772283  0.17589006  0.08977628  1
  O  O90  1  0.68635319  0.17759833  0.74412794  1
  O  O91  1  0.47369261  0.30738137  0.74253762  1
  O  O92  1  0.82499869  0.52300190  0.74142084  1
  O  O93  1  0.69261863  0.52630739  0.24253762  1
  O  O94  1  0.82240167  0.31364681  0.24412794  1
  O  O95  1  0.47699810  0.17500131  0.24142084  1
  O  O96  1  0.64337095  0.50749357  0.92276079  1
  O  O97  1  0.86603999  0.36164859  0.92280756  1
  O  O98  1  0.50329064  0.14884358  0.92205177  1
  O  O99  1  0.63835141  0.13396001  0.42280756  1
  O  O100  1  0.49250643  0.35662905  0.42276079  1
  O  O101  1  0.85115642  0.49670936  0.42205177  1
  O  O102  1  0.36180090  0.50242669  0.07674853  1
  O  O103  1  0.15269790  0.63447560  0.07664353  1
  O  O104  1  0.49783202  0.85488392  0.07560305  1
  O  O105  1  0.36552440  0.84730210  0.57664353  1
  O  O106  1  0.49757331  0.63819910  0.57674853  1
  O  O107  1  0.14511608  0.50216798  0.57560305  1
  O  O108  1  0.31171618  0.84173350  0.25577139  1
  O  O109  1  0.53243964  0.69814957  0.25628885  1
  O  O110  1  0.16741016  0.47947312  0.25575695  1
  O  O111  1  0.30185043  0.46756036  0.75628885  1
  O  O112  1  0.15826650  0.68828382  0.75577139  1
  O  O113  1  0.52052688  0.83258984  0.75575695  1
