# generated using pymatgen
data_Na12Mg4Ta2Si6(SO12)3
_symmetry_space_group_name_H-M   'P 1'
_cell_length_a   9.14202125
_cell_length_b   9.14067891
_cell_length_c   22.17444059
_cell_angle_alpha   90.10562634
_cell_angle_beta   90.00000000
_cell_angle_gamma   120.00485804
_symmetry_Int_Tables_number   1
_chemical_formula_structural   Na12Mg4Ta2Si6(SO12)3
_chemical_formula_sum   'Na24 Mg8 Ta4 Si12 S6 O72'
_cell_volume   1604.65523668
_cell_formula_units_Z   2
loop_
 _symmetry_equiv_pos_site_id
 _symmetry_equiv_pos_as_xyz
  1  'x, y, z'
loop_
 _atom_site_type_symbol
 _atom_site_label
 _atom_site_symmetry_multiplicity
 _atom_site_fract_x
 _atom_site_fract_y
 _atom_site_fract_z
 _atom_site_occupancy
  Na  Na0  1  0.64600272  0.02141913  0.25423436  1
  Na  Na1  1  0.34586329  0.33663312  0.25125567  1
  Na  Na2  1  0.99661316  0.63345927  0.23981545  1
  Na  Na3  1  0.63684611  0.63345927  0.73981545  1
  Na  Na4  1  0.99076982  0.33663312  0.75125567  1
  Na  Na5  1  0.37541641  0.02141913  0.75423436  1
  Na  Na6  1  0.30691884  0.34617113  0.58724452  1
  Na  Na7  1  0.03055729  0.70613790  0.57776997  1
  Na  Na8  1  0.66654899  0.94582382  0.58330602  1
  Na  Na9  1  0.27927583  0.94582382  0.08330602  1
  Na  Na10  1  0.67558160  0.70613790  0.07776997  1
  Na  Na11  1  0.03925329  0.34617113  0.08724452  1
  Na  Na12  1  0.98606462  0.69231582  0.91618613  1
  Na  Na13  1  0.71185760  0.02490495  0.90813915  1
  Na  Na14  1  0.30958983  0.28233728  0.90866371  1
  Na  Na15  1  0.97274645  0.28233728  0.40866371  1
  Na  Na16  1  0.31304635  0.02490495  0.40813915  1
  Na  Na17  1  0.70625020  0.69231582  0.41618613  1
  Na  Na18  1  0.99100824  0.99236886  0.49283041  1
  Na  Na19  1  0.00136061  0.99236886  0.99283041  1
  Na  Na20  1  0.65319712  0.31823766  0.82481301  1
  Na  Na21  1  0.66504154  0.31823766  0.32481301  1
  Na  Na22  1  0.31095574  0.66349860  0.16503397  1
  Na  Na23  1  0.35254186  0.66349860  0.66503397  1
  Mg  Mg24  1  0.01071227  0.01114816  0.35130043  1
  Mg  Mg25  1  0.00043588  0.01114816  0.85130043  1
  Mg  Mg26  1  0.98471946  0.99876636  0.65416692  1
  Mg  Mg27  1  0.01404690  0.99876636  0.15416692  1
  Mg  Mg28  1  0.65464074  0.33159388  0.68647270  1
  Mg  Mg29  1  0.67695414  0.33159388  0.18647270  1
  Mg  Mg30  1  0.32405122  0.66767220  0.01409349  1
  Mg  Mg31  1  0.34361998  0.66767220  0.51409349  1
  Ta  Ta32  1  0.67557186  0.34396468  0.97531552  1
  Ta  Ta33  1  0.66839382  0.34396468  0.47531552  1
  Ta  Ta34  1  0.32433396  0.66534013  0.31747948  1
  Ta  Ta35  1  0.34100517  0.66534013  0.81747948  1
  Si  Si36  1  0.29899302  0.00083458  0.24974992  1
  Si  Si37  1  -0.00004251  0.29218965  0.24940443  1
  Si  Si38  1  0.29223216  0.29218965  0.74940443  1
  Si  Si39  1  0.70184156  0.00083458  0.74974992  1
  Si  Si40  1  0.66886807  0.63339917  0.58706577  1
  Si  Si41  1  0.96453210  0.63339917  0.08706577  1
  Si  Si42  1  0.62805443  0.67094738  0.92223551  1
  Si  Si43  1  0.04499874  0.37408728  0.91982614  1
  Si  Si44  1  0.33141608  0.96006961  0.92021039  1
  Si  Si45  1  0.62865253  0.96006961  0.42021039  1
  Si  Si46  1  0.32908754  0.37408728  0.41982614  1
  Si  Si47  1  0.04289195  0.67094738  0.42223551  1
  S  S48  1  0.70322766  0.70742111  0.24978187  1
  S  S49  1  0.00419345  0.70742111  0.74978187  1
  S  S50  1  0.95514231  0.33437610  0.58419500  1
  S  S51  1  0.37673289  0.04248089  0.58367586  1
  S  S52  1  0.66574900  0.04248089  0.08367586  1
  S  S53  1  0.37923479  0.33437610  0.08419500  1
  O  O54  1  0.21356819  0.02608905  0.30905302  1
  O  O55  1  0.80515701  0.78369686  0.30400673  1
  O  O56  1  0.96980235  0.17875761  0.30817941  1
  O  O57  1  0.20895526  0.17875761  0.80817941  1
  O  O58  1  0.97853985  0.78369686  0.80400673  1
  O  O59  1  0.81252086  0.02608905  0.80905302  1
  O  O60  1  0.76742925  0.94900275  0.68969296  1
  O  O61  1  0.17742192  0.21696672  0.68867430  1
  O  O62  1  0.03170677  0.81117914  0.69516701  1
  O  O63  1  0.77947237  0.81117914  0.19516701  1
  O  O64  1  0.03954480  0.21696672  0.18867430  1
  O  O65  1  0.18157350  0.94900275  0.18969296  1
  O  O66  1  0.87031481  0.34992522  0.63797453  1
  O  O67  1  0.48029529  0.12232919  0.63753955  1
  O  O68  1  0.64749813  0.51367995  0.64317523  1
  O  O69  1  0.86618282  0.51367995  0.14317523  1
  O  O70  1  0.64203490  0.12232919  0.13753955  1
  O  O71  1  0.47961141  0.34992522  0.13797453  1
  O  O72  1  0.46734441  0.31387652  0.02871436  1
  O  O73  1  0.83438304  0.51991948  0.02651706  1
  O  O74  1  0.68250279  0.14955703  0.02869075  1
  O  O75  1  0.46705524  0.14955703  0.52869075  1
  O  O76  1  0.68553745  0.51991948  0.52651706  1
  O  O77  1  0.84653311  0.31387652  0.52871436  1
  O  O78  1  0.54426856  0.69792071  0.98086164  1
  O  O79  1  0.15368652  0.45524831  0.97912237  1
  O  O80  1  0.30400767  0.85189749  0.97967143  1
  O  O81  1  0.54788882  0.85189749  0.47967143  1
  O  O82  1  0.30156079  0.45524831  0.47912237  1
  O  O83  1  0.15365115  0.69792071  0.48086164  1
  O  O84  1  0.13437596  0.63338336  0.36261471  1
  O  O85  1  0.50003193  0.86618361  0.36112988  1
  O  O86  1  0.37169146  0.50234664  0.36067349  1
  O  O87  1  0.13065418  0.50234664  0.86067349  1
  O  O88  1  0.36615068  0.86618361  0.86112988  1
  O  O89  1  0.49900640  0.63338336  0.86261471  1
  O  O90  1  0.00341510  0.82037976  0.41017690  1
  O  O91  1  0.81373524  0.98530282  0.40997470  1
  O  O92  1  0.17503298  0.18429334  0.41253111  1
  O  O93  1  0.00926035  0.18429334  0.91253111  1
  O  O94  1  0.17156758  0.98530282  0.90997470  1
  O  O95  1  0.81696467  0.82037976  0.91017690  1
  O  O96  1  0.97204227  0.18143562  0.58402458  1
  O  O97  1  0.20973638  0.03237527  0.58550221  1
  O  O98  1  0.84553634  0.81476240  0.58331683  1
  O  O99  1  0.96922606  0.81476240  0.08331683  1
  O  O100  1  0.82263889  0.03237527  0.08550221  1
  O  O101  1  0.20939335  0.18143562  0.08402458  1
  O  O102  1  0.67910374  0.16651279  0.74308629  1
  O  O103  1  0.48644611  0.33008359  0.74679225  1
  O  O104  1  0.85867906  0.53326923  0.74367841  1
  O  O105  1  0.67459117  0.53326923  0.24367841  1
  O  O106  1  0.84363848  0.33008359  0.24679225  1
  O  O107  1  0.48741006  0.16651279  0.24308629  1
  O  O108  1  0.63122442  0.48728634  0.92432206  1
  O  O109  1  0.85191116  0.36028699  0.92356405  1
  O  O110  1  0.50902954  0.14844774  0.92524227  1
  O  O111  1  0.63941920  0.14844774  0.42524227  1
  O  O112  1  0.50837682  0.36028699  0.42356405  1
  O  O113  1  0.85606292  0.48728634  0.42432206  1
  O  O114  1  0.36668056  0.48928668  0.07955386  1
  O  O115  1  0.14932935  0.64787029  0.08195308  1
  O  O116  1  0.51644136  0.87093017  0.07901322  1
  O  O117  1  0.35448781  0.87093017  0.57901322  1
  O  O118  1  0.49853993  0.64787029  0.58195308  1
  O  O119  1  0.12260512  0.48928668  0.57955386  1
  O  O120  1  0.32424426  0.82727693  0.25835649  1
  O  O121  1  0.53052504  0.69331813  0.25502443  1
  O  O122  1  0.18108928  0.48732357  0.25816304  1
  O  O123  1  0.30623329  0.48732357  0.75816304  1
  O  O124  1  0.16279210  0.69331813  0.75502443  1
  O  O125  1  0.50303168  0.82727693  0.75835649  1
