# generated using pymatgen
data_Na7Ga2Si3Ge2(PO8)3
_symmetry_space_group_name_H-M   'P 1'
_cell_length_a   8.76967639
_cell_length_b   8.76568461
_cell_length_c   21.86129016
_cell_angle_alpha   89.74045628
_cell_angle_beta   89.66575591
_cell_angle_gamma   119.97230972
_symmetry_Int_Tables_number   1
_chemical_formula_structural   Na7Ga2Si3Ge2(PO8)3
_chemical_formula_sum   'Na21 Ga6 Si9 Ge6 P9 O72'
_cell_volume   1455.70546857
_cell_formula_units_Z   3
loop_
 _symmetry_equiv_pos_site_id
 _symmetry_equiv_pos_as_xyz
  1  'x, y, z'
loop_
 _atom_site_type_symbol
 _atom_site_label
 _atom_site_symmetry_multiplicity
 _atom_site_fract_x
 _atom_site_fract_y
 _atom_site_fract_z
 _atom_site_occupancy
  Na  Na0  1  0.63198189  0.00143719  0.25111712  1
  Na  Na1  1  0.36808628  0.36947063  0.24909277  1
  Na  Na2  1  0.00000201  0.62760957  0.24998416  1
  Na  Na3  1  0.63180983  0.63362873  0.74977250  1
  Na  Na4  1  0.99645197  0.36509660  0.74927194  1
  Na  Na5  1  0.37122233  0.00106027  0.74873900  1
  Na  Na6  1  0.03236662  0.69782951  0.58318259  1
  Na  Na7  1  0.66444246  0.96801990  0.58293337  1
  Na  Na8  1  0.66574314  0.69448081  0.08284152  1
  Na  Na9  1  0.03141222  0.33424410  0.08457103  1
  Na  Na10  1  0.96262541  0.66576310  0.91802633  1
  Na  Na11  1  0.70120676  0.03263360  0.91648621  1
  Na  Na12  1  0.33724914  0.30138089  0.91761661  1
  Na  Na13  1  0.96698849  0.30156975  0.41635506  1
  Na  Na14  1  0.33525854  0.03159655  0.41749602  1
  Na  Na15  1  0.99967269  0.99989857  0.50001495  1
  Na  Na16  1  0.00484712  0.99791718  0.00096817  1
  Na  Na17  1  0.66637523  0.33314419  0.83333842  1
  Na  Na18  1  0.66974233  0.33813270  0.33452355  1
  Na  Na19  1  0.32999009  0.66814112  0.16607914  1
  Na  Na20  1  0.33363001  0.66308561  0.66514268  1
  Ga  Ga21  1  0.99196658  0.99673829  0.85075823  1
  Ga  Ga22  1  0.66853063  0.32607762  0.68134557  1
  Ga  Ga23  1  0.67287282  0.33644526  0.18152252  1
  Ga  Ga24  1  0.66474998  0.34248814  0.98516515  1
  Ga  Ga25  1  0.32725532  0.66303364  0.31846514  1
  Ga  Ga26  1  0.34195032  0.67061345  0.81593703  1
  Si  Si27  1  -0.00000681  0.28739065  0.24996893  1
  Si  Si28  1  0.71128365  0.00173181  0.74950569  1
  Si  Si29  1  0.96310869  0.33573577  0.58278569  1
  Si  Si30  1  0.37516801  0.04696044  0.58320694  1
  Si  Si31  1  0.96470384  0.63167560  0.08321553  1
  Si  Si32  1  0.37518270  0.32860300  0.08385773  1
  Si  Si33  1  0.62267833  0.66520233  0.91692453  1
  Si  Si34  1  0.62102336  0.95093646  0.41648843  1
  Si  Si35  1  0.03664054  0.66610137  0.41671309  1
  Ge  Ge36  1  0.98739697  0.99208732  0.35413516  1
  Ge  Ge37  1  0.00447240  0.00974348  0.64605463  1
  Ge  Ge38  1  0.01154672  0.00427249  0.14646307  1
  Ge  Ge39  1  0.66868371  0.33034999  0.48155959  1
  Ge  Ge40  1  0.33474816  0.66783167  0.02060042  1
  Ge  Ge41  1  0.33051051  0.66987326  0.51841200  1
  P  P42  1  0.28645677  0.00046136  0.25038740  1
  P  P43  1  0.71355529  0.71405548  0.24987819  1
  P  P44  1  0.28794619  0.28757077  0.75025404  1
  P  P45  1  0.99916600  0.71086062  0.74978804  1
  P  P46  1  0.66154598  0.61727439  0.58333687  1
  P  P47  1  0.66264324  0.04159864  0.08306650  1
  P  P48  1  0.04527392  0.37880488  0.91653983  1
  P  P49  1  0.33425555  0.95534604  0.91687234  1
  P  P50  1  0.33890117  0.38130119  0.41716210  1
  O  O51  1  0.20383774  0.03655221  0.30804631  1
  O  O52  1  0.83551542  0.79618373  0.30602113  1
  O  O53  1  0.96325172  0.15936842  0.31046859  1
  O  O54  1  0.21055112  0.17107599  0.80813805  1
  O  O55  1  0.96609849  0.79107283  0.80753892  1
  O  O56  1  0.83380362  0.04324889  0.80946031  1
  O  O57  1  0.80160063  0.95914153  0.68965764  1
  O  O58  1  0.16650892  0.20259759  0.69403538  1
  O  O59  1  0.03826634  0.83182057  0.69225219  1
  O  O60  1  0.79615274  0.83283143  0.19205870  1
  O  O61  1  0.03617375  0.19633239  0.18989646  1
  O  O62  1  0.16468566  0.96079054  0.19424511  1
  O  O63  1  0.88536407  0.38212326  0.64291149  1
  O  O64  1  0.49521604  0.12101066  0.64338978  1
  O  O65  1  0.63208450  0.51041053  0.64245361  1
  O  O66  1  0.88537428  0.50561438  0.14338528  1
  O  O67  1  0.63017094  0.11849092  0.14132809  1
  O  O68  1  0.49814735  0.37530829  0.14421679  1
  O  O69  1  0.45287302  0.29270835  0.02216342  1
  O  O70  1  0.84184758  0.55017527  0.02337702  1
  O  O71  1  0.70490168  0.15912716  0.02555951  1
  O  O72  1  0.46327165  0.16853299  0.52198845  1
  O  O73  1  0.70427983  0.53665101  0.52719949  1
  O  O74  1  0.83246120  0.29214687  0.52368859  1
  O  O75  1  0.53313125  0.70777227  0.97676422  1
  O  O76  1  0.16351794  0.46174362  0.97380706  1
  O  O77  1  0.29410533  0.83105301  0.97306850  1
  O  O78  1  0.53390328  0.83005727  0.47797768  1
  O  O79  1  0.29492159  0.46218320  0.47283620  1
  O  O80  1  0.16639099  0.70872827  0.47605604  1
  O  O81  1  0.11573820  0.62088251  0.35672152  1
  O  O82  1  0.50076026  0.87493155  0.35591538  1
  O  O83  1  0.37047420  0.48823351  0.35798216  1
  O  O84  1  0.12339133  0.49593455  0.85893164  1
  O  O85  1  0.36765870  0.87664580  0.85859956  1
  O  O86  1  0.49954829  0.62348354  0.85716952  1
  O  O87  1  0.03014609  0.85048422  0.40800274  1
  O  O88  1  0.82263578  0.98240033  0.41071800  1
  O  O89  1  0.17062419  0.19366876  0.41117506  1
  O  O90  1  0.03155159  0.19597982  0.91204655  1
  O  O91  1  0.16931586  0.97611389  0.91127557  1
  O  O92  1  0.81867973  0.84205965  0.91238049  1
  O  O93  1  0.97141149  0.15274791  0.59028299  1
  O  O94  1  0.17271668  0.01344627  0.59157903  1
  O  O95  1  0.83128147  0.80463372  0.58856104  1
  O  O96  1  0.97174770  0.82202508  0.09284606  1
  O  O97  1  0.82949091  0.02075570  0.08976466  1
  O  O98  1  0.17365311  0.15985034  0.09035986  1
  O  O99  1  0.69067460  0.17697942  0.74451400  1
  O  O100  1  0.47387989  0.31138325  0.74367105  1
  O  O101  1  0.83203652  0.52831474  0.74430386  1
  O  O102  1  0.69359550  0.52906700  0.24563741  1
  O  O103  1  0.82239806  0.30429796  0.24496098  1
  O  O104  1  0.47015136  0.16648890  0.24442397  1
  O  O105  1  0.64412526  0.49049956  0.92161084  1
  O  O106  1  0.85877581  0.35461405  0.92311435  1
  O  O107  1  0.50165178  0.13764281  0.92256661  1
  O  O108  1  0.64193782  0.15028421  0.42380543  1
  O  O109  1  0.50050772  0.35560954  0.42416764  1
  O  O110  1  0.84327799  0.48823535  0.42621875  1
  O  O111  1  0.35480547  0.50856571  0.07587305  1
  O  O112  1  0.15777903  0.64455374  0.07397278  1
  O  O113  1  0.49978494  0.85379033  0.07668994  1
  O  O114  1  0.35632004  0.84871627  0.57584758  1
  O  O115  1  0.50059977  0.64412105  0.57620482  1
  O  O116  1  0.15716230  0.51287582  0.57359015  1
  O  O117  1  0.30667445  0.83545483  0.25458378  1
  O  O118  1  0.53006701  0.69668878  0.25549761  1
  O  O119  1  0.17713218  0.48189808  0.25497301  1
  O  O120  1  0.30131976  0.47034808  0.75468245  1
  O  O121  1  0.16423442  0.69013765  0.75538864  1
  O  O122  1  0.51519194  0.82496332  0.75414298  1
