# generated using pymatgen
data_AlSnP(SO6)2
_symmetry_space_group_name_H-M   'P 1'
_cell_length_a   8.52683736
_cell_length_b   8.53464104
_cell_length_c   22.12069773
_cell_angle_alpha   90.14062273
_cell_angle_beta   90.00000000
_cell_angle_gamma   119.96975805
_symmetry_Int_Tables_number   1
_chemical_formula_structural   AlSnP(SO6)2
_chemical_formula_sum   'Al6 Sn6 P6 S12 O72'
_cell_volume   1394.54718808
_cell_formula_units_Z   6
loop_
 _symmetry_equiv_pos_site_id
 _symmetry_equiv_pos_as_xyz
  1  'x, y, z'
loop_
 _atom_site_type_symbol
 _atom_site_label
 _atom_site_symmetry_multiplicity
 _atom_site_fract_x
 _atom_site_fract_y
 _atom_site_fract_z
 _atom_site_occupancy
  Al  Al0  1  0.99889437  0.99819431  0.35536538  1
  Al  Al1  1  0.99929994  0.99819431  0.85536538  1
  Al  Al2  1  0.68551208  0.34494623  0.68916719  1
  Al  Al3  1  0.65943515  0.34494623  0.18916719  1
  Al  Al4  1  0.32587167  0.64689378  0.02185542  1
  Al  Al5  1  0.32102111  0.64689378  0.52185542  1
  Sn  Sn6  1  0.00106992  0.00185470  0.64633022  1
  Sn  Sn7  1  0.00078479  0.00185470  0.14633022  1
  Sn  Sn8  1  0.66580402  0.33227081  0.97974645  1
  Sn  Sn9  1  0.66646779  0.33227081  0.47974645  1
  Sn  Sn10  1  0.34117548  0.66204786  0.31290889  1
  Sn  Sn11  1  0.32087137  0.66204786  0.81290889  1
  P  P12  1  0.72050296  0.71116841  0.25174487  1
  P  P13  1  0.99066546  0.71116841  0.75174487  1
  P  P14  1  0.95864768  0.34034353  0.58472959  1
  P  P15  1  0.38169684  0.34034353  0.08472959  1
  P  P16  1  0.04513110  0.36787075  0.91821047  1
  P  P17  1  0.32273865  0.36787075  0.41821047  1
  S  S18  1  0.29554855  0.00613471  0.25166281  1
  S  S19  1  0.98903476  0.28742595  0.25094111  1
  S  S20  1  0.29839119  0.28742595  0.75094111  1
  S  S21  1  0.71058616  0.00613471  0.75166281  1
  S  S22  1  0.38122654  0.03738128  0.58475320  1
  S  S23  1  0.65779067  0.61998613  0.58458333  1
  S  S24  1  0.96219646  0.61998613  0.08458333  1
  S  S25  1  0.65615574  0.03738128  0.08475320  1
  S  S26  1  0.62593100  0.67535391  0.91726150  1
  S  S27  1  0.32571853  0.95163818  0.91852223  1
  S  S28  1  0.62591865  0.95163818  0.41852223  1
  S  S29  1  0.04942191  0.67535391  0.41726150  1
  O  O30  1  0.20899904  0.03653358  0.30442734  1
  O  O31  1  0.84047787  0.80735243  0.30679983  1
  O  O32  1  0.96418953  0.17407574  0.30406995  1
  O  O33  1  0.20988622  0.17407574  0.80406995  1
  O  O34  1  0.96687456  0.80735243  0.80679983  1
  O  O35  1  0.82753454  0.03653358  0.80442734  1
  O  O36  1  0.78029687  0.96367822  0.69587228  1
  O  O37  1  0.18229186  0.21967258  0.69580644  1
  O  O38  1  0.03549704  0.82717345  0.69352147  1
  O  O39  1  0.79167641  0.82717345  0.19352147  1
  O  O40  1  0.03738073  0.21967258  0.19580644  1
  O  O41  1  0.18338134  0.96367822  0.19587228  1
  O  O42  1  0.86370540  0.36605170  0.63938190  1
  O  O43  1  0.49382215  0.12693725  0.63807801  1
  O  O44  1  0.62792929  0.50418391  0.63737402  1
  O  O45  1  0.87625561  0.50418391  0.13737402  1
  O  O46  1  0.63311610  0.12693725  0.13807801  1
  O  O47  1  0.50234730  0.36605170  0.13938190  1
  O  O48  1  0.45293958  0.29424724  0.02654783  1
  O  O49  1  0.84901451  0.55034763  0.02896867  1
  O  O50  1  0.70179176  0.15172486  0.02928497  1
  O  O51  1  0.44993410  0.15172486  0.52928497  1
  O  O52  1  0.70133412  0.55034763  0.52896867  1
  O  O53  1  0.84130866  0.29424724  0.52654783  1
  O  O54  1  0.54007174  0.70408435  0.97050459  1
  O  O55  1  0.16682520  0.46402109  0.97266673  1
  O  O56  1  0.30096720  0.83870187  0.97146847  1
  O  O57  1  0.53773368  0.83870187  0.47146847  1
  O  O58  1  0.29719489  0.46402109  0.47266673  1
  O  O59  1  0.16401161  0.70408435  0.47050459  1
  O  O60  1  0.12146037  0.63549675  0.36138851  1
  O  O61  1  0.51202012  0.88400365  0.36273545  1
  O  O62  1  0.37164614  0.48678595  0.36076818  1
  O  O63  1  0.11513881  0.48678595  0.86076818  1
  O  O64  1  0.37198253  0.88400365  0.86273545  1
  O  O65  1  0.51403538  0.63549675  0.86138851  1
  O  O66  1  0.03193036  0.83617314  0.40827944  1
  O  O67  1  0.80323767  0.96716281  0.40853604  1
  O  O68  1  0.15592924  0.18445328  0.40501098  1
  O  O69  1  0.02852403  0.18445328  0.90501098  1
  O  O70  1  0.16392514  0.96716281  0.90853604  1
  O  O71  1  0.80424279  0.83617314  0.90827944  1
  O  O72  1  0.98004733  0.17150975  0.59140622  1
  O  O73  1  0.19833751  0.01798686  0.58988971  1
  O  O74  1  0.82079137  0.80135733  0.59038629  1
  O  O75  1  0.98056596  0.80135733  0.09038629  1
  O  O76  1  0.81964936  0.01798686  0.08988971  1
  O  O77  1  0.19146242  0.17150975  0.09140622  1
  O  O78  1  0.69137547  0.16527682  0.74176118  1
  O  O79  1  0.47336208  0.30015598  0.74002485  1
  O  O80  1  0.82335457  0.52662255  0.74120837  1
  O  O81  1  0.70326899  0.52662255  0.24120837  1
  O  O82  1  0.82679490  0.30015598  0.24002485  1
  O  O83  1  0.47390235  0.16527682  0.24176118  1
  O  O84  1  0.64507390  0.51261416  0.92306281  1
  O  O85  1  0.85597336  0.34920449  0.92529663  1
  O  O86  1  0.48730549  0.13471801  0.92318560  1
  O  O87  1  0.64741352  0.13471801  0.42318560  1
  O  O88  1  0.49323213  0.34920449  0.42529663  1
  O  O89  1  0.86754126  0.51261416  0.42306281  1
  O  O90  1  0.36680666  0.50856258  0.07407003  1
  O  O91  1  0.14079013  0.63934309  0.07469378  1
  O  O92  1  0.49473565  0.86129187  0.07394436  1
  O  O93  1  0.36655522  0.86129187  0.57394436  1
  O  O94  1  0.49855196  0.63934309  0.57469378  1
  O  O95  1  0.14175492  0.50856258  0.57407003  1
  O  O96  1  0.31145297  0.84185340  0.25871684  1
  O  O97  1  0.53069274  0.69177692  0.25608664  1
  O  O98  1  0.14968134  0.47135416  0.25699295  1
  O  O99  1  0.32167182  0.47135416  0.75699295  1
  O  O100  1  0.16108318  0.69177692  0.75608664  1
  O  O101  1  0.53039943  0.84185340  0.75871684  1
