# generated using pymatgen
data_K2SbCl5
_symmetry_space_group_name_H-M   'P 1'
_cell_length_a   12.47534312
_cell_length_b   8.90189880
_cell_length_c   8.93670008
_cell_angle_alpha   69.68814807
_cell_angle_beta   90.00000000
_cell_angle_gamma   90.00000000
_symmetry_Int_Tables_number   1
_chemical_formula_structural   K2SbCl5
_chemical_formula_sum   'K8 Sb4 Cl20'
_cell_volume   930.74455706
_cell_formula_units_Z   4
loop_
 _symmetry_equiv_pos_site_id
 _symmetry_equiv_pos_as_xyz
  1  'x, y, z'
loop_
 _atom_site_type_symbol
 _atom_site_label
 _atom_site_symmetry_multiplicity
 _atom_site_fract_x
 _atom_site_fract_y
 _atom_site_fract_z
 _atom_site_occupancy
  K  K0  1  0.67333937  0.91031714  0.18441947  1
  K  K1  1  0.12849425  0.15732220  0.37320608  1
  K  K2  1  0.62849425  0.34267780  0.62679392  1
  K  K3  1  0.87150575  0.84267780  0.62679392  1
  K  K4  1  0.82666063  0.41031714  0.18441947  1
  K  K5  1  0.32666063  0.08968286  0.81558053  1
  K  K6  1  0.37150575  0.65732220  0.37320608  1
  K  K7  1  0.17333937  0.58968286  0.81558053  1
  Sb  Sb8  1  0.49367767  0.29969165  0.18455478  1
  Sb  Sb9  1  0.99367767  0.20030835  0.81544522  1
  Sb  Sb10  1  0.50632233  0.70030835  0.81544522  1
  Sb  Sb11  1  0.00632233  0.79969165  0.18455478  1
  Cl  Cl12  1  0.88516186  0.64258946  0.38919984  1
  Cl  Cl13  1  0.42486478  0.03631844  0.16944806  1
  Cl  Cl14  1  0.92486478  0.46368156  0.83055194  1
  Cl  Cl15  1  0.57513522  0.96368156  0.83055194  1
  Cl  Cl16  1  0.90568860  0.04962094  0.24320086  1
  Cl  Cl17  1  0.40568860  0.45037906  0.75679914  1
  Cl  Cl18  1  0.09431140  0.95037906  0.75679914  1
  Cl  Cl19  1  0.59431140  0.54962094  0.24320086  1
  Cl  Cl20  1  0.84697315  0.79735062  0.99123730  1
  Cl  Cl21  1  0.34697315  0.70264938  0.00876270  1
  Cl  Cl22  1  0.15302685  0.20264938  0.00876270  1
  Cl  Cl23  1  0.65302685  0.29735062  0.99123730  1
  Cl  Cl24  1  0.13904501  0.78895528  0.41696491  1
  Cl  Cl25  1  0.61483814  0.14258946  0.38919984  1
  Cl  Cl26  1  0.86095499  0.21104472  0.58303509  1
  Cl  Cl27  1  0.36095499  0.28895528  0.41696491  1
  Cl  Cl28  1  0.63904501  0.71104472  0.58303509  1
  Cl  Cl29  1  0.38516186  0.85741054  0.61080016  1
  Cl  Cl30  1  0.11483814  0.35741054  0.61080016  1
  Cl  Cl31  1  0.07513522  0.53631844  0.16944806  1
