# generated using pymatgen
data_Na10La7Ta(PO4)12
_symmetry_space_group_name_H-M   'P 1'
_cell_length_a   18.99921114
_cell_length_b   9.51838098
_cell_length_c   24.24065917
_cell_angle_alpha   90.01499273
_cell_angle_beta   90.08286716
_cell_angle_gamma   120.25611954
_symmetry_Int_Tables_number   1
_chemical_formula_structural   Na10La7Ta(PO4)12
_chemical_formula_sum   'Na30 La21 Ta3 P36 O144'
_cell_volume   3786.57300618
_cell_formula_units_Z   3
loop_
 _symmetry_equiv_pos_site_id
 _symmetry_equiv_pos_as_xyz
  1  'x, y, z'
loop_
 _atom_site_type_symbol
 _atom_site_label
 _atom_site_symmetry_multiplicity
 _atom_site_fract_x
 _atom_site_fract_y
 _atom_site_fract_z
 _atom_site_occupancy
  Na  Na0  1  0.31567769  0.99819522  0.25311831  1
  Na  Na1  1  0.68535199  0.36796625  0.25270130  1
  Na  Na2  1  0.31249936  0.63016916  0.75713805  1
  Na  Na3  1  0.81254753  0.62989727  0.75646429  1
  Na  Na4  1  0.15301616  0.33476656  0.58147028  1
  Na  Na5  1  0.65263417  0.33566186  0.58192601  1
  Na  Na6  1  0.01340706  0.69872222  0.58306335  1
  Na  Na7  1  0.51492283  0.69573071  0.58160398  1
  Na  Na8  1  0.33180310  0.96585026  0.58164630  1
  Na  Na9  1  0.83480862  0.97144097  0.58163658  1
  Na  Na10  1  0.15206329  0.97007459  0.08078169  1
  Na  Na11  1  0.65319770  0.97280838  0.08224573  1
  Na  Na12  1  0.33267010  0.69548485  0.08200860  1
  Na  Na13  1  0.83262287  0.69507732  0.08192175  1
  Na  Na14  1  0.01429125  0.33219506  0.08047829  1
  Na  Na15  1  0.51463284  0.33212744  0.08293694  1
  Na  Na16  1  0.66752555  0.03363258  0.41435536  1
  Na  Na17  1  0.34721098  0.66589377  0.41301394  1
  Na  Na18  1  0.00011486  0.99878132  0.49318349  1
  Na  Na19  1  0.49978604  0.01243185  0.49360441  1
  Na  Na20  1  0.99998047  0.00035528  0.99597458  1
  Na  Na21  1  0.50016144  0.99976337  0.99583377  1
  Na  Na22  1  0.33291191  0.32123649  0.83686996  1
  Na  Na23  1  0.83304858  0.32158424  0.83707702  1
  Na  Na24  1  0.33154980  0.33224702  0.33247169  1
  Na  Na25  1  0.84617908  0.34728774  0.33345686  1
  Na  Na26  1  0.16334017  0.65354869  0.17027830  1
  Na  Na27  1  0.66499500  0.68092955  0.17078441  1
  Na  Na28  1  0.16025857  0.66620170  0.66966749  1
  Na  Na29  1  0.66002345  0.66485693  0.66980235  1
  La  La30  1  0.49980104  0.00651981  0.34758492  1
  La  La31  1  0.00298076  0.00590717  0.65649936  1
  La  La32  1  0.50273103  0.00463337  0.65504293  1
  La  La33  1  0.99973449  0.99769051  0.15592105  1
  La  La34  1  0.50046736  0.99613163  0.15443282  1
  La  La35  1  0.33371045  0.32269858  0.69075159  1
  La  La36  1  0.83331008  0.32223143  0.69142799  1
  La  La37  1  0.32958726  0.34064543  0.18486773  1
  La  La38  1  0.84295373  0.33531922  0.18789423  1
  La  La39  1  0.33349294  0.33439640  0.97795544  1
  La  La40  1  0.83312562  0.33462388  0.97819843  1
  La  La41  1  0.33188203  0.32131024  0.48115822  1
  La  La42  1  0.83995336  0.34665327  0.48020674  1
  La  La43  1  0.16655358  0.66761838  0.00224979  1
  La  La44  1  0.66644509  0.66626033  0.00330072  1
  La  La45  1  0.15716776  0.65656179  0.50532349  1
  La  La46  1  0.67259405  0.67017959  0.50719564  1
  La  La47  1  0.16096265  0.65757850  0.31777675  1
  La  La48  1  0.66380986  0.67001656  0.31794781  1
  La  La49  1  0.16177601  0.66773985  0.81930872  1
  La  La50  1  0.66173519  0.66761601  0.81939397  1
  Ta  Ta51  1  0.00033122  0.99975493  0.34699482  1
  Ta  Ta52  1  0.00172932  0.00339419  0.84937770  1
  Ta  Ta53  1  0.50177639  0.00332235  0.84932231  1
  P  P54  1  0.14766173  0.00329082  0.25426616  1
  P  P55  1  0.65564042  0.00570246  0.24968013  1
  P  P56  1  0.34376292  0.69593331  0.25068026  1
  P  P57  1  0.85424072  0.70319401  0.25456277  1
  P  P58  1  0.99770287  0.28456830  0.25353621  1
  P  P59  1  0.49980145  0.30554473  0.24581920  1
  P  P60  1  0.14856089  0.29398635  0.75457057  1
  P  P61  1  0.64818779  0.29332276  0.75445889  1
  P  P62  1  0.99676532  0.71050067  0.75333804  1
  P  P63  1  0.49682567  0.71076586  0.75323999  1
  P  P64  1  0.35645816  0.99844145  0.75423814  1
  P  P65  1  0.85618564  0.99822913  0.75438590  1
  P  P66  1  0.48574380  0.33692858  0.58394976  1
  P  P67  1  0.98472221  0.33535818  0.58450366  1
  P  P68  1  0.18213919  0.02678880  0.58405515  1
  P  P69  1  0.68441853  0.03198852  0.58069883  1
  P  P70  1  0.33079224  0.63160467  0.58350869  1
  P  P71  1  0.83262073  0.63345925  0.58781009  1
  P  P72  1  0.48557353  0.63357215  0.08179160  1
  P  P73  1  0.98686876  0.63579482  0.08163428  1
  P  P74  1  0.33065390  0.02785774  0.08452305  1
  P  P75  1  0.83178158  0.02967296  0.08193373  1
  P  P76  1  0.18120871  0.33706983  0.08069424  1
  P  P77  1  0.68485384  0.33893352  0.08534110  1
  P  P78  1  0.32834816  0.68366830  0.91086165  1
  P  P79  1  0.82823740  0.68358543  0.91087335  1
  P  P80  1  0.01278558  0.34182749  0.91427916  1
  P  P81  1  0.51295956  0.34165140  0.91428917  1
  P  P82  1  0.15835906  0.97459766  0.91413972  1
  P  P83  1  0.65832949  0.97424521  0.91417841  1
  P  P84  1  0.31990637  0.96546989  0.41650470  1
  P  P85  1  0.82843850  0.97565662  0.41431362  1
  P  P86  1  0.15926278  0.34512476  0.41469194  1
  P  P87  1  0.66652518  0.35334377  0.41645084  1
  P  P88  1  0.01268942  0.68752265  0.41385670  1
  P  P89  1  0.51314314  0.67261833  0.41976743  1
  O  O90  1  0.08765448  0.00115318  0.30095606  1
  O  O91  1  0.60972635  0.01380535  0.30143878  1
  O  O92  1  0.39322895  0.78343265  0.30308203  1
  O  O93  1  0.91367481  0.82325217  0.30141197  1
  O  O94  1  0.49179023  0.19553714  0.29506176  1
  O  O95  1  0.99962960  0.16717010  0.29997840  1
  O  O96  1  0.08994252  0.17629774  0.80120033  1
  O  O97  1  0.58978997  0.17614343  0.80126473  1
  O  O98  1  0.49811280  0.82901675  0.80003792  1
  O  O99  1  0.99814830  0.82914920  0.80006267  1
  O  O100  1  0.41652257  0.00464647  0.80098955  1
  O  O101  1  0.91653546  0.00459513  0.80093265  1
  O  O102  1  0.39092507  0.98728615  0.69779154  1
  O  O103  1  0.89021635  0.98733458  0.69780969  1
  O  O104  1  0.10877173  0.22682245  0.69806920  1
  O  O105  1  0.60809030  0.22504644  0.69802958  1
  O  O106  1  0.00278784  0.78872936  0.69674719  1
  O  O107  1  0.50290459  0.78944522  0.69664466  1
  O  O108  1  0.38835879  0.79104954  0.19760074  1
  O  O109  1  0.88845959  0.78465269  0.19851375  1
  O  O110  1  0.00042067  0.21545022  0.19666985  1
  O  O111  1  0.50716254  0.22775287  0.19155181  1
  O  O112  1  0.10803945  0.99487294  0.19803334  1
  O  O113  1  0.60771455  0.99224328  0.19612252  1
  O  O114  1  0.44328703  0.35633670  0.63550800  1
  O  O115  1  0.94191270  0.35430094  0.63564202  1
  O  O116  1  0.23561338  0.11103767  0.63543607  1
  O  O117  1  0.73885235  0.12283828  0.63101123  1
  O  O118  1  0.32178817  0.52834869  0.63566493  1
  O  O119  1  0.82311533  0.53452114  0.64090206  1
  O  O120  1  0.44489203  0.53129937  0.13394197  1
  O  O121  1  0.94796154  0.53308157  0.13413710  1
  O  O122  1  0.31897054  0.09944030  0.13917665  1
  O  O123  1  0.82083375  0.11080047  0.13403353  1
  O  O124  1  0.23250277  0.36230941  0.13324252  1
  O  O125  1  0.73347276  0.36104245  0.13947887  1
  O  O126  1  0.22430349  0.31342656  0.03110304  1
  O  O127  1  0.72939945  0.31580169  0.03627583  1
  O  O128  1  0.43145065  0.54960238  0.03134778  1
  O  O129  1  0.93186627  0.55091582  0.03174263  1
  O  O130  1  0.34214469  0.14262634  0.03629826  1
  O  O131  1  0.84418772  0.13780789  0.03162821  1
  O  O132  1  0.22296917  0.13242999  0.53304605  1
  O  O133  1  0.72324562  0.12695047  0.52696793  1
  O  O134  1  0.34110284  0.54966742  0.53139660  1
  O  O135  1  0.84269867  0.54547485  0.53768768  1
  O  O136  1  0.43261747  0.31235251  0.53292780  1
  O  O137  1  0.93395084  0.31455566  0.53249580  1
  O  O138  1  0.29510975  0.71590483  0.96528908  1
  O  O139  1  0.79490954  0.71549892  0.96534191  1
  O  O140  1  0.05923345  0.40174116  0.97009393  1
  O  O141  1  0.55947399  0.40175962  0.97008422  1
  O  O142  1  0.14130538  0.88166718  0.96980712  1
  O  O143  1  0.64134628  0.88051702  0.96965843  1
  O  O144  1  0.27398471  0.86769364  0.46961552  1
  O  O145  1  0.80197789  0.88528205  0.47076459  1
  O  O146  1  0.13984917  0.39912549  0.47066691  1
  O  O147  1  0.66447014  0.44047604  0.47045280  1
  O  O148  1  0.05626049  0.71812917  0.47086089  1
  O  O149  1  0.55966350  0.68278568  0.47416880  1
  O  O150  1  0.06188256  0.66477529  0.36899874  1
  O  O151  1  0.56021382  0.65901850  0.37068308  1
  O  O152  1  0.27136393  0.87679135  0.36438455  1
  O  O153  1  0.76423105  0.87673163  0.37031444  1
  O  O154  1  0.17461494  0.47119817  0.37022166  1
  O  O155  1  0.66882259  0.45060906  0.36501688  1
  O  O156  1  0.06083790  0.46097757  0.86848576  1
  O  O157  1  0.56063288  0.46085369  0.86845592  1
  O  O158  1  0.17015803  0.87957409  0.86822279  1
  O  O159  1  0.67035750  0.88020177  0.86798859  1
  O  O160  1  0.27276059  0.66040745  0.86183675  1
  O  O161  1  0.77271091  0.66039795  0.86184843  1
  O  O162  1  0.00552052  0.84327251  0.40010640  1
  O  O163  1  0.51033241  0.83285982  0.41722043  1
  O  O164  1  0.40166700  0.96509344  0.41817354  1
  O  O165  1  0.91387773  0.99462166  0.39825715  1
  O  O166  1  0.08327360  0.17395793  0.39874328  1
  O  O167  1  0.59030364  0.17982384  0.41815831  1
  O  O168  1  0.00673673  0.17219448  0.89989796  1
  O  O169  1  0.50688253  0.17212731  0.89995860  1
  O  O170  1  0.08005807  0.98820162  0.89960229  1
  O  O171  1  0.57993833  0.98780124  0.89964495  1
  O  O172  1  0.41493813  0.84210300  0.89907879  1
  O  O173  1  0.91490565  0.84209032  0.89906399  1
  O  O174  1  0.49610819  0.18447071  0.58713521  1
  O  O175  1  0.99563835  0.18407911  0.58750219  1
  O  O176  1  0.09577729  0.00729135  0.58769728  1
  O  O177  1  0.59813053  0.01279582  0.58555530  1
  O  O178  1  0.40743011  0.80604538  0.58710235  1
  O  O179  1  0.90888534  0.80778201  0.58867322  1
  O  O180  1  0.49617677  0.80739024  0.08544801  1
  O  O181  1  0.99689963  0.80875251  0.08626634  1
  O  O182  1  0.40725814  0.00703774  0.08633586  1
  O  O183  1  0.90775832  0.00738552  0.08646930  1
  O  O184  1  0.09452118  0.18334280  0.08540047  1
  O  O185  1  0.59739890  0.18531103  0.08703666  1
  O  O186  1  0.34978860  0.15243319  0.75846589  1
  O  O187  1  0.84953568  0.15218572  0.75876442  1
  O  O188  1  0.23269206  0.30490902  0.75857295  1
  O  O189  1  0.73221079  0.30386968  0.75858073  1
  O  O190  1  0.41319559  0.55106130  0.75770287  1
  O  O191  1  0.91336307  0.55068571  0.75804154  1
  O  O192  1  0.33212116  0.52381607  0.25034158  1
  O  O193  1  0.84984440  0.53706902  0.25915158  1
  O  O194  1  0.42036901  0.31350817  0.24643546  1
  O  O195  1  0.91876521  0.28969804  0.26089344  1
  O  O196  1  0.23223832  0.15832981  0.25990949  1
  O  O197  1  0.73659532  0.17254731  0.24913009  1
  O  O198  1  0.34208409  0.53857862  0.91602578  1
  O  O199  1  0.84202381  0.53859437  0.91600654  1
  O  O200  1  0.42591699  0.31223709  0.91687560  1
  O  O201  1  0.92594809  0.31318726  0.91676311  1
  O  O202  1  0.23149960  0.14781753  0.91675735  1
  O  O203  1  0.73108029  0.14796051  0.91701057  1
  O  O204  1  0.33290771  0.13831650  0.41693405  1
  O  O205  1  0.83549526  0.14405751  0.41764127  1
  O  O206  1  0.23707214  0.33321080  0.41843257  1
  O  O207  1  0.74124799  0.32788754  0.41564547  1
  O  O208  1  0.42405165  0.52867345  0.41858280  1
  O  O209  1  0.92627936  0.53969219  0.41528205  1
  O  O210  1  0.17284635  0.49193468  0.07479302  1
  O  O211  1  0.67657289  0.49369061  0.07728697  1
  O  O212  1  0.07286751  0.65326227  0.07555389  1
  O  O213  1  0.57187038  0.65145077  0.07613067  1
  O  O214  1  0.25325907  0.85558954  0.07632174  1
  O  O215  1  0.75367371  0.85715431  0.07603796  1
  O  O216  1  0.17261950  0.85402078  0.57926821  1
  O  O217  1  0.67543941  0.85918729  0.57923967  1
  O  O218  1  0.25267364  0.64734522  0.57849980  1
  O  O219  1  0.75473829  0.64967144  0.58218076  1
  O  O220  1  0.07082175  0.49245442  0.58086372  1
  O  O221  1  0.57218094  0.49224397  0.57965458  1
  O  O222  1  0.15891788  0.85452894  0.25871439  1
  O  O223  1  0.66826015  0.85812692  0.25086564  1
  O  O224  1  0.26240301  0.69816573  0.24991802  1
  O  O225  1  0.76745913  0.67578477  0.26056759  1
  O  O226  1  0.07397277  0.45223953  0.25807170  1
  O  O227  1  0.57995393  0.47158737  0.25009209  1
  O  O228  1  0.16178400  0.46750781  0.75920312  1
  O  O229  1  0.66157082  0.46694941  0.75905058  1
  O  O230  1  0.06991741  0.68446971  0.75811402  1
  O  O231  1  0.56981465  0.68451050  0.75805579  1
  O  O232  1  0.27431731  0.83798672  0.75939918  1
  O  O233  1  0.77408548  0.83779610  0.75954139  1
