# generated using pymatgen
data_Na4ScAlSi(PO6)2
_symmetry_space_group_name_H-M   'P 1'
_cell_length_a   8.95360780
_cell_length_b   8.95092236
_cell_length_c   21.96916863
_cell_angle_alpha   89.98796698
_cell_angle_beta   89.87025731
_cell_angle_gamma   120.04444541
_symmetry_Int_Tables_number   1
_chemical_formula_structural   Na4ScAlSi(PO6)2
_chemical_formula_sum   'Na24 Sc6 Al6 Si6 P12 O72'
_cell_volume   1524.10116843
_cell_formula_units_Z   6
loop_
 _symmetry_equiv_pos_site_id
 _symmetry_equiv_pos_as_xyz
  1  'x, y, z'
loop_
 _atom_site_type_symbol
 _atom_site_label
 _atom_site_symmetry_multiplicity
 _atom_site_fract_x
 _atom_site_fract_y
 _atom_site_fract_z
 _atom_site_occupancy
  Na  Na0  1  0.63587878  0.00256819  0.25193443  1
  Na  Na1  1  0.36452545  0.36659272  0.24977454  1
  Na  Na2  1  0.00122821  0.62742013  0.25075109  1
  Na  Na3  1  0.63540594  0.63755914  0.74768977  1
  Na  Na4  1  0.99609511  0.36179259  0.75001086  1
  Na  Na5  1  0.37294879  0.00241033  0.74845058  1
  Na  Na6  1  0.29950588  0.33047843  0.58255734  1
  Na  Na7  1  0.03900489  0.70610739  0.58228260  1
  Na  Na8  1  0.66387488  0.96547213  0.58621024  1
  Na  Na9  1  0.29852831  0.96593753  0.08299142  1
  Na  Na10  1  0.67091195  0.69709203  0.08345596  1
  Na  Na11  1  0.03080757  0.33611066  0.08709911  1
  Na  Na12  1  0.97277817  0.67112037  0.91896122  1
  Na  Na13  1  0.69414279  0.03156509  0.91379674  1
  Na  Na14  1  0.33313009  0.29757007  0.91653638  1
  Na  Na15  1  0.96778833  0.30340082  0.41396299  1
  Na  Na16  1  0.32967825  0.02891686  0.41884670  1
  Na  Na17  1  0.70155304  0.66719902  0.41671051  1
  Na  Na18  1  0.00343901  0.99765817  0.49974428  1
  Na  Na19  1  0.00262884  0.99634879  0.00103632  1
  Na  Na20  1  0.66430002  0.32634831  0.83200647  1
  Na  Na21  1  0.67192585  0.33440277  0.33491614  1
  Na  Na22  1  0.32712513  0.66256347  0.16824255  1
  Na  Na23  1  0.33748061  0.67275303  0.66585946  1
  Sc  Sc24  1  0.99862783  0.00060602  0.84790048  1
  Sc  Sc25  1  0.67555337  0.33591090  0.18739144  1
  Sc  Sc26  1  0.66855040  0.33622232  0.98499358  1
  Sc  Sc27  1  0.32776342  0.66973052  0.01811095  1
  Sc  Sc28  1  0.32905731  0.67369045  0.51717988  1
  Sc  Sc29  1  0.34004055  0.67680873  0.81294613  1
  Al  Al30  1  0.99873709  0.99738894  0.35028172  1
  Al  Al31  1  0.00244299  0.99903534  0.64805666  1
  Al  Al32  1  0.00201360  0.00099992  0.15138827  1
  Al  Al33  1  0.66484990  0.32508109  0.68309052  1
  Al  Al34  1  0.66746793  0.33600583  0.48381639  1
  Al  Al35  1  0.31971815  0.65565460  0.31641843  1
  Si  Si36  1  0.00728078  0.28622656  0.25231116  1
  Si  Si37  1  0.71272645  0.00816934  0.74452366  1
  Si  Si38  1  0.37757712  0.05159075  0.58424270  1
  Si  Si39  1  0.96530063  0.64113869  0.08599048  1
  Si  Si40  1  0.33350089  0.96791639  0.91624294  1
  Si  Si41  1  0.03296642  0.66666948  0.41450926  1
  P  P42  1  0.28206589  0.99418537  0.25198381  1
  P  P43  1  0.71084945  0.71850017  0.25200738  1
  P  P44  1  0.29571613  0.29004869  0.74537538  1
  P  P45  1  0.99224428  0.70309568  0.74527217  1
  P  P46  1  0.94846124  0.32790334  0.58419440  1
  P  P47  1  0.67188823  0.61851332  0.58490039  1
  P  P48  1  0.67378568  0.03650820  0.08567580  1
  P  P49  1  0.36490955  0.32686396  0.08608788  1
  P  P50  1  0.62854726  0.66540409  0.91632933  1
  P  P51  1  0.03797525  0.37088456  0.91585344  1
  P  P52  1  0.62700556  0.95903143  0.41394051  1
  P  P53  1  0.33319461  0.37257380  0.41480630  1
  O  O54  1  0.19602682  0.02380543  0.30790942  1
  O  O55  1  0.82805869  0.80088500  0.30770708  1
  O  O56  1  0.97385236  0.16189106  0.31076474  1
  O  O57  1  0.22257297  0.18149323  0.80430335  1
  O  O58  1  0.96034194  0.77754650  0.80441618  1
  O  O59  1  0.82343116  0.04301768  0.80746044  1
  O  O60  1  0.81184252  0.97314839  0.68845360  1
  O  O61  1  0.17375373  0.19800462  0.69130270  1
  O  O62  1  0.02757258  0.82712195  0.69129959  1
  O  O63  1  0.79476854  0.82943951  0.19419493  1
  O  O64  1  0.03597719  0.19717358  0.19130997  1
  O  O65  1  0.17032253  0.96390934  0.19433855  1
  O  O66  1  0.86669888  0.36306425  0.64034364  1
  O  O67  1  0.50046535  0.14010738  0.64292227  1
  O  O68  1  0.64420051  0.50408220  0.64112291  1
  O  O69  1  0.87660624  0.51196971  0.14374283  1
  O  O70  1  0.63378656  0.11703571  0.14087219  1
  O  O71  1  0.48153103  0.35945742  0.14156605  1
  O  O72  1  0.44426111  0.29428663  0.02829471  1
  O  O73  1  0.84614961  0.55908400  0.02514938  1
  O  O74  1  0.70511598  0.14859990  0.02819394  1
  O  O75  1  0.46814631  0.17221592  0.52331278  1
  O  O76  1  0.70092882  0.53608507  0.52694321  1
  O  O77  1  0.83611502  0.30013313  0.52676342  1
  O  O78  1  0.54610456  0.69418079  0.97379746  1
  O  O79  1  0.15066814  0.45151519  0.97314273  1
  O  O80  1  0.29913260  0.84706910  0.97622212  1
  O  O81  1  0.55234957  0.84667242  0.47197870  1
  O  O82  1  0.29772131  0.44899410  0.47256039  1
  O  O83  1  0.15451245  0.71016898  0.47515392  1
  O  O84  1  0.12853713  0.62923002  0.35729004  1
  O  O85  1  0.50521329  0.86850288  0.35898132  1
  O  O86  1  0.36753642  0.49527103  0.35956347  1
  O  O87  1  0.12166952  0.48252990  0.85903217  1
  O  O88  1  0.36743695  0.87985873  0.85655173  1
  O  O89  1  0.51510479  0.63420570  0.85971737  1
  O  O90  1  0.01321881  0.84002203  0.40575547  1
  O  O91  1  0.81037557  0.98034368  0.40731593  1
  O  O92  1  0.17112662  0.18965750  0.40721386  1
  O  O93  1  0.01853947  0.18955615  0.91233303  1
  O  O94  1  0.16013327  0.98388100  0.91242704  1
  O  O95  1  0.80804262  0.82924248  0.91151217  1
  O  O96  1  0.96807320  0.16437615  0.58984999  1
  O  O97  1  0.18040593  0.02713074  0.59141151  1
  O  O98  1  0.83487429  0.80279445  0.58980773  1
  O  O99  1  0.98222512  0.83111391  0.09473777  1
  O  O100  1  0.83837330  0.02266219  0.09288495  1
  O  O101  1  0.18405123  0.16359717  0.09205825  1
  O  O102  1  0.69195385  0.18129615  0.73972644  1
  O  O103  1  0.48043604  0.31558769  0.73930591  1
  O  O104  1  0.82814804  0.52189418  0.73829688  1
  O  O105  1  0.68594707  0.53373633  0.24748051  1
  O  O106  1  0.83397704  0.30776999  0.24923558  1
  O  O107  1  0.46361231  0.15811193  0.24721280  1
  O  O108  1  0.64754485  0.50406106  0.92032881  1
  O  O109  1  0.85912292  0.35523387  0.92131630  1
  O  O110  1  0.50714873  0.15717176  0.92043286  1
  O  O111  1  0.64333835  0.14028910  0.42140703  1
  O  O112  1  0.49812545  0.35599288  0.42101299  1
  O  O113  1  0.84119256  0.49035290  0.42500854  1
  O  O114  1  0.34899827  0.49048503  0.07984827  1
  O  O115  1  0.15453511  0.65424594  0.08229895  1
  O  O116  1  0.51405437  0.85384525  0.07990714  1
  O  O117  1  0.35694636  0.85704748  0.58070869  1
  O  O118  1  0.50847172  0.63710736  0.58005340  1
  O  O119  1  0.13319876  0.48831206  0.57952916  1
  O  O120  1  0.30653117  0.83321414  0.25790929  1
  O  O121  1  0.52844843  0.70083332  0.25865607  1
  O  O122  1  0.18157376  0.48282812  0.25781715  1
  O  O123  1  0.30903799  0.46873122  0.75043463  1
  O  O124  1  0.15313080  0.68175279  0.75017856  1
  O  O125  1  0.52106958  0.83221904  0.74825792  1
