# generated using pymatgen
data_Na5Nb3InSi5PO24
_symmetry_space_group_name_H-M   'P 1'
_cell_length_a   9.04754010
_cell_length_b   9.04733436
_cell_length_c   22.68428413
_cell_angle_alpha   90.02579255
_cell_angle_beta   89.98280627
_cell_angle_gamma   119.97060530
_symmetry_Int_Tables_number   1
_chemical_formula_structural   Na5Nb3InSi5PO24
_chemical_formula_sum   'Na15 Nb9 In3 Si15 P3 O72'
_cell_volume   1608.55303370
_cell_formula_units_Z   3
loop_
 _symmetry_equiv_pos_site_id
 _symmetry_equiv_pos_as_xyz
  1  'x, y, z'
loop_
 _atom_site_type_symbol
 _atom_site_label
 _atom_site_symmetry_multiplicity
 _atom_site_fract_x
 _atom_site_fract_y
 _atom_site_fract_z
 _atom_site_occupancy
  Na  Na0  1  0.99373715  0.63126453  0.24504270  1
  Na  Na1  1  0.63270880  0.62418128  0.74730250  1
  Na  Na2  1  0.99151181  0.36662829  0.74709857  1
  Na  Na3  1  0.37302399  0.00724050  0.74882053  1
  Na  Na4  1  0.31358510  0.97196103  0.08378341  1
  Na  Na5  1  0.66323873  0.69050088  0.08402895  1
  Na  Na6  1  0.96731409  0.29304808  0.41452005  1
  Na  Na7  1  0.32417508  0.03305047  0.41311772  1
  Na  Na8  1  0.70624559  0.67439581  0.41509814  1
  Na  Na9  1  0.00037302  0.99986845  0.50128649  1
  Na  Na10  1  0.99935799  0.00767022  0.99597151  1
  Na  Na11  1  0.66666229  0.33413544  0.83424966  1
  Na  Na12  1  0.65187862  0.32019529  0.32571622  1
  Na  Na13  1  0.33394556  0.65868654  0.16530859  1
  Na  Na14  1  0.33225779  0.66377322  0.66434454  1
  Nb  Nb15  1  0.00025880  0.99941450  0.85652662  1
  Nb  Nb16  1  0.99533144  0.99926930  0.64477747  1
  Nb  Nb17  1  0.00487564  0.00430875  0.14536341  1
  Nb  Nb18  1  0.66676520  0.33161951  0.97772010  1
  Nb  Nb19  1  0.67172381  0.33676543  0.48266367  1
  Nb  Nb20  1  0.32909909  0.66287748  0.01784588  1
  Nb  Nb21  1  0.33358075  0.66281997  0.52178065  1
  Nb  Nb22  1  0.33759241  0.67126768  0.31191161  1
  Nb  Nb23  1  0.33299890  0.66571152  0.81503036  1
  In  In24  1  0.00229258  0.00262347  0.35100830  1
  In  In25  1  0.66822293  0.33642967  0.68395339  1
  In  In26  1  0.65962364  0.32557964  0.18243450  1
  Si  Si27  1  0.29888405  0.00502240  0.25180474  1
  Si  Si28  1  0.28539780  0.28693984  0.75036819  1
  Si  Si29  1  0.00259937  0.71466386  0.75045682  1
  Si  Si30  1  0.71128672  0.99786389  0.75092332  1
  Si  Si31  1  0.96136116  0.33290917  0.58518012  1
  Si  Si32  1  0.66763123  0.62842824  0.58521603  1
  Si  Si33  1  0.95790647  0.62023852  0.08507928  1
  Si  Si34  1  0.66745065  0.04266441  0.08227426  1
  Si  Si35  1  0.37763984  0.33685435  0.08284795  1
  Si  Si36  1  0.62439166  0.66547139  0.91716310  1
  Si  Si37  1  0.03981188  0.37464260  0.91609393  1
  Si  Si38  1  0.33470656  0.95937740  0.91694609  1
  Si  Si39  1  0.61979014  0.95620685  0.41730230  1
  Si  Si40  1  0.33559450  0.37970977  0.41693639  1
  Si  Si41  1  0.04500789  0.66456997  0.41686423  1
  P  P42  1  0.70656376  0.70849725  0.25024834  1
  P  P43  1  0.00140460  0.29322639  0.25118181  1
  P  P44  1  0.37246457  0.03908915  0.58359865  1
  O  O45  1  0.21553952  0.02084137  0.31246428  1
  O  O46  1  0.80832170  0.78462763  0.30726876  1
  O  O47  1  0.97443239  0.19585699  0.30900766  1
  O  O48  1  0.18946519  0.16536737  0.80689687  1
  O  O49  1  0.97660131  0.81163233  0.80684533  1
  O  O50  1  0.83528109  0.02600077  0.80685758  1
  O  O51  1  0.80390139  0.96525285  0.69288223  1
  O  O52  1  0.16078624  0.19557362  0.69275768  1
  O  O53  1  0.03559467  0.83951299  0.69290357  1
  O  O54  1  0.79655840  0.82315618  0.19562515  1
  O  O55  1  0.02055038  0.19459799  0.19810606  1
  O  O56  1  0.16701006  0.97240577  0.19437823  1
  O  O57  1  0.89044629  0.36872656  0.64469080  1
  O  O58  1  0.47549642  0.10843606  0.64006247  1
  O  O59  1  0.62626218  0.52029003  0.64461923  1
  O  O60  1  0.89160627  0.52193716  0.14631081  1
  O  O61  1  0.60992846  0.10509998  0.13900590  1
  O  O62  1  0.49625854  0.39085957  0.13976810  1
  O  O63  1  0.46528445  0.29423211  0.02660938  1
  O  O64  1  0.82653781  0.52856225  0.02942785  1
  O  O65  1  0.69805091  0.16683932  0.02562766  1
  O  O66  1  0.46765993  0.15682778  0.52878827  1
  O  O67  1  0.69003041  0.52647954  0.52676971  1
  O  O68  1  0.83660089  0.30704083  0.52661232  1
  O  O69  1  0.53043377  0.69217747  0.97423241  1
  O  O70  1  0.16486842  0.47441913  0.97177821  1
  O  O71  1  0.30873692  0.84026120  0.97432445  1
  O  O72  1  0.52487896  0.83211113  0.47250326  1
  O  O73  1  0.30956279  0.47730447  0.47280171  1
  O  O74  1  0.17027419  0.69301468  0.47177243  1
  O  O75  1  0.13215022  0.62945379  0.35782716  1
  O  O76  1  0.49441486  0.86277041  0.35932185  1
  O  O77  1  0.36902309  0.50600519  0.35968613  1
  O  O78  1  0.13500476  0.49502192  0.85729481  1
  O  O79  1  0.35946449  0.86325569  0.85818160  1
  O  O80  1  0.50341616  0.64022834  0.85846036  1
  O  O81  1  0.01726754  0.82717108  0.41470824  1
  O  O82  1  0.80755218  0.97781612  0.41300015  1
  O  O83  1  0.16677268  0.19361612  0.41534314  1
  O  O84  1  0.02467197  0.18841222  0.90999240  1
  O  O85  1  0.16403996  0.97526968  0.90977435  1
  O  O86  1  0.81075413  0.83608037  0.90963664  1
  O  O87  1  0.97951091  0.16107578  0.58813574  1
  O  O88  1  0.19661248  0.02627032  0.58670362  1
  O  O89  1  0.84299433  0.81556188  0.58825348  1
  O  O90  1  0.97521794  0.81460573  0.09143865  1
  O  O91  1  0.83521884  0.01538145  0.09143457  1
  O  O92  1  0.18758547  0.16007385  0.09205010  1
  O  O93  1  0.68807805  0.16348051  0.74733229  1
  O  O94  1  0.47229414  0.30515915  0.74782583  1
  O  O95  1  0.83513864  0.52687645  0.74918742  1
  O  O96  1  0.69470857  0.53455271  0.24551687  1
  O  O97  1  0.85354531  0.32803008  0.24550594  1
  O  O98  1  0.48596830  0.16612383  0.24724774  1
  O  O99  1  0.64025896  0.49480800  0.92423573  1
  O  O100  1  0.85494573  0.36149936  0.92373439  1
  O  O101  1  0.50572380  0.14608789  0.92303639  1
  O  O102  1  0.63154947  0.14307027  0.42368294  1
  O  O103  1  0.50797156  0.36293519  0.42413523  1
  O  O104  1  0.85555775  0.48835807  0.42401908  1
  O  O105  1  0.35131358  0.50152044  0.07219619  1
  O  O106  1  0.15440971  0.66126596  0.07437825  1
  O  O107  1  0.50347484  0.84783285  0.07227104  1
  O  O108  1  0.35189604  0.86165649  0.57310600  1
  O  O109  1  0.50338489  0.65498388  0.57303696  1
  O  O110  1  0.14955502  0.50151068  0.57314440  1
  O  O111  1  0.29787412  0.81810982  0.25532314  1
  O  O112  1  0.52808197  0.69363274  0.25515857  1
  O  O113  1  0.17004613  0.47165203  0.25427685  1
  O  O114  1  0.30114822  0.47664896  0.75616012  1
  O  O115  1  0.17723056  0.70002304  0.75605579  1
  O  O116  1  0.52297204  0.82237117  0.75596742  1
