# generated using pymatgen
data_Na4Ca2La2SiS5O24
_symmetry_space_group_name_H-M   'P 1'
_cell_length_a   9.47087986
_cell_length_b   9.42593250
_cell_length_c   24.56464985
_cell_angle_alpha   90.22679396
_cell_angle_beta   89.45236302
_cell_angle_gamma   119.81566876
_symmetry_Int_Tables_number   1
_chemical_formula_structural   Na4Ca2La2SiS5O24
_chemical_formula_sum   'Na12 Ca6 La6 Si3 S15 O72'
_cell_volume   1902.56510620
_cell_formula_units_Z   3
loop_
 _symmetry_equiv_pos_site_id
 _symmetry_equiv_pos_as_xyz
  1  'x, y, z'
loop_
 _atom_site_type_symbol
 _atom_site_label
 _atom_site_symmetry_multiplicity
 _atom_site_fract_x
 _atom_site_fract_y
 _atom_site_fract_z
 _atom_site_occupancy
  Na  Na0  1  0.99291848  0.62990912  0.23607923  1
  Na  Na1  1  0.98160151  0.33982138  0.76295086  1
  Na  Na2  1  0.37563565  0.99639745  0.75413017  1
  Na  Na3  1  0.65271049  0.97623665  0.59282169  1
  Na  Na4  1  0.68106799  0.67791681  0.07423680  1
  Na  Na5  1  0.33877842  0.03598314  0.42318092  1
  Na  Na6  1  0.02593244  0.00357273  0.50268662  1
  Na  Na7  1  0.01550451  0.98652604  0.00605621  1
  Na  Na8  1  0.66530307  0.32659290  0.84698817  1
  Na  Na9  1  0.66638650  0.33362120  0.32820085  1
  Na  Na10  1  0.30877131  0.66223055  0.16149823  1
  Na  Na11  1  0.36811042  0.69963769  0.67188167  1
  Ca  Ca12  1  0.99293205  0.00554931  0.34749544  1
  Ca  Ca13  1  0.67028084  0.32943799  0.18068429  1
  Ca  Ca14  1  0.68217323  0.34096011  0.98744287  1
  Ca  Ca15  1  0.66259153  0.33413538  0.48266042  1
  Ca  Ca16  1  0.34010919  0.66081872  0.31746667  1
  Ca  Ca17  1  0.35627906  0.67880158  0.82067240  1
  La  La18  1  0.97320907  0.98849135  0.85224929  1
  La  La19  1  0.00337617  0.99240247  0.64855218  1
  La  La20  1  0.00869155  0.00629806  0.15092743  1
  La  La21  1  0.65438230  0.32647532  0.67852341  1
  La  La22  1  0.30857026  0.66936275  0.01910999  1
  La  La23  1  0.32512094  0.66514479  0.51366986  1
  Si  Si24  1  0.69307532  0.00105900  0.74355882  1
  Si  Si25  1  0.35960434  0.02363397  0.57848117  1
  Si  Si26  1  0.96130639  0.63584175  0.09067377  1
  S  S27  1  0.30249609  0.99510469  0.25624930  1
  S  S28  1  0.70015457  0.69567005  0.25095527  1
  S  S29  1  0.99839606  0.31218315  0.25301638  1
  S  S30  1  0.29451940  0.30286241  0.75251702  1
  S  S31  1  0.01115533  0.69090827  0.75249954  1
  S  S32  1  0.96286560  0.32926349  0.58178252  1
  S  S33  1  0.66806259  0.64242104  0.57985728  1
  S  S34  1  0.66648294  0.02904697  0.08285994  1
  S  S35  1  0.37782833  0.33854190  0.08267430  1
  S  S36  1  0.62914222  0.65281471  0.92071257  1
  S  S37  1  0.02603844  0.36856469  0.91167580  1
  S  S38  1  0.34004996  0.98193013  0.91220644  1
  S  S39  1  0.63417782  0.97087081  0.41587854  1
  S  S40  1  0.33304866  0.35403413  0.41424764  1
  S  S41  1  0.03039729  0.67296192  0.41108979  1
  O  O42  1  0.22402577  0.01255184  0.30645468  1
  O  O43  1  0.80771782  0.79098163  0.29658045  1
  O  O44  1  0.99247773  0.21652313  0.30101895  1
  O  O45  1  0.21231406  0.19347396  0.79966710  1
  O  O46  1  0.99482302  0.77639493  0.80084669  1
  O  O47  1  0.82222585  0.02543271  0.79292511  1
  O  O48  1  0.77433179  0.99337283  0.68457212  1
  O  O49  1  0.20267666  0.22421265  0.70184752  1
  O  O50  1  0.03170432  0.79010239  0.70288495  1
  O  O51  1  0.77314274  0.78621989  0.19871402  1
  O  O52  1  0.01104310  0.23225610  0.20213905  1
  O  O53  1  0.19842192  0.97908522  0.20787256  1
  O  O54  1  0.89526743  0.34624749  0.63508534  1
  O  O55  1  0.46145752  0.11320258  0.63566272  1
  O  O56  1  0.66755931  0.56271279  0.63199248  1
  O  O57  1  0.88809804  0.55234371  0.14964670  1
  O  O58  1  0.65083834  0.10742685  0.13276076  1
  O  O59  1  0.46619999  0.34102215  0.13222248  1
  O  O60  1  0.45491853  0.32029235  0.03290015  1
  O  O61  1  0.84305059  0.53843056  0.04009823  1
  O  O62  1  0.67006467  0.11749148  0.03334010  1
  O  O63  1  0.45352442  0.12476311  0.52389879  1
  O  O64  1  0.67622055  0.55061961  0.53267411  1
  O  O65  1  0.86271525  0.33153406  0.53670834  1
  O  O66  1  0.54806302  0.66234917  0.97163668  1
  O  O67  1  0.12416333  0.46175793  0.95945855  1
  O  O68  1  0.32795253  0.87941591  0.96016075  1
  O  O69  1  0.56406551  0.88253933  0.46878461  1
  O  O70  1  0.32120492  0.43355920  0.46538954  1
  O  O71  1  0.13285276  0.69022540  0.46032222  1
  O  O72  1  0.11210131  0.65541206  0.36197082  1
  O  O73  1  0.52401381  0.87369500  0.37109437  1
  O  O74  1  0.33998104  0.45163560  0.36663395  1
  O  O75  1  0.10845217  0.45135623  0.85999222  1
  O  O76  1  0.34529392  0.89929088  0.86080353  1
  O  O77  1  0.53970348  0.65631499  0.87194902  1
  O  O78  1  0.02626378  0.82949174  0.40937937  1
  O  O79  1  0.79914626  0.99390611  0.40952544  1
  O  O80  1  0.18847213  0.18463514  0.41227963  1
  O  O81  1  0.01080439  0.20292170  0.91422666  1
  O  O82  1  0.19155494  0.99969548  0.91280182  1
  O  O83  1  0.79670924  0.80192224  0.91951044  1
  O  O84  1  0.96057016  0.16913200  0.58075353  1
  O  O85  1  0.17385753  0.99734329  0.58201070  1
  O  O86  1  0.80988552  0.81303441  0.57844089  1
  O  O87  1  0.97478720  0.82149129  0.08815789  1
  O  O88  1  0.81738144  0.01398806  0.08450176  1
  O  O89  1  0.20532078  0.20247180  0.08532526  1
  O  O90  1  0.67860829  0.17153188  0.74717640  1
  O  O91  1  0.46158238  0.32540790  0.74873778  1
  O  O92  1  0.86606658  0.52469253  0.74850810  1
  O  O93  1  0.69237609  0.53317945  0.24967446  1
  O  O94  1  0.84960902  0.32956210  0.25201731  1
  O  O95  1  0.46781835  0.13730924  0.24976992  1
  O  O96  1  0.64618972  0.50554741  0.91919134  1
  O  O97  1  0.86164267  0.35073161  0.91467634  1
  O  O98  1  0.48872101  0.14370182  0.91607314  1
  O  O99  1  0.63976158  0.13244867  0.41728665  1
  O  O100  1  0.48120042  0.33522392  0.41490185  1
  O  O101  1  0.86559992  0.53061727  0.41762578  1
  O  O102  1  0.37844694  0.49941928  0.08071446  1
  O  O103  1  0.14925327  0.66362385  0.08510881  1
  O  O104  1  0.52628117  0.85516866  0.08090753  1
  O  O105  1  0.35953357  0.84564081  0.57993023  1
  O  O106  1  0.51843424  0.65791446  0.57925055  1
  O  O107  1  0.13302803  0.46470040  0.57765357  1
  O  O108  1  0.30690019  0.83857152  0.25766079  1
  O  O109  1  0.53505530  0.67364792  0.25686533  1
  O  O110  1  0.14260050  0.48192292  0.25477393  1
  O  O111  1  0.29893445  0.46094333  0.75861125  1
  O  O112  1  0.15846020  0.67357110  0.75686928  1
  O  O113  1  0.50920418  0.84523945  0.75062338  1
