# generated using pymatgen
data_Na4Mg(NiO2)5
_symmetry_space_group_name_H-M   'P 1'
_cell_length_a   6.23013266
_cell_length_b   7.17349193
_cell_length_c   6.97284632
_cell_angle_alpha   114.12027716
_cell_angle_beta   86.56351082
_cell_angle_gamma   118.63799738
_symmetry_Int_Tables_number   1
_chemical_formula_structural   Na4Mg(NiO2)5
_chemical_formula_sum   'Na4 Mg1 Ni5 O10'
_cell_volume   246.00661958
_cell_formula_units_Z   1
loop_
 _symmetry_equiv_pos_site_id
 _symmetry_equiv_pos_as_xyz
  1  'x, y, z'
loop_
 _atom_site_type_symbol
 _atom_site_label
 _atom_site_symmetry_multiplicity
 _atom_site_fract_x
 _atom_site_fract_y
 _atom_site_fract_z
 _atom_site_occupancy
  Na  Na0  1  0.80511915  0.64012195  0.63077781  1
  Na  Na1  1  0.65887296  0.17135461  0.20694478  1
  Na  Na2  1  0.35463422  0.81242087  0.79902420  1
  Na  Na3  1  0.26147900  0.33996076  0.41805633  1
  Mg  Mg4  1  0.23172134  0.59799024  0.25041843  1
  Ni  Ni5  1  0.79073543  0.09323495  0.59668986  1
  Ni  Ni6  1  0.41737351  0.28634567  0.81494030  1
  Ni  Ni7  1  0.65940747  0.67745343  0.21659364  1
  Ni  Ni8  1  0.16619470  0.93563979  0.40379920  1
  Ni  Ni9  1  0.94268513  0.51812994  0.95209818  1
  O  O10  1  0.89750262  -0.00172929  0.32859288  1
  O  O11  1  0.69006237  0.60304140  0.93127664  1
  O  O12  1  0.91383257  0.59364902  0.29368829  1
  O  O13  1  0.67204372  0.17951617  0.85517785  1
  O  O14  1  0.47137109  0.21504736  0.52836237  1
  O  O15  1  0.53098793  0.75566130  0.48073255  1
  O  O16  1  0.27461449  0.82326469  0.13444088  1
  O  O17  1  0.02504600  0.41440667  0.66823753  1
  O  O18  1  0.35697944  0.38180218  0.10244258  1
  O  O19  1  0.10433687  0.01477127  0.68400171  1
