# generated using pymatgen
data_Na10Zr4Sc4Si7S5O48
_symmetry_space_group_name_H-M   'P 1'
_cell_length_a   18.25863391
_cell_length_b   9.12715381
_cell_length_c   23.06579575
_cell_angle_alpha   89.98849588
_cell_angle_beta   89.82806071
_cell_angle_gamma   119.95007272
_symmetry_Int_Tables_number   1
_chemical_formula_structural   Na10Zr4Sc4Si7S5O48
_chemical_formula_sum   'Na30 Zr12 Sc12 Si21 S15 O144'
_cell_volume   3330.56725236
_cell_formula_units_Z   3
loop_
 _symmetry_equiv_pos_site_id
 _symmetry_equiv_pos_as_xyz
  1  'x, y, z'
loop_
 _atom_site_type_symbol
 _atom_site_label
 _atom_site_symmetry_multiplicity
 _atom_site_fract_x
 _atom_site_fract_y
 _atom_site_fract_z
 _atom_site_occupancy
  Na  Na0  1  0.18420682  0.37144254  0.24397830  1
  Na  Na1  1  0.68417585  0.37178552  0.24416479  1
  Na  Na2  1  0.99318505  0.62566514  0.25313778  1
  Na  Na3  1  0.49349089  0.62558548  0.25310747  1
  Na  Na4  1  0.49373018  0.35927248  0.75618237  1
  Na  Na5  1  0.18391073  0.99617415  0.74681729  1
  Na  Na6  1  0.68601680  0.99901534  0.74588131  1
  Na  Na7  1  0.65771356  0.33993901  0.58016104  1
  Na  Na8  1  0.01846692  0.70604609  0.58040963  1
  Na  Na9  1  0.82649247  0.95812821  0.58929195  1
  Na  Na10  1  0.49069907  0.67215433  0.91272957  1
  Na  Na11  1  0.99217152  0.67306946  0.91261914  1
  Na  Na12  1  0.85177218  0.03751397  0.90970747  1
  Na  Na13  1  0.15891532  0.29166490  0.92119356  1
  Na  Na14  1  0.49127488  0.31234570  0.41230857  1
  Na  Na15  1  0.98939956  0.30916804  0.41221954  1
  Na  Na16  1  0.35257210  0.66647536  0.40954870  1
  Na  Na17  1  0.85254019  0.66670364  0.41245009  1
  Na  Na18  1  0.01643715  0.00511708  0.49728763  1
  Na  Na19  1  0.51317282  0.99493134  0.49565921  1
  Na  Na20  1  0.01093854  0.01654605  0.99909032  1
  Na  Na21  1  0.51254883  0.03015498  0.99483913  1
  Na  Na22  1  0.33968873  0.32862132  0.83182050  1
  Na  Na23  1  0.84176908  0.33674152  0.82656844  1
  Na  Na24  1  0.33619429  0.33466589  0.32889129  1
  Na  Na25  1  0.83542767  0.33370107  0.33036846  1
  Na  Na26  1  0.17382617  0.66021151  0.16096343  1
  Na  Na27  1  0.67360906  0.66039117  0.16104474  1
  Na  Na28  1  0.17378317  0.67907723  0.66729867  1
  Na  Na29  1  0.67325579  0.68446236  0.66479885  1
  Zr  Zr30  1  0.99843653  0.98716762  0.64944051  1
  Zr  Zr31  1  0.49609131  0.97955495  0.64939271  1
  Zr  Zr32  1  0.99917489  0.01375616  0.14668474  1
  Zr  Zr33  1  0.49891144  0.01265692  0.14674452  1
  Zr  Zr34  1  0.32913470  0.31697079  0.98027533  1
  Zr  Zr35  1  0.82401839  0.32162780  0.98092890  1
  Zr  Zr36  1  0.32554625  0.32900822  0.48073315  1
  Zr  Zr37  1  0.82704062  0.34039940  0.48136990  1
  Zr  Zr38  1  0.16498089  0.65264015  0.31396932  1
  Zr  Zr39  1  0.66444133  0.65301715  0.31439284  1
  Zr  Zr40  1  0.16244511  0.67527098  0.81390440  1
  Zr  Zr41  1  0.66575005  0.67823530  0.81470778  1
  Sc  Sc42  1  0.00061668  0.99792669  0.35132750  1
  Sc  Sc43  1  0.50127511  0.99894086  0.35084538  1
  Sc  Sc44  1  0.99746780  0.99752119  0.84906925  1
  Sc  Sc45  1  0.49721450  0.00411056  0.85327378  1
  Sc  Sc46  1  0.33209541  0.32341808  0.68691716  1
  Sc  Sc47  1  0.83452286  0.33506523  0.68648831  1
  Sc  Sc48  1  0.33322085  0.34321990  0.18432571  1
  Sc  Sc49  1  0.83306370  0.34305093  0.18458278  1
  Sc  Sc50  1  0.16035452  0.65152307  0.01798710  1
  Sc  Sc51  1  0.65783484  0.64767552  0.01805491  1
  Sc  Sc52  1  0.16258822  0.66974465  0.51666461  1
  Sc  Sc53  1  0.66036679  0.66768100  0.51886009  1
  Si  Si54  1  0.35434903  0.71041885  0.25064543  1
  Si  Si55  1  0.85436871  0.71075509  0.25058008  1
  Si  Si56  1  0.99511145  0.28889206  0.25273865  1
  Si  Si57  1  0.49516770  0.28909745  0.25265663  1
  Si  Si58  1  0.99558219  0.69780895  0.75232573  1
  Si  Si59  1  0.49582190  0.70019654  0.75385081  1
  Si  Si60  1  0.35367528  0.99733336  0.75027189  1
  Si  Si61  1  0.85294562  0.00256271  0.75095279  1
  Si  Si62  1  0.18636583  0.03434368  0.58647075  1
  Si  Si63  1  0.68523625  0.03772554  0.58610260  1
  Si  Si64  1  0.83112113  0.62667350  0.58452515  1
  Si  Si65  1  0.18654351  0.33824514  0.08443503  1
  Si  Si66  1  0.68511608  0.33830787  0.08655587  1
  Si  Si67  1  0.01950161  0.37026784  0.91760913  1
  Si  Si68  1  0.51974847  0.36836277  0.91630429  1
  Si  Si69  1  0.16469981  0.95721039  0.91829097  1
  Si  Si70  1  0.66324751  0.95631323  0.91944615  1
  Si  Si71  1  0.16350928  0.36981180  0.41878760  1
  Si  Si72  1  0.66321981  0.36718364  0.41924719  1
  Si  Si73  1  0.01949818  0.67000123  0.41750116  1
  Si  Si74  1  0.51979226  0.67115810  0.41712007  1
  S  S75  1  0.14605097  0.00071705  0.24936988  1
  S  S76  1  0.64617624  0.00073353  0.24927584  1
  S  S77  1  0.14684008  0.29444055  0.75025144  1
  S  S78  1  0.64513808  0.29004917  0.74953834  1
  S  S79  1  0.47911382  0.33171100  0.58368643  1
  S  S80  1  0.98026100  0.33401255  0.58260842  1
  S  S81  1  0.33164750  0.62342876  0.58340520  1
  S  S82  1  0.48019096  0.62806852  0.08368052  1
  S  S83  1  0.98038753  0.62796977  0.08334147  1
  S  S84  1  0.33120272  0.03830115  0.08463571  1
  S  S85  1  0.83141478  0.03958898  0.08349619  1
  S  S86  1  0.31211861  0.66802740  0.91787126  1
  S  S87  1  0.81181688  0.66604392  0.91792064  1
  S  S88  1  0.31212808  0.95828099  0.41718725  1
  S  S89  1  0.81231994  0.95874604  0.41745305  1
  O  O90  1  0.10760001  0.03030803  0.30146632  1
  O  O91  1  0.60772324  0.03044996  0.30137378  1
  O  O92  1  0.41161374  0.78903412  0.30891955  1
  O  O93  1  0.91226646  0.78980446  0.30863013  1
  O  O94  1  0.48686032  0.18310394  0.31115842  1
  O  O95  1  0.98726542  0.18313590  0.31114490  1
  O  O96  1  0.10857343  0.19016680  0.80312474  1
  O  O97  1  0.60456465  0.18260739  0.80024080  1
  O  O98  1  0.48702920  0.79079850  0.81108270  1
  O  O99  1  0.98940142  0.79378639  0.81001725  1
  O  O100  1  0.41747346  0.04006935  0.80407440  1
  O  O101  1  0.90828647  0.02366149  0.80903272  1
  O  O102  1  0.40165746  0.97973155  0.69183314  1
  O  O103  1  0.90025556  0.98399387  0.69200085  1
  O  O104  1  0.09348433  0.21284727  0.69860063  1
  O  O105  1  0.59275391  0.21456821  0.69571999  1
  O  O106  1  0.01637364  0.82416958  0.69455414  1
  O  O107  1  0.51719278  0.82799675  0.69659998  1
  O  O108  1  0.40477863  0.82674126  0.19444046  1
  O  O109  1  0.90505643  0.82769652  0.19426769  1
  O  O110  1  0.01810597  0.20410748  0.19709378  1
  O  O111  1  0.51774068  0.20336499  0.19720099  1
  O  O112  1  0.09208693  0.97049767  0.19765522  1
  O  O113  1  0.59207773  0.97035943  0.19766912  1
  O  O114  1  0.43825059  0.35303837  0.63568033  1
  O  O115  1  0.93916051  0.36007170  0.63316641  1
  O  O116  1  0.24186162  0.12862550  0.64354994  1
  O  O117  1  0.74258171  0.12266397  0.64344134  1
  O  O118  1  0.32322693  0.52076639  0.63417176  1
  O  O119  1  0.81776281  0.49994659  0.63711425  1
  O  O120  1  0.43919478  0.52372972  0.13645174  1
  O  O121  1  0.93923942  0.52420087  0.13605046  1
  O  O122  1  0.32327208  0.12476134  0.13615208  1
  O  O123  1  0.82409633  0.12789112  0.13467299  1
  O  O124  1  0.24117164  0.35086220  0.14265099  1
  O  O125  1  0.74009142  0.35159627  0.14456230  1
  O  O126  1  0.23464203  0.31440285  0.02650680  1
  O  O127  1  0.73533173  0.31362085  0.03025047  1
  O  O128  1  0.42846812  0.54462853  0.03131884  1
  O  O129  1  0.92893013  0.54514318  0.03077082  1
  O  O130  1  0.34558972  0.14517930  0.03153799  1
  O  O131  1  0.84563419  0.14415278  0.02961452  1
  O  O132  1  0.23625064  0.15572339  0.52941981  1
  O  O133  1  0.73410274  0.16388684  0.52965056  1
  O  O134  1  0.34520799  0.54696889  0.52914708  1
  O  O135  1  0.85186218  0.54866179  0.52491164  1
  O  O136  1  0.42864061  0.31185660  0.53057177  1
  O  O137  1  0.92883131  0.30619438  0.52889378  1
  O  O138  1  0.27193530  0.68974288  0.96971015  1
  O  O139  1  0.77228548  0.69143507  0.96915931  1
  O  O140  1  0.08242883  0.45698250  0.97229887  1
  O  O141  1  0.57863061  0.46362853  0.97181020  1
  O  O142  1  0.15139178  0.83357857  0.97220687  1
  O  O143  1  0.65472516  0.83556751  0.97306681  1
  O  O144  1  0.27200412  0.85402873  0.46893114  1
  O  O145  1  0.77362056  0.85633396  0.47008126  1
  O  O146  1  0.15416251  0.47285666  0.47255893  1
  O  O147  1  0.65218086  0.45959341  0.47600834  1
  O  O148  1  0.07513742  0.69218005  0.47549067  1
  O  O149  1  0.57919345  0.69344511  0.47183061  1
  O  O150  1  0.06644603  0.64414250  0.35974273  1
  O  O151  1  0.56241045  0.63994803  0.35779706  1
  O  O152  1  0.26045841  0.88387883  0.36471311  1
  O  O153  1  0.75973903  0.88006773  0.36551281  1
  O  O154  1  0.18461127  0.49005364  0.35945209  1
  O  O155  1  0.68226789  0.49090240  0.36107767  1
  O  O156  1  0.06579752  0.49377575  0.86116351  1
  O  O157  1  0.56291180  0.48776603  0.85735547  1
  O  O158  1  0.18109028  0.87848689  0.85807963  1
  O  O159  1  0.68523732  0.87968686  0.85966500  1
  O  O160  1  0.25880802  0.63543344  0.86542711  1
  O  O161  1  0.76084838  0.63725716  0.86488864  1
  O  O162  1  0.00126525  0.82680451  0.41254583  1
  O  O163  1  0.50005301  0.82621213  0.41231613  1
  O  O164  1  0.39684581  0.97432094  0.41183673  1
  O  O165  1  0.89702500  0.97307856  0.41149551  1
  O  O166  1  0.07843359  0.18800410  0.41208616  1
  O  O167  1  0.57768200  0.18580746  0.41153306  1
  O  O168  1  0.00617082  0.17967917  0.91156359  1
  O  O169  1  0.50633422  0.18038026  0.91127234  1
  O  O170  1  0.08128332  0.98015910  0.91204150  1
  O  O171  1  0.57853531  0.96827228  0.91193274  1
  O  O172  1  0.39776088  0.81381895  0.91186694  1
  O  O173  1  0.89746853  0.81934227  0.91214507  1
  O  O174  1  0.48981031  0.18017910  0.58809126  1
  O  O175  1  0.98801531  0.18006898  0.58860658  1
  O  O176  1  0.09172015  0.01763624  0.58827813  1
  O  O177  1  0.59378328  0.03692738  0.58863241  1
  O  O178  1  0.41008218  0.79478601  0.58676225  1
  O  O179  1  0.91677441  0.81762521  0.58851215  1
  O  O180  1  0.48749587  0.79695125  0.08912235  1
  O  O181  1  0.98773782  0.79731848  0.08853115  1
  O  O182  1  0.40938729  0.02366804  0.08826547  1
  O  O183  1  0.91006574  0.02510578  0.08741226  1
  O  O184  1  0.09276421  0.16124156  0.08830210  1
  O  O185  1  0.59218362  0.16133340  0.08923523  1
  O  O186  1  0.34094474  0.16485068  0.74410799  1
  O  O187  1  0.83462556  0.16003089  0.74608314  1
  O  O188  1  0.23072571  0.30641938  0.74367094  1
  O  O189  1  0.72905786  0.30557759  0.74358267  1
  O  O190  1  0.41694273  0.51073974  0.74269712  1
  O  O191  1  0.91368078  0.51422018  0.74436740  1
  O  O192  1  0.34100386  0.51693612  0.24463932  1
  O  O193  1  0.84150620  0.51769276  0.24453496  1
  O  O194  1  0.41627940  0.32160851  0.24315062  1
  O  O195  1  0.91639641  0.32157160  0.24305991  1
  O  O196  1  0.23071419  0.15242186  0.24283856  1
  O  O197  1  0.73082156  0.15228613  0.24280140  1
  O  O198  1  0.32120936  0.51177107  0.92359604  1
  O  O199  1  0.82630606  0.51830112  0.92385533  1
  O  O200  1  0.42918905  0.37241761  0.92411028  1
  O  O201  1  0.92722319  0.36224599  0.92514879  1
  O  O202  1  0.24796727  0.15255045  0.92199797  1
  O  O203  1  0.75260284  0.14295676  0.92371438  1
  O  O204  1  0.32588126  0.13407110  0.42339520  1
  O  O205  1  0.82624273  0.13361531  0.42280924  1
  O  O206  1  0.25246555  0.36162460  0.42319590  1
  O  O207  1  0.75209406  0.35931198  0.42055850  1
  O  O208  1  0.42679564  0.49020702  0.42418806  1
  O  O209  1  0.92807214  0.48719595  0.42141867  1
  O  O210  1  0.17820482  0.50735605  0.07940509  1
  O  O211  1  0.67785520  0.50763050  0.08022218  1
  O  O212  1  0.06517116  0.64590235  0.07916339  1
  O  O213  1  0.56502754  0.64633410  0.07970370  1
  O  O214  1  0.25648625  0.87131026  0.07822520  1
  O  O215  1  0.75710497  0.87189007  0.07798521  1
  O  O216  1  0.17185529  0.84212869  0.57997930  1
  O  O217  1  0.67911505  0.85468305  0.57786218  1
  O  O218  1  0.25693175  0.64351320  0.57708139  1
  O  O219  1  0.74792237  0.64713499  0.57756351  1
  O  O220  1  0.06487464  0.48758319  0.57730766  1
  O  O221  1  0.56512765  0.48233202  0.57958376  1
  O  O222  1  0.15306260  0.84602050  0.25604256  1
  O  O223  1  0.65316515  0.84613851  0.25601895  1
  O  O224  1  0.25896740  0.68833257  0.25471690  1
  O  O225  1  0.75887895  0.68801809  0.25501257  1
  O  O226  1  0.08285609  0.48190394  0.25551227  1
  O  O227  1  0.58302007  0.48170239  0.25542987  1
  O  O228  1  0.15755740  0.46504942  0.75587705  1
  O  O229  1  0.65215716  0.45919526  0.75511093  1
  O  O230  1  0.08574965  0.69264007  0.75416052  1
  O  O231  1  0.58360501  0.68377703  0.75488519  1
  O  O232  1  0.25919022  0.82926564  0.75435877  1
  O  O233  1  0.75862001  0.82675783  0.75440970  1
