# generated using pymatgen
data_Na10Ti4Al4Si7S5O48
_symmetry_space_group_name_H-M   'P 1'
_cell_length_a   17.50655127
_cell_length_b   8.74727745
_cell_length_c   21.94757052
_cell_angle_alpha   89.81775627
_cell_angle_beta   90.00574492
_cell_angle_gamma   119.89186012
_symmetry_Int_Tables_number   1
_chemical_formula_structural   Na10Ti4Al4Si7S5O48
_chemical_formula_sum   'Na30 Ti12 Al12 Si21 S15 O144'
_cell_volume   2913.80153747
_cell_formula_units_Z   3
loop_
 _symmetry_equiv_pos_site_id
 _symmetry_equiv_pos_as_xyz
  1  'x, y, z'
loop_
 _atom_site_type_symbol
 _atom_site_label
 _atom_site_symmetry_multiplicity
 _atom_site_fract_x
 _atom_site_fract_y
 _atom_site_fract_z
 _atom_site_occupancy
  Na  Na0  1  0.18414880  0.36987562  0.24457127  1
  Na  Na1  1  0.68416360  0.37047113  0.24507718  1
  Na  Na2  1  0.99601768  0.63128661  0.25231246  1
  Na  Na3  1  0.49630755  0.63108109  0.25221800  1
  Na  Na4  1  0.49607504  0.35940536  0.75501210  1
  Na  Na5  1  0.18379735  0.99792024  0.74731283  1
  Na  Na6  1  0.68514113  0.99867707  0.74659601  1
  Na  Na7  1  0.65379819  0.33593689  0.58167824  1
  Na  Na8  1  0.01819890  0.70441936  0.58019155  1
  Na  Na9  1  0.83019057  0.96389891  0.58774143  1
  Na  Na10  1  0.48658815  0.66610458  0.91504985  1
  Na  Na11  1  0.98782213  0.66865230  0.91430135  1
  Na  Na12  1  0.85205873  0.03637321  0.91099984  1
  Na  Na13  1  0.16213593  0.29783200  0.92010157  1
  Na  Na14  1  0.48736521  0.30940682  0.41431032  1
  Na  Na15  1  0.98542930  0.30603372  0.41399809  1
  Na  Na16  1  0.35313299  0.66805303  0.41084976  1
  Na  Na17  1  0.85250407  0.66774038  0.41255031  1
  Na  Na18  1  0.01404132  0.00678081  0.49844055  1
  Na  Na19  1  0.50861576  0.99269659  0.49785535  1
  Na  Na20  1  0.00717680  0.01063117  0.00138929  1
  Na  Na21  1  0.50756733  0.02383362  0.99715669  1
  Na  Na22  1  0.33752335  0.32889786  0.83230308  1
  Na  Na23  1  0.83956014  0.33925215  0.82800539  1
  Na  Na24  1  0.33358648  0.32891169  0.33014211  1
  Na  Na25  1  0.83288027  0.32778608  0.33152223  1
  Na  Na26  1  0.17302763  0.66720258  0.16153174  1
  Na  Na27  1  0.67285842  0.66759756  0.16183837  1
  Na  Na28  1  0.17285550  0.66935866  0.66726490  1
  Na  Na29  1  0.67111710  0.67835649  0.66555204  1
  Ti  Ti30  1  0.99838152  0.98229586  0.64748978  1
  Ti  Ti31  1  0.49533840  0.97816412  0.64814511  1
  Ti  Ti32  1  0.99990719  0.01726850  0.14550471  1
  Ti  Ti33  1  0.49935526  0.01608877  0.14538051  1
  Ti  Ti34  1  0.32807447  0.31358447  0.97789189  1
  Ti  Ti35  1  0.82213157  0.31820078  0.97890748  1
  Ti  Ti36  1  0.32490057  0.33108381  0.47814564  1
  Ti  Ti37  1  0.82619121  0.34321770  0.47984157  1
  Ti  Ti38  1  0.16236484  0.64333027  0.31177503  1
  Ti  Ti39  1  0.66195369  0.64406959  0.31228607  1
  Ti  Ti40  1  0.15956820  0.67725991  0.81172260  1
  Ti  Ti41  1  0.66362331  0.68281243  0.81291043  1
  Al  Al42  1  0.00189292  0.99823891  0.35267416  1
  Al  Al43  1  0.50340595  0.99858897  0.35220003  1
  Al  Al44  1  0.99984790  0.00099225  0.85135097  1
  Al  Al45  1  0.49789849  0.00320159  0.85466159  1
  Al  Al46  1  0.33322352  0.32084707  0.68886639  1
  Al  Al47  1  0.83336401  0.33036642  0.68728128  1
  Al  Al48  1  0.33585778  0.35082353  0.18588595  1
  Al  Al49  1  0.83566115  0.35068034  0.18619645  1
  Al  Al50  1  0.15888072  0.64514018  0.01785141  1
  Al  Al51  1  0.65568054  0.64325263  0.01828772  1
  Al  Al52  1  0.16274163  0.67327955  0.51678012  1
  Al  Al53  1  0.66171905  0.66723625  0.52074038  1
  Si  Si54  1  0.35743599  0.71863155  0.25088810  1
  Si  Si55  1  0.85722960  0.71858223  0.25076401  1
  Si  Si56  1  0.99030781  0.27737388  0.25201321  1
  Si  Si57  1  0.49044408  0.27755871  0.25198026  1
  Si  Si58  1  0.99065808  0.69805806  0.75297565  1
  Si  Si59  1  0.49088722  0.70192620  0.75326827  1
  Si  Si60  1  0.35593440  0.99533114  0.75187094  1
  Si  Si61  1  0.85796085  0.00503936  0.75157573  1
  Si  Si62  1  0.19166699  0.03962264  0.58638017  1
  Si  Si63  1  0.68678365  0.03807598  0.58557312  1
  Si  Si64  1  0.82908461  0.61901772  0.58562555  1
  Si  Si65  1  0.19089241  0.34346978  0.08470846  1
  Si  Si66  1  0.68877109  0.34353638  0.08649213  1
  Si  Si67  1  0.02130482  0.37110018  0.91720302  1
  Si  Si68  1  0.52265396  0.36753269  0.91673848  1
  Si  Si69  1  0.16394342  0.94854641  0.91979068  1
  Si  Si70  1  0.66085131  0.95016289  0.92106510  1
  Si  Si71  1  0.16120830  0.37149251  0.42029259  1
  Si  Si72  1  0.66090307  0.36709853  0.41971779  1
  Si  Si73  1  0.02343440  0.67600649  0.41723429  1
  Si  Si74  1  0.52532297  0.67734976  0.41837098  1
  S  S75  1  0.14638942  0.00248266  0.24975069  1
  S  S76  1  0.64636305  0.00236254  0.24947430  1
  S  S77  1  0.14582805  0.29178502  0.74972121  1
  S  S78  1  0.64528350  0.28853908  0.75010352  1
  S  S79  1  0.47714919  0.33434199  0.58386823  1
  S  S80  1  0.98084475  0.33659553  0.58294607  1
  S  S81  1  0.32989609  0.61803849  0.58370834  1
  S  S82  1  0.47945532  0.62411350  0.08340235  1
  S  S83  1  0.97938091  0.62329578  0.08313290  1
  S  S84  1  0.33018395  0.04281047  0.08488991  1
  S  S85  1  0.83017379  0.04312727  0.08414770  1
  S  S86  1  0.31062365  0.67231144  0.91781733  1
  S  S87  1  0.80912155  0.66549250  0.91812605  1
  S  S88  1  0.30896474  0.95320297  0.41764053  1
  S  S89  1  0.80974300  0.95434573  0.41731708  1
  O  O90  1  0.10657787  0.03763452  0.30463296  1
  O  O91  1  0.60672544  0.03778740  0.30448678  1
  O  O92  1  0.41970990  0.80132647  0.31070064  1
  O  O93  1  0.91992781  0.80100577  0.31036557  1
  O  O94  1  0.48290488  0.16577697  0.31252519  1
  O  O95  1  0.98338023  0.16648013  0.31255106  1
  O  O96  1  0.10766446  0.18041461  0.80573220  1
  O  O97  1  0.60410114  0.17343207  0.80357453  1
  O  O98  1  0.48315512  0.79975148  0.81270723  1
  O  O99  1  0.98566105  0.80134008  0.81249702  1
  O  O100  1  0.42453293  0.04308999  0.80682378  1
  O  O101  1  0.91628544  0.03009622  0.81177386  1
  O  O102  1  0.40583540  0.97446701  0.69022777  1
  O  O103  1  0.90482316  0.97759221  0.68980959  1
  O  O104  1  0.09018003  0.20824710  0.69556038  1
  O  O105  1  0.59041934  0.21308411  0.69357206  1
  O  O106  1  0.01754698  0.83079436  0.69180553  1
  O  O107  1  0.51841762  0.83616183  0.69308720  1
  O  O108  1  0.40802277  0.84017395  0.19123890  1
  O  O109  1  0.90834587  0.84084338  0.19111403  1
  O  O110  1  0.01984712  0.20077321  0.19327236  1
  O  O111  1  0.51954190  0.20002663  0.19326227  1
  O  O112  1  0.08938640  0.96733083  0.19537338  1
  O  O113  1  0.58934356  0.96735641  0.19536648  1
  O  O114  1  0.43552288  0.35955550  0.63884788  1
  O  O115  1  0.93845635  0.36701311  0.63617185  1
  O  O116  1  0.25050279  0.14024686  0.64504195  1
  O  O117  1  0.74961150  0.12879298  0.64451425  1
  O  O118  1  0.32012634  0.50937989  0.63734492  1
  O  O119  1  0.81391896  0.48556254  0.64036352  1
  O  O120  1  0.43805528  0.51374435  0.13940784  1
  O  O121  1  0.93766754  0.51367662  0.13904120  1
  O  O122  1  0.32071589  0.13159952  0.13873194  1
  O  O123  1  0.82138140  0.13418924  0.13777032  1
  O  O124  1  0.24865082  0.35800347  0.14486329  1
  O  O125  1  0.74813295  0.35859536  0.14561256  1
  O  O126  1  0.23848329  0.31048039  0.02413012  1
  O  O127  1  0.73858714  0.30966804  0.02710433  1
  O  O128  1  0.42588580  0.54045324  0.02867485  1
  O  O129  1  0.92592490  0.53964809  0.02807139  1
  O  O130  1  0.34669165  0.15261882  0.02852654  1
  O  O131  1  0.84654451  0.15081756  0.02693697  1
  O  O132  1  0.24098333  0.16909568  0.52623659  1
  O  O133  1  0.73775031  0.17463870  0.52686981  1
  O  O134  1  0.34631633  0.54339177  0.52648808  1
  O  O135  1  0.85302086  0.54267177  0.52284555  1
  O  O136  1  0.42490769  0.31132497  0.52794782  1
  O  O137  1  0.92674758  0.30463007  0.52658773  1
  O  O138  1  0.26971528  0.69692618  0.97295356  1
  O  O139  1  0.76888199  0.69666433  0.97236259  1
  O  O140  1  0.08697613  0.45694130  0.97423836  1
  O  O141  1  0.58253287  0.46252340  0.97496492  1
  O  O142  1  0.14927976  0.81904073  0.97646508  1
  O  O143  1  0.65210934  0.82356045  0.97713738  1
  O  O144  1  0.26790622  0.84138788  0.47257371  1
  O  O145  1  0.77088807  0.84488707  0.47308946  1
  O  O146  1  0.15154628  0.47955141  0.47618973  1
  O  O147  1  0.64802678  0.46441960  0.47825973  1
  O  O148  1  0.08032855  0.70088389  0.47818851  1
  O  O149  1  0.58627619  0.69966929  0.47568451  1
  O  O150  1  0.07032170  0.63982942  0.35733846  1
  O  O151  1  0.56700170  0.63579819  0.35636535  1
  O  O152  1  0.25571872  0.87767592  0.36260505  1
  O  O153  1  0.75546926  0.87436130  0.36279811  1
  O  O154  1  0.18606251  0.49680913  0.35752715  1
  O  O155  1  0.68422202  0.49662641  0.35823782  1
  O  O156  1  0.06893928  0.50412440  0.85843438  1
  O  O157  1  0.56667149  0.50035231  0.85595152  1
  O  O158  1  0.18338734  0.87307931  0.85604399  1
  O  O159  1  0.68639976  0.87583688  0.85805730  1
  O  O160  1  0.25515335  0.63468165  0.86311040  1
  O  O161  1  0.75638941  0.63488681  0.86250969  1
  O  O162  1  0.00699216  0.84166733  0.40941889  1
  O  O163  1  0.50663168  0.84017974  0.40974253  1
  O  O164  1  0.39752130  0.97125683  0.41387337  1
  O  O165  1  0.89869386  0.97152091  0.41257304  1
  O  O166  1  0.07465063  0.18214706  0.41001768  1
  O  O167  1  0.57357060  0.17874831  0.40916018  1
  O  O168  1  0.00938560  0.17467179  0.90855025  1
  O  O169  1  0.50986163  0.17445740  0.90824635  1
  O  O170  1  0.07840067  0.97542356  0.91034716  1
  O  O171  1  0.57423779  0.96553967  0.91003576  1
  O  O172  1  0.39986948  0.82667975  0.91248674  1
  O  O173  1  0.89908258  0.82408083  0.91365175  1
  O  O174  1  0.48842047  0.17739592  0.58821079  1
  O  O175  1  0.98938048  0.17718633  0.58883852  1
  O  O176  1  0.09306086  0.02133611  0.58942086  1
  O  O177  1  0.59159048  0.03468777  0.58895999  1
  O  O178  1  0.41138941  0.79654143  0.58734233  1
  O  O179  1  0.91804407  0.81800835  0.58816073  1
  O  O180  1  0.48764537  0.79999398  0.08911606  1
  O  O181  1  0.98742476  0.79930233  0.08854458  1
  O  O182  1  0.41143151  0.02650133  0.08826975  1
  O  O183  1  0.91185589  0.02711425  0.08779143  1
  O  O184  1  0.09265390  0.15982571  0.09002290  1
  O  O185  1  0.59195791  0.15919219  0.09041357  1
  O  O186  1  0.34343534  0.16977405  0.74383216  1
  O  O187  1  0.83929019  0.16896973  0.74309958  1
  O  O188  1  0.23389406  0.30616034  0.74333571  1
  O  O189  1  0.73253341  0.30303703  0.74418800  1
  O  O190  1  0.40911851  0.50749861  0.73900221  1
  O  O191  1  0.90711579  0.50809165  0.74125721  1
  O  O192  1  0.34347446  0.51771075  0.24376178  1
  O  O193  1  0.84353541  0.51784019  0.24361017  1
  O  O194  1  0.40894993  0.31103934  0.23893954  1
  O  O195  1  0.90900567  0.31104445  0.23882379  1
  O  O196  1  0.23407826  0.16028632  0.24342376  1
  O  O197  1  0.73414495  0.16051570  0.24322654  1
  O  O198  1  0.32209711  0.51154019  0.92335739  1
  O  O199  1  0.82351384  0.51077450  0.92403607  1
  O  O200  1  0.42657602  0.36561684  0.92527562  1
  O  O201  1  0.92484942  0.35964942  0.92454219  1
  O  O202  1  0.25056802  0.15095047  0.92262042  1
  O  O203  1  0.75261705  0.14515049  0.92442493  1
  O  O204  1  0.32302864  0.13598814  0.42366500  1
  O  O205  1  0.82349918  0.13581614  0.42294628  1
  O  O206  1  0.25309038  0.36067080  0.42355177  1
  O  O207  1  0.75292890  0.35818971  0.42099832  1
  O  O208  1  0.42631505  0.49266707  0.42513992  1
  O  O209  1  0.92678360  0.48871219  0.42120160  1
  O  O210  1  0.18167662  0.51897366  0.07634751  1
  O  O211  1  0.68137615  0.51963161  0.07631740  1
  O  O212  1  0.06787635  0.63970508  0.07921809  1
  O  O213  1  0.56819162  0.64130881  0.07973006  1
  O  O214  1  0.25174236  0.86805339  0.07793679  1
  O  O215  1  0.75227904  0.86833588  0.07824553  1
  O  O216  1  0.17831915  0.84135385  0.57685290  1
  O  O217  1  0.68024900  0.84830056  0.57579536  1
  O  O218  1  0.25174671  0.63768669  0.57686402  1
  O  O219  1  0.74283051  0.64072282  0.57535262  1
  O  O220  1  0.06914176  0.49736888  0.57802492  1
  O  O221  1  0.56676404  0.49303122  0.58033240  1
  O  O222  1  0.15372823  0.84216304  0.25652640  1
  O  O223  1  0.65379502  0.84246666  0.25648432  1
  O  O224  1  0.25799814  0.69468683  0.25593811  1
  O  O225  1  0.75772281  0.69421945  0.25590151  1
  O  O226  1  0.08158260  0.47885758  0.25565034  1
  O  O227  1  0.58170087  0.47894952  0.25551394  1
  O  O228  1  0.15604660  0.46829540  0.75588354  1
  O  O229  1  0.65329150  0.46460022  0.75562124  1
  O  O230  1  0.08445851  0.69102902  0.75452424  1
  O  O231  1  0.58240200  0.68475680  0.75493964  1
  O  O232  1  0.25791185  0.82056792  0.75491747  1
  O  O233  1  0.75840147  0.82365903  0.75645673  1
