# generated using pymatgen
data_K5CuSb2
_symmetry_space_group_name_H-M   'P 1'
_cell_length_a   9.97342970
_cell_length_b   9.97343009
_cell_length_c   9.97343102
_cell_angle_alpha   34.70652321
_cell_angle_beta   34.70651759
_cell_angle_gamma   34.70652014
_symmetry_Int_Tables_number   1
_chemical_formula_structural   K5CuSb2
_chemical_formula_sum   'K5 Cu1 Sb2'
_cell_volume   287.01461191
_cell_formula_units_Z   1
loop_
 _symmetry_equiv_pos_site_id
 _symmetry_equiv_pos_as_xyz
  1  'x, y, z'
loop_
 _atom_site_type_symbol
 _atom_site_label
 _atom_site_symmetry_multiplicity
 _atom_site_fract_x
 _atom_site_fract_y
 _atom_site_fract_z
 _atom_site_occupancy
  K  K0  1  0.50000000  0.50000000  0.50000000  1
  K  K1  1  0.36467337  0.36467337  0.36467337  1
  K  K2  1  0.63532663  0.63532663  0.63532663  1
  K  K3  1  0.21678925  0.21678925  0.21678925  1
  K  K4  1  0.78321075  0.78321075  0.78321075  1
  Cu  Cu5  1  -0.00000000  0.00000000  0.00000000  1
  Sb  Sb6  1  0.08827792  0.08827792  0.08827792  1
  Sb  Sb7  1  0.91172208  0.91172208  0.91172208  1
