# generated using pymatgen
data_LaNbP2SO12
_symmetry_space_group_name_H-M   'P 1'
_cell_length_a   9.31400485
_cell_length_b   9.26591388
_cell_length_c   22.83242054
_cell_angle_alpha   91.05427248
_cell_angle_beta   90.00000000
_cell_angle_gamma   120.17183595
_symmetry_Int_Tables_number   1
_chemical_formula_structural   LaNbP2SO12
_chemical_formula_sum   'La6 Nb6 P12 S6 O72'
_cell_volume   1703.15558092
_cell_formula_units_Z   6
loop_
 _symmetry_equiv_pos_site_id
 _symmetry_equiv_pos_as_xyz
  1  'x, y, z'
loop_
 _atom_site_type_symbol
 _atom_site_label
 _atom_site_symmetry_multiplicity
 _atom_site_fract_x
 _atom_site_fract_y
 _atom_site_fract_z
 _atom_site_occupancy
  La  La0  1  0.99689346  0.00262823  0.36873177  1
  La  La1  1  0.00573477  0.00262823  0.86873177  1
  La  La2  1  0.66356046  0.33596123  0.70206477  1
  La  La3  1  0.67240177  0.33596123  0.20206477  1
  La  La4  1  0.33022646  0.66929523  0.03539877  1
  La  La5  1  0.33906777  0.66929523  0.53539877  1
  Nb  Nb6  1  0.98980756  0.00883920  0.64301219  1
  Nb  Nb7  1  0.01903165  0.00883920  0.14301219  1
  Nb  Nb8  1  0.65647456  0.34217220  0.97634519  1
  Nb  Nb9  1  0.68569865  0.34217220  0.47634519  1
  Nb  Nb10  1  0.32314056  0.67550620  0.30967919  1
  Nb  Nb11  1  0.35236465  0.67550620  0.80967919  1
  P  P12  1  0.26259409  0.96770952  0.24920973  1
  P  P13  1  0.04226767  0.29936696  0.25043718  1
  P  P14  1  0.25709928  0.29936696  0.75043718  1
  P  P15  1  0.70511543  0.96770952  0.74920973  1
  P  P16  1  0.92926109  0.30104252  0.58254273  1
  P  P17  1  0.70893467  0.63269996  0.58377018  1
  P  P18  1  0.92376628  0.63269996  0.08377018  1
  P  P19  1  0.37178243  0.30104252  0.08254273  1
  P  P20  1  0.59592709  0.63437652  0.91587673  1
  P  P21  1  0.37560067  0.96603396  0.91710418  1
  P  P22  1  0.59043228  0.96603396  0.41710418  1
  P  P23  1  0.03844843  0.63437652  0.41587673  1
  S  S24  1  0.68976124  0.73699503  0.24953324  1
  S  S25  1  0.04723379  0.73699503  0.74953324  1
  S  S26  1  0.35642824  0.07032803  0.58286624  1
  S  S27  1  0.71390079  0.07032803  0.08286624  1
  S  S28  1  0.02309424  0.40366203  0.91620024  1
  S  S29  1  0.38056679  0.40366203  0.41620024  1
  O  O30  1  0.19165041  0.00079168  0.30311471  1
  O  O31  1  0.78884937  0.80076920  0.30318894  1
  O  O32  1  0.00562788  0.19586247  0.30416676  1
  O  O33  1  0.19023459  0.19586247  0.80416676  1
  O  O34  1  0.01191983  0.80076920  0.80318894  1
  O  O35  1  0.80914127  0.00079168  0.80311471  1
  O  O36  1  0.79559325  0.93984988  0.69435686  1
  O  O37  1  0.13472190  0.20203848  0.69636890  1
  O  O38  1  0.06861211  0.84323394  0.69858313  1
  O  O39  1  0.77462183  0.84323394  0.19858313  1
  O  O40  1  0.06731658  0.20203848  0.19636890  1
  O  O41  1  0.14425663  0.93984988  0.19435686  1
  O  O42  1  0.85831741  0.33412468  0.63644771  1
  O  O43  1  0.45551637  0.13410220  0.63652194  1
  O  O44  1  0.67229488  0.52919547  0.63749976  1
  O  O45  1  0.85690159  0.52919547  0.13749976  1
  O  O46  1  0.67858683  0.13410220  0.13652194  1
  O  O47  1  0.47580827  0.33412468  0.13644771  1
  O  O48  1  0.46226025  0.27318288  0.02768986  1
  O  O49  1  0.80138890  0.53537148  0.02970190  1
  O  O50  1  0.73527911  0.17656694  0.03191613  1
  O  O51  1  0.44128883  0.17656694  0.53191613  1
  O  O52  1  0.73398358  0.53537148  0.52970190  1
  O  O53  1  0.81092363  0.27318288  0.52768986  1
  O  O54  1  0.52498341  0.66745868  0.96978171  1
  O  O55  1  0.12218237  0.46743620  0.96985594  1
  O  O56  1  0.33896088  0.86252947  0.97083376  1
  O  O57  1  0.52356759  0.86252947  0.47083376  1
  O  O58  1  0.34525283  0.46743620  0.46985594  1
  O  O59  1  0.14247427  0.66745868  0.46978171  1
  O  O60  1  0.12892625  0.60651688  0.36102386  1
  O  O61  1  0.46805490  0.86870548  0.36303590  1
  O  O62  1  0.40194511  0.50990094  0.36525013  1
  O  O63  1  0.10795483  0.50990094  0.86525013  1
  O  O64  1  0.40064958  0.86870548  0.86303590  1
  O  O65  1  0.47758963  0.60651688  0.86102386  1
  O  O66  1  0.98708920  0.76041299  0.40258461  1
  O  O67  1  0.76597059  0.01222011  0.40247099  1
  O  O68  1  0.25300764  0.22882010  0.40623740  1
  O  O69  1  0.97581246  0.22882010  0.90623740  1
  O  O70  1  0.24624952  0.01222011  0.90247099  1
  O  O71  1  0.77332378  0.76041299  0.90258461  1
  O  O72  1  0.92381234  0.12567603  0.59084993  1
  O  O73  1  0.19488510  0.07221093  0.59223256  1
  O  O74  1  0.87923350  0.80257526  0.59492109  1
  O  O75  1  0.92334176  0.80257526  0.09492109  1
  O  O76  1  0.87732583  0.07221093  0.09223256  1
  O  O77  1  0.20186369  0.12567603  0.09084993  1
  O  O78  1  0.65375620  0.09374599  0.73591761  1
  O  O79  1  0.43263759  0.34555311  0.73580399  1
  O  O80  1  0.91967464  0.56215310  0.73957040  1
  O  O81  1  0.64247946  0.56215310  0.23957040  1
  O  O82  1  0.91291652  0.34555311  0.23580399  1
  O  O83  1  0.43999078  0.09374599  0.23591761  1
  O  O84  1  0.59047934  0.45900903  0.92418293  1
  O  O85  1  0.86155210  0.40554393  0.92556556  1
  O  O86  1  0.54590050  0.13590826  0.92825409  1
  O  O87  1  0.59000876  0.13590826  0.42825409  1
  O  O88  1  0.54399283  0.40554393  0.42556556  1
  O  O89  1  0.86853069  0.45900903  0.42418293  1
  O  O90  1  0.32042220  0.42707999  0.06925161  1
  O  O91  1  0.09930359  0.67888711  0.06913799  1
  O  O92  1  0.58634064  0.89548710  0.07290440  1
  O  O93  1  0.30914546  0.89548710  0.57290440  1
  O  O94  1  0.57958252  0.67888711  0.56913799  1
  O  O95  1  0.10665678  0.42707999  0.56925161  1
  O  O96  1  0.25714534  0.79234303  0.25751693  1
  O  O97  1  0.52821810  0.73887793  0.25889956  1
  O  O98  1  0.21256650  0.46924226  0.26158809  1
  O  O99  1  0.25667476  0.46924226  0.76158809  1
  O  O100  1  0.21065883  0.73887793  0.75889956  1
  O  O101  1  0.53519669  0.79234303  0.75751693  1
