# generated using pymatgen
data_Ca4Nb2(SO4)9
_symmetry_space_group_name_H-M   'P 1'
_cell_length_a   9.19718106
_cell_length_b   9.19718074
_cell_length_c   23.49101609
_cell_angle_alpha   90.00000000
_cell_angle_beta   90.00000000
_cell_angle_gamma   120.00000116
_symmetry_Int_Tables_number   1
_chemical_formula_structural   Ca4Nb2(SO4)9
_chemical_formula_sum   'Ca8 Nb4 S18 O72'
_cell_volume   1720.84552333
_cell_formula_units_Z   2
loop_
 _symmetry_equiv_pos_site_id
 _symmetry_equiv_pos_as_xyz
  1  'x, y, z'
loop_
 _atom_site_type_symbol
 _atom_site_label
 _atom_site_symmetry_multiplicity
 _atom_site_fract_x
 _atom_site_fract_y
 _atom_site_fract_z
 _atom_site_occupancy
  Ca  Ca0  1  -0.00000000  0.00000000  0.35697468  1
  Ca  Ca1  1  -0.00000000  0.00000000  0.85697468  1
  Ca  Ca2  1  -0.00000000  0.00000000  0.64333316  1
  Ca  Ca3  1  -0.00000000  0.00000000  0.14333316  1
  Ca  Ca4  1  0.66666700  0.33333300  0.69289980  1
  Ca  Ca5  1  0.66666700  0.33333300  0.19289980  1
  Ca  Ca6  1  0.33333300  0.66666700  0.02373033  1
  Ca  Ca7  1  0.33333300  0.66666700  0.52373033  1
  Nb  Nb8  1  0.66666700  0.33333300  0.97993108  1
  Nb  Nb9  1  0.66666700  0.33333300  0.47993108  1
  Nb  Nb10  1  0.33333300  0.66666700  0.31477934  1
  Nb  Nb11  1  0.33333300  0.66666700  0.81477934  1
  S  S12  1  0.29051766  0.98692456  0.25357788  1
  S  S13  1  0.69640690  0.70948234  0.25357788  1
  S  S14  1  0.01307544  0.30359310  0.25357788  1
  S  S15  1  0.29051766  0.30359310  0.75357788  1
  S  S16  1  0.01307544  0.70948234  0.75357788  1
  S  S17  1  0.69640690  0.98692456  0.75357788  1
  S  S18  1  0.94541975  0.32753049  0.58104417  1
  S  S19  1  0.38211174  0.05458025  0.58104417  1
  S  S20  1  0.67246951  0.61788826  0.58104417  1
  S  S21  1  0.94541975  0.61788826  0.08104417  1
  S  S22  1  0.67246951  0.05458025  0.08104417  1
  S  S23  1  0.38211174  0.32753049  0.08104417  1
  S  S24  1  0.61427335  0.65108903  0.91731813  1
  S  S25  1  0.03681468  0.38572665  0.91731813  1
  S  S26  1  0.34891097  0.96318532  0.91731813  1
  S  S27  1  0.61427335  0.96318532  0.41731813  1
  S  S28  1  0.34891097  0.38572665  0.41731813  1
  S  S29  1  0.03681468  0.65108903  0.41731813  1
  O  O30  1  0.21297414  0.01325067  0.30328151  1
  O  O31  1  0.80027652  0.78702586  0.30328151  1
  O  O32  1  0.98674933  0.19972348  0.30328151  1
  O  O33  1  0.21297414  0.19972348  0.80328151  1
  O  O34  1  0.98674933  0.78702586  0.80328151  1
  O  O35  1  0.80027652  0.01325067  0.80328151  1
  O  O36  1  0.75657471  0.94420553  0.70203514  1
  O  O37  1  0.18763082  0.24342529  0.70203514  1
  O  O38  1  0.05579447  0.81236918  0.70203514  1
  O  O39  1  0.75657471  0.81236918  0.20203514  1
  O  O40  1  0.05579447  0.24342529  0.20203514  1
  O  O41  1  0.18763082  0.94420553  0.20203514  1
  O  O42  1  0.86565151  0.35001790  0.63115299  1
  O  O43  1  0.48436739  0.13434849  0.63115299  1
  O  O44  1  0.64998210  0.51563261  0.63115299  1
  O  O45  1  0.86565151  0.51563261  0.13115299  1
  O  O46  1  0.64998210  0.13434849  0.13115299  1
  O  O47  1  0.48436739  0.35001790  0.13115299  1
  O  O48  1  0.48223442  0.31318860  0.02723091  1
  O  O49  1  0.83095517  0.51776558  0.02723091  1
  O  O50  1  0.68681140  0.16904483  0.02723091  1
  O  O51  1  0.48223442  0.16904483  0.52723091  1
  O  O52  1  0.68681140  0.51776558  0.52723091  1
  O  O53  1  0.83095517  0.31318860  0.52723091  1
  O  O54  1  0.54260326  0.68070480  0.96775488  1
  O  O55  1  0.13810054  0.45739674  0.96775488  1
  O  O56  1  0.31929520  0.86189946  0.96775488  1
  O  O57  1  0.54260326  0.86189946  0.46775488  1
  O  O58  1  0.31929520  0.45739674  0.46775488  1
  O  O59  1  0.13810054  0.68070480  0.46775488  1
  O  O60  1  0.12401070  0.62078149  0.36676557  1
  O  O61  1  0.49676979  0.87598930  0.36676557  1
  O  O62  1  0.37921851  0.50323021  0.36676557  1
  O  O63  1  0.12401070  0.50323021  0.86676557  1
  O  O64  1  0.37921851  0.87598930  0.86676557  1
  O  O65  1  0.49676979  0.62078149  0.86676557  1
  O  O66  1  0.00583699  0.78705798  0.40493412  1
  O  O67  1  0.78122099  0.99416301  0.40493412  1
  O  O68  1  0.21294202  0.21877901  0.40493412  1
  O  O69  1  0.00583699  0.21877901  0.90493412  1
  O  O70  1  0.21294202  0.99416301  0.90493412  1
  O  O71  1  0.78122099  0.78705798  0.90493412  1
  O  O72  1  0.94823924  0.17028008  0.58101492  1
  O  O73  1  0.22204083  0.05176076  0.58101492  1
  O  O74  1  0.82971992  0.77795917  0.58101492  1
  O  O75  1  0.94823924  0.77795917  0.08101492  1
  O  O76  1  0.82971992  0.05176076  0.08101492  1
  O  O77  1  0.22204083  0.17028008  0.08101492  1
  O  O78  1  0.65714985  0.12077091  0.74608979  1
  O  O79  1  0.46362206  0.34285015  0.74608979  1
  O  O80  1  0.87922909  0.53637794  0.74608979  1
  O  O81  1  0.65714985  0.53637794  0.24608979  1
  O  O82  1  0.87922909  0.34285015  0.24608979  1
  O  O83  1  0.46362206  0.12077091  0.24608979  1
  O  O84  1  0.62269346  0.48982761  0.92467299  1
  O  O85  1  0.86713514  0.37730654  0.92467299  1
  O  O86  1  0.51017239  0.13286486  0.92467299  1
  O  O87  1  0.62269346  0.13286486  0.42467299  1
  O  O88  1  0.51017239  0.37730654  0.42467299  1
  O  O89  1  0.86713514  0.48982761  0.42467299  1
  O  O90  1  0.36709981  0.47465796  0.07087948  1
  O  O91  1  0.10755715  0.63290019  0.07087948  1
  O  O92  1  0.52534204  0.89244285  0.07087948  1
  O  O93  1  0.36709981  0.89244285  0.57087948  1
  O  O94  1  0.52534204  0.63290019  0.57087948  1
  O  O95  1  0.10755715  0.47465796  0.57087948  1
  O  O96  1  0.30427234  0.82486483  0.26836472  1
  O  O97  1  0.52059149  0.69572766  0.26836472  1
  O  O98  1  0.17513517  0.47940851  0.26836472  1
  O  O99  1  0.30427234  0.47940851  0.76836472  1
  O  O100  1  0.17513517  0.69572766  0.76836472  1
  O  O101  1  0.52059149  0.82486483  0.76836472  1
