# generated using pymatgen
data_ZnI2
_symmetry_space_group_name_H-M   'P 1'
_cell_length_a   12.98360619
_cell_length_b   12.98286476
_cell_length_c   14.69430314
_cell_angle_alpha   116.12761623
_cell_angle_beta   116.12393914
_cell_angle_gamma   90.08556431
_symmetry_Int_Tables_number   1
_chemical_formula_structural   ZnI2
_chemical_formula_sum   'Zn16 I32'
_cell_volume   1937.10753135
_cell_formula_units_Z   16
loop_
 _symmetry_equiv_pos_site_id
 _symmetry_equiv_pos_as_xyz
  1  'x, y, z'
loop_
 _atom_site_type_symbol
 _atom_site_label
 _atom_site_symmetry_multiplicity
 _atom_site_fract_x
 _atom_site_fract_y
 _atom_site_fract_z
 _atom_site_occupancy
  Zn  Zn0  1  0.31440260  0.78692060  0.87753358  1
  Zn  Zn1  1  0.90930923  0.93658213  0.62258139  1
  Zn  Zn2  1  0.71308404  0.18570334  0.62258292  1
  Zn  Zn3  1  0.93640793  0.71292933  0.12265387  1
  Zn  Zn4  1  0.18574656  0.90932200  0.12223682  1
  Zn  Zn5  1  0.59072869  0.31431592  0.37783342  1
  Zn  Zn6  1  0.78703039  0.56363288  0.37728726  1
  Zn  Zn7  1  0.56350206  0.59073541  0.87730094  1
  Zn  Zn8  1  0.68560540  0.21314821  0.12242358  1
  Zn  Zn9  1  0.09071389  0.06347116  0.37733171  1
  Zn  Zn10  1  0.28692387  0.81431034  0.37747712  1
  Zn  Zn11  1  0.06359518  0.28695142  0.87736492  1
  Zn  Zn12  1  0.81433961  0.09068894  0.87778662  1
  Zn  Zn13  1  0.40920090  0.68565183  0.62205848  1
  Zn  Zn14  1  0.21292952  0.43636740  0.62265619  1
  Zn  Zn15  1  0.43651857  0.40926448  0.12265779  1
  I  I16  1  0.15161970  0.10995132  0.24959536  1
  I  I17  1  0.64010646  0.15124734  0.75027457  1
  I  I18  1  0.10978155  0.09866032  0.74951038  1
  I  I19  1  0.40136651  0.39025702  0.75048322  1
  I  I20  1  0.34882147  0.85991870  0.74979878  1
  I  I21  1  0.85965697  0.40166419  0.24946910  1
  I  I22  1  0.39009626  0.34838425  0.25045936  1
  I  I23  1  0.09837512  0.64034522  0.25053002  1
  I  I24  1  0.84829863  0.89000813  0.75023618  1
  I  I25  1  0.35991850  0.84880389  0.24976302  1
  I  I26  1  0.89024139  0.90136484  0.25045771  1
  I  I27  1  0.59862840  0.60973113  0.24946094  1
  I  I28  1  0.65121499  0.14010479  0.25016588  1
  I  I29  1  0.14041549  0.59839852  0.75052241  1
  I  I30  1  0.60989168  0.65164711  0.74950393  1
  I  I31  1  0.90170255  0.35959660  0.74962417  1
  I  I32  1  0.03505489  0.24972655  0.50013885  1
  I  I33  1  0.74998129  0.03521572  0.00040366  1
  I  I34  1  0.25012755  0.46496368  0.00038010  1
  I  I35  1  0.46494905  0.75019708  0.49972311  1
  I  I36  1  0.96498459  0.75027425  0.49993511  1
  I  I37  1  0.25009148  0.96483514  0.99964523  1
  I  I38  1  0.74973935  0.53499866  1.00001070  1
  I  I39  1  0.53509481  0.24982244  0.50027219  1
  I  I40  1  0.75932840  0.50931431  0.51848262  1
  I  I41  1  0.50939455  0.75933594  0.01851464  1
  I  I42  1  0.74071166  0.99070266  0.48153597  1
  I  I43  1  0.99068307  0.74068654  0.98149680  1
  I  I44  1  0.24065009  0.49064505  0.48144661  1
  I  I45  1  0.49038934  0.24057720  0.98137797  1
  I  I46  1  0.25929833  0.00932902  0.51843595  1
  I  I47  1  0.00935042  0.25929496  0.01857583  1
