# generated using pymatgen
data_K3AlH6
_symmetry_space_group_name_H-M   'P 1'
_cell_length_a   5.97514397
_cell_length_b   6.01243194
_cell_length_c   8.48135536
_cell_angle_alpha   90.00000000
_cell_angle_beta   90.56384309
_cell_angle_gamma   90.00000000
_symmetry_Int_Tables_number   1
_chemical_formula_structural   K3AlH6
_chemical_formula_sum   'K6 Al2 H12'
_cell_volume   304.67917960
_cell_formula_units_Z   2
loop_
 _symmetry_equiv_pos_site_id
 _symmetry_equiv_pos_as_xyz
  1  'x, y, z'
loop_
 _atom_site_type_symbol
 _atom_site_label
 _atom_site_symmetry_multiplicity
 _atom_site_fract_x
 _atom_site_fract_y
 _atom_site_fract_z
 _atom_site_occupancy
  K  K0  1  0.50000000  0.50000000  0.00000000  1
  K  K1  1  0.00000000  0.00000000  0.50000000  1
  K  K2  1  0.49387254  0.97169283  0.25094379  1
  K  K3  1  0.00612746  0.47169283  0.24905621  1
  K  K4  1  0.50612746  0.02830717  0.74905621  1
  K  K5  1  0.99387254  0.52830717  0.75094379  1
  Al  Al6  1  0.50000000  0.50000000  0.50000000  1
  Al  Al7  1  0.00000000  0.00000000  0.00000000  1
  H  H8  1  0.66694296  0.73823232  0.53576786  1
  H  H9  1  0.83305704  0.23823232  0.96423214  1
  H  H10  1  0.33305704  0.26176768  0.46423214  1
  H  H11  1  0.16694296  0.76176768  0.03576786  1
  H  H12  1  0.76353331  0.82886868  0.97091877  1
  H  H13  1  0.73646669  0.32886868  0.52908123  1
  H  H14  1  0.23646669  0.17113132  0.02908123  1
  H  H15  1  0.26353331  0.67113132  0.47091877  1
  H  H16  1  0.05899851  0.98053940  0.79702226  1
  H  H17  1  0.44100149  0.48053940  0.70297774  1
  H  H18  1  0.94100149  0.01946060  0.20297774  1
  H  H19  1  0.55899851  0.51946060  0.29702226  1
