# generated using pymatgen
data_Na2LaTi(PO4)3
_symmetry_space_group_name_H-M   'P 1'
_cell_length_a   9.29613694
_cell_length_b   9.29613660
_cell_length_c   23.07956574
_cell_angle_alpha   89.85726463
_cell_angle_beta   90.14273537
_cell_angle_gamma   120.22171613
_symmetry_Int_Tables_number   1
_chemical_formula_structural   Na2LaTi(PO4)3
_chemical_formula_sum   'Na12 La6 Ti6 P18 O72'
_cell_volume   1723.40304714
_cell_formula_units_Z   6
loop_
 _symmetry_equiv_pos_site_id
 _symmetry_equiv_pos_as_xyz
  1  'x, y, z'
loop_
 _atom_site_type_symbol
 _atom_site_label
 _atom_site_symmetry_multiplicity
 _atom_site_fract_x
 _atom_site_fract_y
 _atom_site_fract_z
 _atom_site_occupancy
  Na  Na0  1  0.36356690  0.35754836  0.25071918  1
  Na  Na1  1  0.64245164  0.63643310  0.75071918  1
  Na  Na2  1  0.03023390  0.69088136  0.58405218  1
  Na  Na3  1  0.30911864  0.96976610  0.08405218  1
  Na  Na4  1  0.69689990  0.02421536  0.91738618  1
  Na  Na5  1  0.97578464  0.30310010  0.41738618  1
  Na  Na6  1  0.99929337  0.99793857  0.50641627  1
  Na  Na7  1  0.00206143  0.00070663  0.00641627  1
  Na  Na8  1  0.66596037  0.33127157  0.83974927  1
  Na  Na9  1  0.66872843  0.33403963  0.33974927  1
  Na  Na10  1  0.33262637  0.66460557  0.17308327  1
  Na  Na11  1  0.33539443  0.66737363  0.67308327  1
  La  La12  1  0.99611231  0.98438907  0.35266308  1
  La  La13  1  0.01561093  0.00388769  0.85266308  1
  La  La14  1  0.66277931  0.31772207  0.68599608  1
  La  La15  1  0.68227793  0.33722069  0.18599608  1
  La  La16  1  0.32944531  0.65105607  0.01933008  1
  La  La17  1  0.34894393  0.67055469  0.51933008  1
  Ti  Ti18  1  0.00456845  0.02383316  0.65160901  1
  Ti  Ti19  1  0.97616684  0.99543155  0.15160901  1
  Ti  Ti20  1  0.67123545  0.35716616  0.98494201  1
  Ti  Ti21  1  0.64283384  0.32876455  0.48494201  1
  Ti  Ti22  1  0.33790145  0.69050016  0.31827601  1
  Ti  Ti23  1  0.30949984  0.66209855  0.81827601  1
  P  P24  1  0.28337673  0.98072691  0.24721393  1
  P  P25  1  0.68481864  0.71235368  0.24847572  1
  P  P26  1  0.02297239  0.30423687  0.25195382  1
  P  P27  1  0.28764632  0.31518136  0.74847572  1
  P  P28  1  0.01927309  0.71662327  0.74721393  1
  P  P29  1  0.69576313  0.97702761  0.75195382  1
  P  P30  1  0.95004373  0.31405991  0.58054693  1
  P  P31  1  0.35148564  0.04568668  0.58180872  1
  P  P32  1  0.68963939  0.63756987  0.58528682  1
  P  P33  1  0.95431332  0.64851436  0.08180872  1
  P  P34  1  0.68594009  0.04995627  0.08054693  1
  P  P35  1  0.36243013  0.31036061  0.08528682  1
  P  P36  1  0.61670973  0.64739391  0.91388093  1
  P  P37  1  0.01815164  0.37902068  0.91514272  1
  P  P38  1  0.35630539  0.97090387  0.91862082  1
  P  P39  1  0.62097932  0.98184836  0.41514272  1
  P  P40  1  0.35260609  0.38329027  0.41388093  1
  P  P41  1  0.02909613  0.64369461  0.41862082  1
  O  O42  1  0.21489567  0.01801857  0.30120429  1
  O  O43  1  0.78647972  0.77741039  0.30306002  1
  O  O44  1  0.00410224  0.21386687  0.30875719  1
  O  O45  1  0.22258961  0.21352028  0.80306002  1
  O  O46  1  0.98198143  0.78510433  0.80120429  1
  O  O47  1  0.78613313  0.99589776  0.80875719  1
  O  O48  1  0.81344799  0.97323904  0.69972592  1
  O  O49  1  0.16803101  0.20219022  0.69549164  1
  O  O50  1  0.04259988  0.82956844  0.69316393  1
  O  O51  1  0.79780978  0.83196899  0.19549164  1
  O  O52  1  0.02676096  0.18655201  0.19972592  1
  O  O53  1  0.17043156  0.95740012  0.19316393  1
  O  O54  1  0.88156267  0.35135157  0.63453729  1
  O  O55  1  0.45314672  0.11074339  0.63639302  1
  O  O56  1  0.67076924  0.54719987  0.64209019  1
  O  O57  1  0.88925661  0.54685328  0.13639302  1
  O  O58  1  0.64864843  0.11843733  0.13453729  1
  O  O59  1  0.45280013  0.32923076  0.14209019  1
  O  O60  1  0.48011499  0.30657204  0.03305892  1
  O  O61  1  0.83469801  0.53552322  0.02882464  1
  O  O62  1  0.70926688  0.16290144  0.02649693  1
  O  O63  1  0.46447678  0.16530199  0.52882464  1
  O  O64  1  0.69342796  0.51988501  0.53305892  1
  O  O65  1  0.83709856  0.29073312  0.52649693  1
  O  O66  1  0.54822867  0.68468557  0.96787129  1
  O  O67  1  0.11981272  0.44407739  0.96972702  1
  O  O68  1  0.33743524  0.88053387  0.97542419  1
  O  O69  1  0.55592261  0.88018728  0.46972702  1
  O  O70  1  0.31531443  0.45177133  0.46787129  1
  O  O71  1  0.11946613  0.66256476  0.47542419  1
  O  O72  1  0.14678099  0.63990604  0.36639292  1
  O  O73  1  0.50136401  0.86885722  0.36215864  1
  O  O74  1  0.37593288  0.49623544  0.35983093  1
  O  O75  1  0.13114278  0.49863599  0.86215864  1
  O  O76  1  0.36009396  0.85321901  0.86639292  1
  O  O77  1  0.50376456  0.62406712  0.85983093  1
  O  O78  1  0.99978322  0.79007131  0.41326411  1
  O  O79  1  0.80048622  0.02017078  0.40689144  1
  O  O80  1  0.20303049  0.20634366  0.40785842  1
  O  O81  1  0.97982922  0.19951378  0.90689144  1
  O  O82  1  0.20992869  0.00021678  0.91326411  1
  O  O83  1  0.79365634  0.79696951  0.90785842  1
  O  O84  1  0.96070997  0.14955288  0.59246628  1
  O  O85  1  0.18440589  0.04517989  0.58528065  1
  O  O86  1  0.85860645  0.80464887  0.58378510  1
  O  O87  1  0.95482011  0.81559411  0.08528065  1
  O  O88  1  0.85044712  0.03929003  0.09246628  1
  O  O89  1  0.19535113  0.14139355  0.08378510  1
  O  O90  1  0.66645022  0.12340431  0.74659711  1
  O  O91  1  0.46715322  0.35350378  0.74022444  1
  O  O92  1  0.86969749  0.53967666  0.74119142  1
  O  O93  1  0.64649622  0.53284678  0.24022444  1
  O  O94  1  0.87659569  0.33354978  0.24659711  1
  O  O95  1  0.46032334  0.13030251  0.24119142  1
  O  O96  1  0.62737697  0.48288588  0.92579928  1
  O  O97  1  0.85107289  0.37851289  0.91861365  1
  O  O98  1  0.52527345  0.13798187  0.91711810  1
  O  O99  1  0.62148711  0.14892711  0.41861365  1
  O  O100  1  0.51711412  0.37262303  0.42579928  1
  O  O101  1  0.86201813  0.47472655  0.41711810  1
  O  O102  1  0.33311622  0.45673831  0.07993111  1
  O  O103  1  0.13381922  0.68683778  0.07355844  1
  O  O104  1  0.53636349  0.87301066  0.07452542  1
  O  O105  1  0.31316222  0.86618078  0.57355844  1
  O  O106  1  0.54326169  0.66688378  0.57993111  1
  O  O107  1  0.12698934  0.46363651  0.57452542  1
  O  O108  1  0.29404297  0.81621988  0.25913328  1
  O  O109  1  0.51773889  0.71184689  0.25194765  1
  O  O110  1  0.19193945  0.47131587  0.25045210  1
  O  O111  1  0.28815311  0.48226111  0.75194765  1
  O  O112  1  0.18378012  0.70595703  0.75913328  1
  O  O113  1  0.52868413  0.80806055  0.75045210  1
