# generated using pymatgen
data_AlFeF5
_symmetry_space_group_name_H-M   'P 1'
_cell_length_a   5.15291309
_cell_length_b   5.15291309
_cell_length_c   5.15291309
_cell_angle_alpha   139.64565816
_cell_angle_beta   106.41885464
_cell_angle_gamma   87.43735562
_symmetry_Int_Tables_number   1
_chemical_formula_structural   AlFeF5
_chemical_formula_sum   'Al1 Fe1 F5'
_cell_volume   81.70973008
_cell_formula_units_Z   1
loop_
 _symmetry_equiv_pos_site_id
 _symmetry_equiv_pos_as_xyz
  1  'x, y, z'
loop_
 _atom_site_type_symbol
 _atom_site_label
 _atom_site_symmetry_multiplicity
 _atom_site_fract_x
 _atom_site_fract_y
 _atom_site_fract_z
 _atom_site_occupancy
  Al  Al0  1  0.50000000  0.50000000  -0.00000000  1
  Fe  Fe1  1  -0.00000000  0.00000000  -0.00000000  1
  F  F2  1  0.79410108  0.50000000  0.29410108  1
  F  F3  1  0.20589892  0.50000000  0.70589892  1
  F  F4  1  0.25957345  0.25957345  -0.00000000  1
  F  F5  1  0.74042655  0.74042655  0.00000000  1
  F  F6  1  0.50000000  0.00000000  0.50000000  1
