# generated using pymatgen
data_MgV5O12
_symmetry_space_group_name_H-M   'P 1'
_cell_length_a   5.12367032
_cell_length_b   5.01726390
_cell_length_c   9.13971006
_cell_angle_alpha   89.56110269
_cell_angle_beta   93.83482469
_cell_angle_gamma   70.25879239
_symmetry_Int_Tables_number   1
_chemical_formula_structural   MgV5O12
_chemical_formula_sum   'Mg1 V5 O12'
_cell_volume   220.53443756
_cell_formula_units_Z   1
loop_
 _symmetry_equiv_pos_site_id
 _symmetry_equiv_pos_as_xyz
  1  'x, y, z'
loop_
 _atom_site_type_symbol
 _atom_site_label
 _atom_site_symmetry_multiplicity
 _atom_site_fract_x
 _atom_site_fract_y
 _atom_site_fract_z
 _atom_site_occupancy
  Mg  Mg0  1  0.14796700  0.63418500  0.51893500  1
  V  V1  1  0.04854600  0.06319000  0.26076000  1
  V  V2  1  0.04955100  0.48800600  0.96709900  1
  V  V3  1  0.52295500  0.01451600  0.51863700  1
  V  V4  1  0.39950600  0.46172000  0.22717400  1
  V  V5  1  0.59541400  0.62024000  0.76219400  1
  O  O6  1  0.88744700  0.30212700  0.84678000  1
  O  O7  1  0.30358200  0.87477400  0.65262700  1
  O  O8  1  0.21728500  0.30836700  0.37500800  1
  O  O9  1  0.24500900  0.21180200  0.10420800  1
  O  O10  1  0.30147200  0.52791800  0.86839800  1
  O  O11  1  0.51002400  0.31228600  0.61578000  1
  O  O12  1  0.37120000  0.77305800  0.36522500  1
  O  O13  1  0.72631200  0.38621800  0.16289600  1
  O  O14  1  0.70220900  0.79899200  0.90220900  1
  O  O15  1  0.80102800  0.68725900  0.61534200  1
  O  O16  1  0.81425100  0.00601500  0.38209300  1
  O  O17  1  0.09732300  0.74540700  0.12606300  1
