# generated using pymatgen
data_Na3ScBr6
_symmetry_space_group_name_H-M   'P 1'
_cell_length_a   7.23854888
_cell_length_b   7.23843687
_cell_length_c   13.14095628
_cell_angle_alpha   89.99089522
_cell_angle_beta   90.00372259
_cell_angle_gamma   120.01324999
_symmetry_Int_Tables_number   1
_chemical_formula_structural   Na3ScBr6
_chemical_formula_sum   'Na6 Sc2 Br12'
_cell_volume   596.20539060
_cell_formula_units_Z   2
loop_
 _symmetry_equiv_pos_site_id
 _symmetry_equiv_pos_as_xyz
  1  'x, y, z'
loop_
 _atom_site_type_symbol
 _atom_site_label
 _atom_site_symmetry_multiplicity
 _atom_site_fract_x
 _atom_site_fract_y
 _atom_site_fract_z
 _atom_site_occupancy
  Na  Na0  1  0.66667770  0.33336428  0.46654391  1
  Na  Na1  1  0.66665911  0.33336592  0.03343458  1
  Na  Na2  1  0.33334942  0.66666692  0.53343343  1
  Na  Na3  1  0.33335974  0.66668828  0.96655328  1
  Na  Na4  1  0.00000437  0.00004705  0.74998873  1
  Na  Na5  1  0.00004949  0.99998655  0.24997667  1
  Sc  Sc6  1  0.66664651  0.33337270  0.75000738  1
  Sc  Sc7  1  0.33335292  0.66664401  0.25000463  1
  Br  Br8  1  0.36393324  0.32132137  0.87010293  1
  Br  Br9  1  0.95742362  0.32144901  0.62993487  1
  Br  Br10  1  0.36397868  0.04249014  0.62993141  1
  Br  Br11  1  0.67863493  0.63609392  0.62990516  1
  Br  Br12  1  0.95741483  0.63608931  0.87009256  1
  Br  Br13  1  0.67864489  0.04258198  0.87005878  1
  Br  Br14  1  0.32125904  0.36386256  0.37012120  1
  Br  Br15  1  0.63615235  0.95747667  0.37005506  1
  Br  Br16  1  0.04260324  0.67856272  0.37005610  1
  Br  Br17  1  0.63594766  0.67853911  0.12992427  1
  Br  Br18  1  0.04250197  0.36395440  0.12994457  1
  Br  Br19  1  0.32140528  0.95744111  0.12993148  1
