# generated using pymatgen
data_MgTiZn(BiO3)2
_symmetry_space_group_name_H-M   'P 1'
_cell_length_a   6.57613208
_cell_length_b   5.51533041
_cell_length_c   5.51532713
_cell_angle_alpha   90.00000000
_cell_angle_beta   90.00000000
_cell_angle_gamma   90.00017979
_symmetry_Int_Tables_number   1
_chemical_formula_structural   MgTiZn(BiO3)2
_chemical_formula_sum   'Mg1 Ti1 Zn1 Bi2 O6'
_cell_volume   200.03838480
_cell_formula_units_Z   1
loop_
 _symmetry_equiv_pos_site_id
 _symmetry_equiv_pos_as_xyz
  1  'x, y, z'
loop_
 _atom_site_type_symbol
 _atom_site_label
 _atom_site_symmetry_multiplicity
 _atom_site_fract_x
 _atom_site_fract_y
 _atom_site_fract_z
 _atom_site_occupancy
  Mg  Mg0  1  0.73648553  0.99999999  -0.00000000  1
  Ti  Ti1  1  0.66133896  0.50000102  0.50000000  1
  Zn  Zn2  1  0.34432552  1.00000000  -0.00000000  1
  Bi  Bi3  1  0.97460314  0.99999999  0.50000000  1
  Bi  Bi4  1  0.97460314  0.49999899  -0.00000000  1
  O  O5  1  0.78954931  0.73479586  0.73479586  1
  O  O6  1  0.78954931  0.73479586  0.26520414  1
  O  O7  1  0.05671625  0.99999999  -0.00000000  1
  O  O8  1  0.40322923  0.50000101  0.50000000  1
  O  O9  1  0.78955031  0.26520314  0.26520414  1
  O  O10  1  0.78955031  0.26520314  0.73479586  1
