# generated using pymatgen
data_Na6Nb2In6Si5S7O48
_symmetry_space_group_name_H-M   'P 1'
_cell_length_a   18.00612339
_cell_length_b   9.05920445
_cell_length_c   23.31286506
_cell_angle_alpha   89.95214771
_cell_angle_beta   90.41609522
_cell_angle_gamma   120.26080886
_symmetry_Int_Tables_number   1
_chemical_formula_structural   Na6Nb2In6Si5S7O48
_chemical_formula_sum   'Na18 Nb6 In18 Si15 S21 O144'
_cell_volume   3284.54652731
_cell_formula_units_Z   3
loop_
 _symmetry_equiv_pos_site_id
 _symmetry_equiv_pos_as_xyz
  1  'x, y, z'
loop_
 _atom_site_type_symbol
 _atom_site_label
 _atom_site_symmetry_multiplicity
 _atom_site_fract_x
 _atom_site_fract_y
 _atom_site_fract_z
 _atom_site_occupancy
  Na  Na0  1  0.99036517  0.67846905  0.91034076  1
  Na  Na1  1  0.34902081  0.03352448  0.91406403  1
  Na  Na2  1  0.17145334  0.30452258  0.91166133  1
  Na  Na3  1  0.49020659  0.30356649  0.42061164  1
  Na  Na4  1  0.67034154  0.03589541  0.41565915  1
  Na  Na5  1  0.84623833  0.66254977  0.41775316  1
  Na  Na6  1  0.99988072  0.00075819  0.49356912  1
  Na  Na7  1  0.49673105  0.99620504  0.49927400  1
  Na  Na8  1  0.99766571  0.00246967  0.99553128  1
  Na  Na9  1  0.49945165  0.99862332  0.99059575  1
  Na  Na10  1  0.33804618  0.34583634  0.83815343  1
  Na  Na11  1  0.82706713  0.32183919  0.81952056  1
  Na  Na12  1  0.32940410  0.33597810  0.32372236  1
  Na  Na13  1  0.83518036  0.32619510  0.34370675  1
  Na  Na14  1  0.17211215  0.67237323  0.16759175  1
  Na  Na15  1  0.66561104  0.66894622  0.16755492  1
  Na  Na16  1  0.16897065  0.66491232  0.66657563  1
  Na  Na17  1  0.66046625  0.65669899  0.66006720  1
  Nb  Nb18  1  0.99543279  0.98654441  0.65433569  1
  Nb  Nb19  1  0.49975699  0.01755381  0.64188907  1
  Nb  Nb20  1  0.00036260  0.99672052  0.14673816  1
  Nb  Nb21  1  0.49475336  0.00315142  0.15435371  1
  Nb  Nb22  1  0.16564336  0.67779929  0.31148935  1
  Nb  Nb23  1  0.66166583  0.64917780  0.80758714  1
  In  In24  1  0.00180891  0.99689977  0.35569884  1
  In  In25  1  0.49880889  0.00708921  0.34705590  1
  In  In26  1  0.99916912  0.98983946  0.84572827  1
  In  In27  1  0.50176959  0.00736623  0.85325163  1
  In  In28  1  0.33811635  0.34676400  0.67768785  1
  In  In29  1  0.83265121  0.33109988  0.68924285  1
  In  In30  1  0.33335724  0.33429149  0.19004065  1
  In  In31  1  0.83146646  0.32185661  0.18085688  1
  In  In32  1  0.34464596  0.35237815  0.97632389  1
  In  In33  1  0.82680515  0.30809751  0.98487555  1
  In  In34  1  0.33531707  0.34885224  0.49120060  1
  In  In35  1  0.84201616  0.33232358  0.47780895  1
  In  In36  1  0.17207749  0.68280657  0.01018290  1
  In  In37  1  0.66780375  0.67177918  0.01872113  1
  In  In38  1  0.16768358  0.66411450  0.51990288  1
  In  In39  1  0.66651185  0.65291388  0.51475704  1
  In  In40  1  0.66775215  0.65301407  0.31587137  1
  In  In41  1  0.17059158  0.68558777  0.81323672  1
  Si  Si42  1  0.14271498  0.00176082  0.25171708  1
  Si  Si43  1  0.35198227  0.70513152  0.25434900  1
  Si  Si44  1  0.50506332  0.31023438  0.25299626  1
  Si  Si45  1  0.64268794  0.27881993  0.75109860  1
  Si  Si46  1  0.00447016  0.69855316  0.75283476  1
  Si  Si47  1  0.85292965  0.99916393  0.75444029  1
  Si  Si48  1  0.48498272  0.34875745  0.58092219  1
  Si  Si49  1  0.32913210  0.62974061  0.58564590  1
  Si  Si50  1  0.83039920  0.03158706  0.08437084  1
  Si  Si51  1  0.31307289  0.66945674  0.91388880  1
  Si  Si52  1  0.52623003  0.37869484  0.91892953  1
  Si  Si53  1  0.16288865  0.96423332  0.91889543  1
  Si  Si54  1  0.81037292  0.95114682  0.41479237  1
  Si  Si55  1  0.66396111  0.36144685  0.41672958  1
  Si  Si56  1  0.02477379  0.67041266  0.41939563  1
  S  S57  1  0.64810570  0.00333137  0.24845636  1
  S  S58  1  0.85512555  0.70297276  0.24553401  1
  S  S59  1  0.00002510  0.29035186  0.24960218  1
  S  S60  1  0.14958193  0.29349118  0.74832545  1
  S  S61  1  0.49878142  0.70811594  0.75093691  1
  S  S62  1  0.35463002  0.00592794  0.74618503  1
  S  S63  1  0.97986184  0.32543820  0.58602293  1
  S  S64  1  0.18059497  0.03609458  0.58521381  1
  S  S65  1  0.68533636  0.03872793  0.58382397  1
  S  S66  1  0.83693044  0.63261598  0.58448026  1
  S  S67  1  0.47996951  0.63393986  0.08602225  1
  S  S68  1  0.98253715  0.63117850  0.08376461  1
  S  S69  1  0.33450668  0.03805205  0.08457067  1
  S  S70  1  0.18372168  0.33453305  0.08399191  1
  S  S71  1  0.68236875  0.32811249  0.08504383  1
  S  S72  1  0.81154056  0.66020929  0.91756801  1
  S  S73  1  0.01611915  0.37081225  0.91794037  1
  S  S74  1  0.66888989  0.95809493  0.91489088  1
  S  S75  1  0.31059841  0.96084888  0.41599093  1
  S  S76  1  0.17070065  0.38155913  0.41512798  1
  S  S77  1  0.51539020  0.66369819  0.41590803  1
  O  O78  1  0.09913974  0.03033485  0.30588522  1
  O  O79  1  0.61166329  0.02157817  0.30239798  1
  O  O80  1  0.41169362  0.78911238  0.30907399  1
  O  O81  1  0.90296370  0.77440211  0.29937070  1
  O  O82  1  0.49122405  0.20480859  0.31132496  1
  O  O83  1  0.98570632  0.19016159  0.30151761  1
  O  O84  1  0.11328489  0.20217678  0.80321025  1
  O  O85  1  0.60322139  0.17301744  0.80797735  1
  O  O86  1  0.48847661  0.78345346  0.80400679  1
  O  O87  1  0.99094267  0.77316003  0.81259696  1
  O  O88  1  0.40134194  0.02708010  0.80104055  1
  O  O89  1  0.91194941  0.03596937  0.81002051  1
  O  O90  1  0.40366697  0.99185144  0.69656290  1
  O  O91  1  0.90408212  0.97096753  0.69731027  1
  O  O92  1  0.09007308  0.19116465  0.69855727  1
  O  O93  1  0.58106837  0.18731409  0.69450720  1
  O  O94  1  0.01177006  0.83482283  0.69784827  1
  O  O95  1  0.51065430  0.81106926  0.69967154  1
  O  O96  1  0.40392517  0.83640225  0.19670684  1
  O  O97  1  0.90490633  0.81892488  0.19528935  1
  O  O98  1  0.00935314  0.20137297  0.19776519  1
  O  O99  1  0.51208372  0.18889722  0.19686515  1
  O  O100  1  0.08046053  0.97235362  0.19403036  1
  O  O101  1  0.59053749  0.98922081  0.19763976  1
  O  O102  1  0.44013472  0.35879619  0.63864403  1
  O  O103  1  0.93732877  0.34970520  0.63588674  1
  O  O104  1  0.23410854  0.11701322  0.63647777  1
  O  O105  1  0.73957064  0.12537034  0.63446013  1
  O  O106  1  0.30934567  0.51328510  0.64183850  1
  O  O107  1  0.82802898  0.52556433  0.63442949  1
  O  O108  1  0.43773238  0.52492656  0.13593334  1
  O  O109  1  0.93941358  0.52932681  0.13495708  1
  O  O110  1  0.32544734  0.12553533  0.13456011  1
  O  O111  1  0.81640461  0.11405915  0.14142733  1
  O  O112  1  0.23793708  0.35852819  0.13464613  1
  O  O113  1  0.73726061  0.35741356  0.13630444  1
  O  O114  1  0.21592720  0.29980710  0.03109742  1
  O  O115  1  0.72112352  0.30383207  0.03207550  1
  O  O116  1  0.42834737  0.56305430  0.03271142  1
  O  O117  1  0.93114696  0.56067983  0.03037036  1
  O  O118  1  0.34725041  0.13180056  0.03045184  1
  O  O119  1  0.85796275  0.15237465  0.02774876  1
  O  O120  1  0.21753814  0.13710484  0.53182045  1
  O  O121  1  0.71916501  0.14035611  0.53066611  1
  O  O122  1  0.35434479  0.56838598  0.52702869  1
  O  O123  1  0.85025886  0.56400201  0.53026618  1
  O  O124  1  0.42872366  0.29677860  0.52087744  1
  O  O125  1  0.92848513  0.29346576  0.53245530  1
  O  O126  1  0.28003330  0.71553657  0.97351828  1
  O  O127  1  0.77479125  0.68270938  0.96998817  1
  O  O128  1  0.06868074  0.44567709  0.97124533  1
  O  O129  1  0.58119073  0.46545289  0.97609287  1
  O  O130  1  0.13059965  0.83322199  0.97394787  1
  O  O131  1  0.66266849  0.87016375  0.96939233  1
  O  O132  1  0.27253240  0.86325785  0.46792504  1
  O  O133  1  0.77192987  0.83276799  0.47206721  1
  O  O134  1  0.16194807  0.45854254  0.46830703  1
  O  O135  1  0.63428735  0.43279512  0.47030556  1
  O  O136  1  0.08213283  0.69448052  0.47497363  1
  O  O137  1  0.56831878  0.69339942  0.46830622  1
  O  O138  1  0.07872096  0.65186833  0.36211996  1
  O  O139  1  0.55463986  0.63743312  0.36404492  1
  O  O140  1  0.25784874  0.86558668  0.36303238  1
  O  O141  1  0.74825824  0.87633867  0.35739433  1
  O  O142  1  0.17949788  0.48878607  0.36328046  1
  O  O143  1  0.68769620  0.48011964  0.35978310  1
  O  O144  1  0.05569527  0.47587600  0.86673624  1
  O  O145  1  0.57967318  0.50573051  0.86241872  1
  O  O146  1  0.18466761  0.88481931  0.86376440  1
  O  O147  1  0.67825624  0.86942156  0.86405931  1
  O  O148  1  0.24642460  0.61917519  0.85941530  1
  O  O149  1  0.75927144  0.64212439  0.86526433  1
  O  O150  1  0.01030322  0.83248382  0.41459556  1
  O  O151  1  0.50718200  0.81821196  0.41077835  1
  O  O152  1  0.39795566  0.98360394  0.41130373  1
  O  O153  1  0.90498694  0.96658405  0.40924445  1
  O  O154  1  0.09161633  0.21244746  0.41041811  1
  O  O155  1  0.58021204  0.16285147  0.41215140  1
  O  O156  1  0.00604043  0.19844327  0.91318565  1
  O  O157  1  0.51053909  0.18652071  0.91453111  1
  O  O158  1  0.07978882  0.99672567  0.91269196  1
  O  O159  1  0.59079166  0.97193864  0.91134916  1
  O  O160  1  0.40682580  0.84228766  0.90789215  1
  O  O161  1  0.89987456  0.81227528  0.91303448  1
  O  O162  1  0.49259526  0.16804919  0.59119268  1
  O  O163  1  0.98967051  0.17100934  0.59418461  1
  O  O164  1  0.09382007  0.02298478  0.59242105  1
  O  O165  1  0.59679602  0.01919820  0.59260989  1
  O  O166  1  0.41823160  0.82059494  0.59961447  1
  O  O167  1  0.91822692  0.80918345  0.59271560  1
  O  O168  1  0.49003028  0.80863184  0.09416572  1
  O  O169  1  0.99112448  0.80730283  0.09113352  1
  O  O170  1  0.41473247  0.02115120  0.09265421  1
  O  O171  1  0.91835914  0.01297365  0.09848973  1
  O  O172  1  0.09441526  0.17427501  0.09420977  1
  O  O173  1  0.59687802  0.16725828  0.09221825  1
  O  O174  1  0.34386191  0.15672392  0.73987385  1
  O  O175  1  0.83705984  0.15324556  0.74216926  1
  O  O176  1  0.23352412  0.30344377  0.74172877  1
  O  O177  1  0.73914118  0.32307866  0.74239078  1
  O  O178  1  0.42522234  0.53103159  0.74678387  1
  O  O179  1  0.91829286  0.52090183  0.74201172  1
  O  O180  1  0.33669439  0.51985406  0.24189600  1
  O  O181  1  0.84803523  0.53400755  0.23631960  1
  O  O182  1  0.41882804  0.31452552  0.24178935  1
  O  O183  1  0.92681220  0.32106206  0.24172063  1
  O  O184  1  0.23787596  0.15338680  0.24137141  1
  O  O185  1  0.73274421  0.16317545  0.24272656  1
  O  O186  1  0.31682265  0.49406038  0.92042050  1
  O  O187  1  0.82204496  0.50452483  0.92149799  1
  O  O188  1  0.43051216  0.35746444  0.91580021  1
  O  O189  1  0.93101609  0.36469739  0.92341662  1
  O  O190  1  0.25002759  0.14933522  0.92789657  1
  O  O191  1  0.74775154  0.13436418  0.91617771  1
  O  O192  1  0.31677081  0.13098076  0.41615461  1
  O  O193  1  0.81677138  0.13658550  0.42125393  1
  O  O194  1  0.24876395  0.36352436  0.41788453  1
  O  O195  1  0.75093245  0.34852188  0.42554294  1
  O  O196  1  0.42942123  0.50250067  0.42066498  1
  O  O197  1  0.92956626  0.50010009  0.41669270  1
  O  O198  1  0.16869914  0.48095758  0.07946594  1
  O  O199  1  0.67052277  0.47703032  0.08077666  1
  O  O200  1  0.06920837  0.65182429  0.08078761  1
  O  O201  1  0.56672746  0.65468891  0.08119805  1
  O  O202  1  0.25839306  0.86169776  0.08249080  1
  O  O203  1  0.74959178  0.83847596  0.07852938  1
  O  O204  1  0.16798848  0.86254661  0.58082206  1
  O  O205  1  0.67386777  0.86707221  0.57936345  1
  O  O206  1  0.24912655  0.66515164  0.57978402  1
  O  O207  1  0.76335032  0.65975869  0.58243233  1
  O  O208  1  0.06628488  0.47854640  0.58126983  1
  O  O209  1  0.58109294  0.51318893  0.57959248  1
  O  O210  1  0.14789625  0.81988052  0.25922002  1
  O  O211  1  0.65434775  0.84821941  0.24655684  1
  O  O212  1  0.25802046  0.69694222  0.26004434  1
  O  O213  1  0.77181394  0.69478877  0.24441685  1
  O  O214  1  0.08172852  0.46153089  0.25333635  1
  O  O215  1  0.59367289  0.49334213  0.24869972  1
  O  O216  1  0.15411317  0.45979790  0.74725552  1
  O  O217  1  0.64700205  0.47207928  0.75884222  1
  O  O218  1  0.09326527  0.69407747  0.74865217  1
  O  O219  1  0.58149681  0.69641778  0.75676605  1
  O  O220  1  0.27133572  0.84442689  0.74573805  1
  O  O221  1  0.75886852  0.81877833  0.76209963  1
