# generated using pymatgen
data_Na2Si2Ge2SO12
_symmetry_space_group_name_H-M   'P 1'
_cell_length_a   8.59405402
_cell_length_b   8.59405375
_cell_length_c   21.80258424
_cell_angle_alpha   89.86411532
_cell_angle_beta   90.13588468
_cell_angle_gamma   119.89732175
_symmetry_Int_Tables_number   1
_chemical_formula_structural   Na2Si2Ge2SO12
_chemical_formula_sum   'Na12 Si12 Ge12 S6 O72'
_cell_volume   1395.98751760
_cell_formula_units_Z   6
loop_
 _symmetry_equiv_pos_site_id
 _symmetry_equiv_pos_as_xyz
  1  'x, y, z'
loop_
 _atom_site_type_symbol
 _atom_site_label
 _atom_site_symmetry_multiplicity
 _atom_site_fract_x
 _atom_site_fract_y
 _atom_site_fract_z
 _atom_site_occupancy
  Na  Na0  1  0.99766713  0.63126427  0.25307824  1
  Na  Na1  1  0.36873573  0.00233287  0.75307824  1
  Na  Na2  1  0.66433413  0.96459727  0.58641124  1
  Na  Na3  1  0.03540273  0.33566587  0.08641124  1
  Na  Na4  1  0.33100013  0.29793127  0.91974524  1
  Na  Na5  1  0.70206873  0.66899987  0.41974524  1
  Na  Na6  1  0.01366636  0.99872053  0.50028137  1
  Na  Na7  1  0.00127947  0.98633364  0.00028137  1
  Na  Na8  1  0.68033336  0.33205353  0.83361437  1
  Na  Na9  1  0.66794647  0.31966664  0.33361437  1
  Na  Na10  1  0.34699936  0.66538753  0.16694837  1
  Na  Na11  1  0.33461247  0.65300064  0.66694837  1
  Si  Si12  1  0.70551825  0.71644159  0.24924747  1
  Si  Si13  1  0.99770314  0.28145426  0.24941382  1
  Si  Si14  1  0.28355841  0.29448175  0.74924747  1
  Si  Si15  1  0.71854574  0.00229686  0.74941382  1
  Si  Si16  1  0.37218525  0.04977459  0.58258047  1
  Si  Si17  1  0.66437014  0.61478726  0.58274682  1
  Si  Si18  1  0.95022541  0.62781475  0.08258047  1
  Si  Si19  1  0.38521274  0.33562986  0.08274682  1
  Si  Si20  1  0.03885125  0.38310859  0.91591447  1
  Si  Si21  1  0.33103614  0.94812126  0.91608082  1
  Si  Si22  1  0.61689141  0.96114875  0.41591447  1
  Si  Si23  1  0.05187874  0.66896386  0.41608082  1
  Ge  Ge24  1  0.97449406  0.98576000  0.35429573  1
  Ge  Ge25  1  0.01424000  0.02550594  0.85429573  1
  Ge  Ge26  1  0.99886490  0.99675787  0.64649255  1
  Ge  Ge27  1  0.00324213  0.00113510  0.14649255  1
  Ge  Ge28  1  0.64116106  0.31909300  0.68762873  1
  Ge  Ge29  1  0.68090700  0.35883894  0.18762873  1
  Ge  Ge30  1  0.66553190  0.33009087  0.97982555  1
  Ge  Ge31  1  0.66990913  0.33446810  0.47982555  1
  Ge  Ge32  1  0.30782706  0.65242700  0.02096273  1
  Ge  Ge33  1  0.34757300  0.69217294  0.52096273  1
  Ge  Ge34  1  0.33219790  0.66342487  0.31315955  1
  Ge  Ge35  1  0.33657513  0.66780210  0.81315955  1
  S  S36  1  0.29280015  0.00653415  0.25047366  1
  S  S37  1  0.99346585  0.70719985  0.75047366  1
  S  S38  1  0.95946715  0.33986715  0.58380666  1
  S  S39  1  0.66013285  0.04053285  0.08380666  1
  S  S40  1  0.62613315  0.67320115  0.91714066  1
  S  S41  1  0.32679885  0.37386685  0.41714066  1
  O  O42  1  0.21312278  0.03568888  0.30566362  1
  O  O43  1  0.83452664  0.78519662  0.31076250  1
  O  O44  1  0.97014949  0.15966438  0.30997738  1
  O  O45  1  0.21480338  0.16547336  0.81076250  1
  O  O46  1  0.96431112  0.78687722  0.80566362  1
  O  O47  1  0.84033562  0.02985051  0.80997738  1
  O  O48  1  0.79670887  0.96311805  0.68658856  1
  O  O49  1  0.15825798  0.19570654  0.69033688  1
  O  O50  1  0.03369848  0.82309592  0.69460236  1
  O  O51  1  0.80429346  0.84174202  0.19033688  1
  O  O52  1  0.03688195  0.20329113  0.18658856  1
  O  O53  1  0.17690408  0.96630152  0.19460236  1
  O  O54  1  0.87978978  0.36902188  0.63899662  1
  O  O55  1  0.50119364  0.11852962  0.64409550  1
  O  O56  1  0.63681649  0.49299738  0.64331038  1
  O  O57  1  0.88147038  0.49880636  0.14409550  1
  O  O58  1  0.63097812  0.12021022  0.13899662  1
  O  O59  1  0.50700262  0.36318351  0.14331038  1
  O  O60  1  0.46337587  0.29645105  0.01992156  1
  O  O61  1  0.82492498  0.52903954  0.02366988  1
  O  O62  1  0.70036548  0.15642892  0.02793536  1
  O  O63  1  0.47096046  0.17507502  0.52366988  1
  O  O64  1  0.70354895  0.53662413  0.51992156  1
  O  O65  1  0.84357108  0.29963452  0.52793536  1
  O  O66  1  0.54645578  0.70235588  0.97233062  1
  O  O67  1  0.16785964  0.45186362  0.97742950  1
  O  O68  1  0.30348249  0.82633138  0.97664438  1
  O  O69  1  0.54813638  0.83214036  0.47742950  1
  O  O70  1  0.29764412  0.45354422  0.47233062  1
  O  O71  1  0.17366862  0.69651751  0.47664438  1
  O  O72  1  0.13004187  0.62978505  0.35325556  1
  O  O73  1  0.49159098  0.86237354  0.35700388  1
  O  O74  1  0.36703148  0.48976292  0.36126936  1
  O  O75  1  0.13762646  0.50840902  0.85700388  1
  O  O76  1  0.37021495  0.86995813  0.85325556  1
  O  O77  1  0.51023708  0.63296852  0.86126936  1
  O  O78  1  0.03236899  0.85133129  0.40899992  1
  O  O79  1  0.81569072  0.97575129  0.41157554  1
  O  O80  1  0.16961250  0.19467605  0.41026699  1
  O  O81  1  0.02424871  0.18430928  0.91157554  1
  O  O82  1  0.14866871  0.96763101  0.90899992  1
  O  O83  1  0.80532395  0.83038750  0.91026699  1
  O  O84  1  0.97157742  0.17269300  0.58728223  1
  O  O85  1  0.17512214  0.02787943  0.59108871  1
  O  O86  1  0.83646149  0.82097739  0.58957248  1
  O  O87  1  0.97212057  0.82487786  0.09108871  1
  O  O88  1  0.82730700  0.02842258  0.08728223  1
  O  O89  1  0.17902261  0.16353851  0.08957248  1
  O  O90  1  0.69903599  0.18466429  0.74233292  1
  O  O91  1  0.48235772  0.30908429  0.74490854  1
  O  O92  1  0.83627950  0.52800905  0.74359999  1
  O  O93  1  0.69091571  0.51764228  0.24490854  1
  O  O94  1  0.81533571  0.30096401  0.24233292  1
  O  O95  1  0.47199095  0.16372050  0.24359999  1
  O  O96  1  0.63824442  0.50602600  0.92061523  1
  O  O97  1  0.84178914  0.36121243  0.92442171  1
  O  O98  1  0.50312849  0.15431039  0.92290548  1
  O  O99  1  0.63878757  0.15821086  0.42442171  1
  O  O100  1  0.49397400  0.36175558  0.42061523  1
  O  O101  1  0.84568961  0.49687151  0.42290548  1
  O  O102  1  0.36570199  0.51799829  0.07566692  1
  O  O103  1  0.14902372  0.64241829  0.07824254  1
  O  O104  1  0.50294550  0.86134305  0.07693399  1
  O  O105  1  0.35758171  0.85097628  0.57824254  1
  O  O106  1  0.48200171  0.63429801  0.57566692  1
  O  O107  1  0.13865695  0.49705450  0.57693399  1
  O  O108  1  0.30491042  0.83936000  0.25394923  1
  O  O109  1  0.50845514  0.69454643  0.25775571  1
  O  O110  1  0.16979449  0.48764439  0.25623948  1
  O  O111  1  0.30545357  0.49154486  0.75775571  1
  O  O112  1  0.16064000  0.69508958  0.75394923  1
  O  O113  1  0.51235561  0.83020551  0.75623948  1
