# generated using pymatgen
data_Na3YGa(PO4)3
_symmetry_space_group_name_H-M   'P 1'
_cell_length_a   9.05203871
_cell_length_b   9.01879928
_cell_length_c   22.65235316
_cell_angle_alpha   89.98938576
_cell_angle_beta   89.98450055
_cell_angle_gamma   119.79713314
_symmetry_Int_Tables_number   1
_chemical_formula_structural   Na3YGa(PO4)3
_chemical_formula_sum   'Na18 Y6 Ga6 P18 O72'
_cell_volume   1604.80845303
_cell_formula_units_Z   6
loop_
 _symmetry_equiv_pos_site_id
 _symmetry_equiv_pos_as_xyz
  1  'x, y, z'
loop_
 _atom_site_type_symbol
 _atom_site_label
 _atom_site_symmetry_multiplicity
 _atom_site_fract_x
 _atom_site_fract_y
 _atom_site_fract_z
 _atom_site_occupancy
  Na  Na0  1  0.00103664  0.00115131  0.50313203  1
  Na  Na1  1  0.99738095  0.99750889  0.00355929  1
  Na  Na2  1  0.63624537  0.31694912  0.83095051  1
  Na  Na3  1  0.68418807  0.36440988  0.33379009  1
  Na  Na4  1  0.33037559  0.66628857  0.17283029  1
  Na  Na5  1  0.33345435  0.66667287  0.66611180  1
  Na  Na6  1  0.63792368  0.00127936  0.24919945  1
  Na  Na7  1  0.36225758  0.36109453  0.24919009  1
  Na  Na8  1  0.63807130  0.63319727  0.74519777  1
  Na  Na9  1  0.99415819  0.36052743  0.74440787  1
  Na  Na10  1  0.03755046  0.70473352  0.58516829  1
  Na  Na11  1  0.66609040  0.96623456  0.58515883  1
  Na  Na12  1  0.29925509  0.96826428  0.08916728  1
  Na  Na13  1  0.02605648  0.33067316  0.08962365  1
  Na  Na14  1  0.97199884  0.66524840  0.91833170  1
  Na  Na15  1  0.69460860  0.02750022  0.91744667  1
  Na  Na16  1  0.97006885  0.30233735  0.41691789  1
  Na  Na17  1  0.33532985  0.03444320  0.41819622  1
  Y  Y18  1  0.98980488  0.98625600  0.34716999  1
  Y  Y19  1  0.01512580  0.01179243  0.84552192  1
  Y  Y20  1  0.66038207  0.34002694  0.98875789  1
  Y  Y21  1  0.34344875  0.66264522  0.02249776  1
  Y  Y22  1  0.33631281  0.65703081  0.52075819  1
  Y  Y23  1  0.33331689  0.67088852  0.81139227  1
  Ga  Ga24  1  0.01011648  0.00753563  0.64668884  1
  Ga  Ga25  1  0.99393776  0.99124657  0.15461059  1
  Ga  Ga26  1  0.65935586  0.32878821  0.68066134  1
  Ga  Ga27  1  0.67199258  0.34081897  0.18416414  1
  Ga  Ga28  1  0.66192588  0.33835013  0.48358019  1
  Ga  Ga29  1  0.32768076  0.66403755  0.31697289  1
  P  P30  1  0.30432407  0.99839854  0.24870173  1
  P  P31  1  0.69616525  0.69511913  0.24680170  1
  P  P32  1  0.99963255  0.30564246  0.24854569  1
  P  P33  1  0.30533790  0.29373771  0.74125357  1
  P  P34  1  0.98972601  0.69578220  0.74210669  1
  P  P35  1  0.70878085  0.00933271  0.74184731  1
  P  P36  1  0.94471789  0.32358634  0.58472518  1
  P  P37  1  0.37415175  0.05405357  0.58293619  1
  P  P38  1  0.67955048  0.62721940  0.58637758  1
  P  P39  1  0.95966842  0.63862621  0.08832002  1
  P  P40  1  0.67797754  0.04212846  0.09060333  1
  P  P41  1  0.35659481  0.31746358  0.09422815  1
  P  P42  1  0.63902007  0.66855754  0.91167863  1
  P  P43  1  0.02908217  0.36411914  0.91773789  1
  P  P44  1  0.33427159  0.96733616  0.92073020  1
  P  P45  1  0.62421107  0.96840459  0.41674871  1
  P  P46  1  0.34499358  0.37562780  0.41241442  1
  P  P47  1  0.03477910  0.65524716  0.41901271  1
  O  O48  1  0.22996607  0.03672323  0.30390550  1
  O  O49  1  0.79761980  0.76201526  0.30366196  1
  O  O50  1  0.95954742  0.19214314  0.30409193  1
  O  O51  1  0.23703603  0.20117512  0.80011922  1
  O  O52  1  0.96756156  0.77384087  0.79993973  1
  O  O53  1  0.81190609  0.03918781  0.79971690  1
  O  O54  1  0.80493496  0.98278630  0.68906643  1
  O  O55  1  0.17809230  0.20032302  0.69029378  1
  O  O56  1  0.01299365  0.81205381  0.68817137  1
  O  O57  1  0.78746907  0.82443347  0.19565942  1
  O  O58  1  0.03539335  0.21571261  0.19547898  1
  O  O59  1  0.18887746  0.97051103  0.19412352  1
  O  O60  1  0.86072113  0.35065258  0.64015080  1
  O  O61  1  0.49235263  0.14108803  0.63555727  1
  O  O62  1  0.65832200  0.52486847  0.64314862  1
  O  O63  1  0.85839606  0.50711706  0.13691746  1
  O  O64  1  0.65071097  0.13859983  0.14265149  1
  O  O65  1  0.47063020  0.33987993  0.14783440  1
  O  O66  1  0.43284065  0.28893304  0.03748450  1
  O  O67  1  0.87304118  0.57554036  0.02745791  1
  O  O68  1  0.70807561  0.14386495  0.03210090  1
  O  O69  1  0.45105068  0.15281851  0.52395453  1
  O  O70  1  0.70200592  0.53772179  0.53124375  1
  O  O71  1  0.83400785  0.29504100  0.52803752  1
  O  O72  1  0.54435269  0.68690061  0.96521374  1
  O  O73  1  0.13061865  0.45363422  0.97394708  1
  O  O74  1  0.31851959  0.86823963  0.97840238  1
  O  O75  1  0.54730996  0.86761716  0.47377027  1
  O  O76  1  0.30644950  0.45385968  0.46587230  1
  O  O77  1  0.13641266  0.68531987  0.47657136  1
  O  O78  1  0.12664157  0.62277374  0.36580851  1
  O  O79  1  0.51071694  0.87633635  0.36133096  1
  O  O80  1  0.36609191  0.48132861  0.35499104  1
  O  O81  1  0.11763426  0.46705366  0.86120134  1
  O  O82  1  0.35277985  0.87235239  0.86701718  1
  O  O83  1  0.54487911  0.65487557  0.85336170  1
  O  O84  1  0.02373293  0.81919967  0.41107594  1
  O  O85  1  0.80856731  0.00108312  0.41173007  1
  O  O86  1  0.18652497  0.19263486  0.40790657  1
  O  O87  1  0.00135190  0.18100204  0.91634093  1
  O  O88  1  0.16847831  0.97523013  0.91636012  1
  O  O89  1  0.81695312  0.83246834  0.91219645  1
  O  O90  1  0.96195171  0.15907181  0.58868255  1
  O  O91  1  0.18906593  0.02600156  0.58844660  1
  O  O92  1  0.84432847  0.81031763  0.58789000  1
  O  O93  1  0.98456570  0.82066880  0.09683279  1
  O  O94  1  0.84145553  0.02820818  0.09784007  1
  O  O95  1  0.17632743  0.15388341  0.09836666  1
  O  O96  1  0.69044399  0.17077122  0.73634377  1
  O  O97  1  0.48731560  0.32006851  0.73576401  1
  O  O98  1  0.82640243  0.51519305  0.73894749  1
  O  O99  1  0.66729474  0.51117789  0.23813410  1
  O  O100  1  0.83919332  0.32390325  0.23938768  1
  O  O101  1  0.48711099  0.15829314  0.24150745  1
  O  O102  1  0.66276168  0.51127961  0.91618507  1
  O  O103  1  0.85151915  0.35179648  0.91915321  1
  O  O104  1  0.49758423  0.14351303  0.92076442  1
  O  O105  1  0.63478567  0.14804557  0.42034172  1
  O  O106  1  0.50747412  0.35922655  0.42085335  1
  O  O107  1  0.85610064  0.48992818  0.42375127  1
  O  O108  1  0.32975017  0.47369411  0.09057491  1
  O  O109  1  0.13965182  0.65400007  0.08749570  1
  O  O110  1  0.51336388  0.86640461  0.08819875  1
  O  O111  1  0.35434669  0.87119817  0.58120052  1
  O  O112  1  0.52663062  0.65920597  0.58410045  1
  O  O113  1  0.12158237  0.48681640  0.58201476  1
  O  O114  1  0.32646762  0.83748416  0.25653880  1
  O  O115  1  0.51654980  0.68227920  0.25275240  1
  O  O116  1  0.16738651  0.48156578  0.25591726  1
  O  O117  1  0.32051689  0.47409945  0.74391847  1
  O  O118  1  0.14481571  0.66668943  0.74395579  1
  O  O119  1  0.53395278  0.84326032  0.74434871  1
