# generated using pymatgen
data_Na5Ga2SiGe2P5O24
_symmetry_space_group_name_H-M   'P 1'
_cell_length_a   8.63033713
_cell_length_b   8.62274767
_cell_length_c   21.80340165
_cell_angle_alpha   90.19129243
_cell_angle_beta   89.64259779
_cell_angle_gamma   120.04436789
_symmetry_Int_Tables_number   1
_chemical_formula_structural   Na5Ga2SiGe2P5O24
_chemical_formula_sum   'Na15 Ga6 Si3 Ge6 P15 O72'
_cell_volume   1404.51222701
_cell_formula_units_Z   3
loop_
 _symmetry_equiv_pos_site_id
 _symmetry_equiv_pos_as_xyz
  1  'x, y, z'
loop_
 _atom_site_type_symbol
 _atom_site_label
 _atom_site_symmetry_multiplicity
 _atom_site_fract_x
 _atom_site_fract_y
 _atom_site_fract_z
 _atom_site_occupancy
  Na  Na0  1  0.00171857  0.63690932  0.25076906  1
  Na  Na1  1  0.63131020  0.63640067  0.75090280  1
  Na  Na2  1  0.36857893  0.99883680  0.75075375  1
  Na  Na3  1  0.66530177  0.96875493  0.58389307  1
  Na  Na4  1  0.29832119  0.96771828  0.08291668  1
  Na  Na5  1  0.67158867  0.70012265  0.08246266  1
  Na  Na6  1  0.03115414  0.33242160  0.08336656  1
  Na  Na7  1  0.96729844  0.29971482  0.41630771  1
  Na  Na8  1  0.33567296  0.03522963  0.41751135  1
  Na  Na9  1  0.00201397  0.99478961  0.50087970  1
  Na  Na10  1  0.99974110  0.99781625  0.99732334  1
  Na  Na11  1  0.67337893  0.33308999  0.83649221  1
  Na  Na12  1  0.66113074  0.33448413  0.33352321  1
  Na  Na13  1  0.33860700  0.66700643  0.16969015  1
  Na  Na14  1  0.32357013  0.65856271  0.66691860  1
  Ga  Ga15  1  0.99502768  0.99534868  0.35039085  1
  Ga  Ga16  1  0.99910837  0.99634216  0.15091662  1
  Ga  Ga17  1  0.67026541  0.33826556  0.97832594  1
  Ga  Ga18  1  0.66186698  0.33648887  0.48354623  1
  Ga  Ga19  1  0.33934587  0.66634214  0.31441564  1
  Ga  Ga20  1  0.33343069  0.66668343  0.81522205  1
  Si  Si21  1  0.71875295  0.00693859  0.74979257  1
  Si  Si22  1  0.36921841  0.04228779  0.58281511  1
  Si  Si23  1  0.95555243  0.62240549  0.08216207  1
  Ge  Ge24  1  0.99628467  0.00272685  0.85418760  1
  Ge  Ge25  1  0.00387081  0.99972177  0.64763335  1
  Ge  Ge26  1  0.67018256  0.32679721  0.68432071  1
  Ge  Ge27  1  0.66724750  0.33251573  0.18588362  1
  Ge  Ge28  1  0.32697512  0.66554894  0.01398784  1
  Ge  Ge29  1  0.33001645  0.66690852  0.52026895  1
  P  P30  1  0.29702638  0.00511301  0.24987973  1
  P  P31  1  0.70451011  0.70755824  0.24939722  1
  P  P32  1  0.99862613  0.28870322  0.24955986  1
  P  P33  1  0.28295035  0.28679040  0.74988906  1
  P  P34  1  0.99844064  0.70999753  0.74990598  1
  P  P35  1  0.96004410  0.33657762  0.58268304  1
  P  P36  1  0.66734666  0.62019493  0.58378623  1
  P  P37  1  0.66662116  0.04600881  0.08235848  1
  P  P38  1  0.37982045  0.33348130  0.08265279  1
  P  P39  1  0.62389993  0.66633500  0.91563714  1
  P  P40  1  0.04286681  0.37540078  0.91503939  1
  P  P41  1  0.33276321  0.96021454  0.91515988  1
  P  P42  1  0.62267161  0.95216632  0.41666118  1
  P  P43  1  0.33820759  0.38328615  0.41673947  1
  P  P44  1  0.04164140  0.66570882  0.41658055  1
  O  O45  1  0.21540412  0.03808077  0.30797269  1
  O  O46  1  0.82962951  0.78606213  0.30493842  1
  O  O47  1  0.96420861  0.17617885  0.30782868  1
  O  O48  1  0.20721697  0.16252763  0.80668515  1
  O  O49  1  0.95773913  0.79200994  0.80694954  1
  O  O50  1  0.84194120  0.03856699  0.80963845  1
  O  O51  1  0.80094016  0.96097949  0.68847195  1
  O  O52  1  0.16885688  0.20283522  0.69250649  1
  O  O53  1  0.03949239  0.83255778  0.69308927  1
  O  O54  1  0.78503517  0.81822597  0.19081543  1
  O  O55  1  0.03094697  0.20927901  0.19123743  1
  O  O56  1  0.17880518  0.96508458  0.19253332  1
  O  O57  1  0.87668567  0.37367539  0.64017914  1
  O  O58  1  0.50207171  0.12625545  0.64328463  1
  O  O59  1  0.63277044  0.50566445  0.64306870  1
  O  O60  1  0.87425582  0.49539911  0.14450389  1
  O  O61  1  0.62153094  0.12294807  0.14056287  1
  O  O62  1  0.50009018  0.37449170  0.14058239  1
  O  O63  1  0.45639411  0.29076962  0.02700481  1
  O  O64  1  0.82624036  0.53687182  0.02540860  1
  O  O65  1  0.70374245  0.16303153  0.02680649  1
  O  O66  1  0.45494058  0.15823400  0.52177195  1
  O  O67  1  0.70550054  0.54417024  0.52708152  1
  O  O68  1  0.84308337  0.29492618  0.52543053  1
  O  O69  1  0.54023133  0.70354443  0.97558571  1
  O  O70  1  0.15986637  0.45454359  0.97560434  1
  O  O71  1  0.29542231  0.84096995  0.97487314  1
  O  O72  1  0.54050498  0.83774056  0.47598707  1
  O  O73  1  0.29440789  0.46414022  0.47451178  1
  O  O74  1  0.16709458  0.70525881  0.47305048  1
  O  O75  1  0.12087031  0.62805573  0.35869557  1
  O  O76  1  0.50069983  0.87340167  0.36136703  1
  O  O77  1  0.36659405  0.49441948  0.35984357  1
  O  O78  1  0.12997532  0.49441635  0.85991388  1
  O  O79  1  0.36458221  0.87671511  0.85824788  1
  O  O80  1  0.51071286  0.63610207  0.85864469  1
  O  O81  1  0.02961389  0.83746844  0.41104843  1
  O  O82  1  0.81213982  0.97675307  0.41121439  1
  O  O83  1  0.16698218  0.19334707  0.41214354  1
  O  O84  1  0.03040925  0.18828748  0.91094489  1
  O  O85  1  0.15925650  0.97385305  0.90944868  1
  O  O86  1  0.81258249  0.83847290  0.91118992  1
  O  O87  1  0.97231677  0.16419478  0.59096230  1
  O  O88  1  0.17247241  0.02106654  0.59241588  1
  O  O89  1  0.83137761  0.81245861  0.59071041  1
  O  O90  1  0.98267696  0.82228344  0.09059629  1
  O  O91  1  0.83175897  0.02432092  0.09036504  1
  O  O92  1  0.19017290  0.17153813  0.09085795  1
  O  O93  1  0.69088755  0.18183577  0.74272623  1
  O  O94  1  0.47535197  0.30883095  0.74297765  1
  O  O95  1  0.82440062  0.52533729  0.74179955  1
  O  O96  1  0.69241654  0.51893162  0.24268564  1
  O  O97  1  0.82754483  0.30965111  0.24379929  1
  O  O98  1  0.48415117  0.17556608  0.24183857  1
  O  O99  1  0.63961410  0.49964617  0.92250170  1
  O  O100  1  0.85854353  0.35484747  0.92282753  1
  O  O101  1  0.49874379  0.14279039  0.92387811  1
  O  O102  1  0.64510456  0.14218054  0.42277149  1
  O  O103  1  0.50127556  0.35749482  0.42228772  1
  O  O104  1  0.85808179  0.49540679  0.42421141  1
  O  O105  1  0.36222483  0.50570581  0.07660906  1
  O  O106  1  0.15845630  0.64317426  0.07529634  1
  O  O107  1  0.49715121  0.85385511  0.07654639  1
  O  O108  1  0.35875940  0.84465239  0.57599938  1
  O  O109  1  0.49898395  0.64300363  0.57740470  1
  O  O110  1  0.14789632  0.50352260  0.57612057  1
  O  O111  1  0.31009945  0.83376712  0.25606639  1
  O  O112  1  0.52000948  0.68770364  0.25591251  1
  O  O113  1  0.16144378  0.47957820  0.25523221  1
  O  O114  1  0.30941755  0.47490892  0.75594412  1
  O  O115  1  0.16474919  0.69218773  0.75594938  1
  O  O116  1  0.51851306  0.82929306  0.75519487  1
