# generated using pymatgen
data_Na2CaNb(PO4)3
_symmetry_space_group_name_H-M   'P 1'
_cell_length_a   9.13137320
_cell_length_b   9.11904238
_cell_length_c   22.66850133
_cell_angle_alpha   89.99999999
_cell_angle_beta   90.03361286
_cell_angle_gamma   119.95534216
_symmetry_Int_Tables_number   1
_chemical_formula_structural   Na2CaNb(PO4)3
_chemical_formula_sum   'Na12 Ca6 Nb6 P18 O72'
_cell_volume   1635.43740150
_cell_formula_units_Z   6
loop_
 _symmetry_equiv_pos_site_id
 _symmetry_equiv_pos_as_xyz
  1  'x, y, z'
loop_
 _atom_site_type_symbol
 _atom_site_label
 _atom_site_symmetry_multiplicity
 _atom_site_fract_x
 _atom_site_fract_y
 _atom_site_fract_z
 _atom_site_occupancy
  Na  Na0  1  0.98261526  0.63910692  0.24625967  1
  Na  Na1  1  0.98261526  0.34350834  0.74625967  1
  Na  Na2  1  0.64928226  0.97243992  0.57959267  1
  Na  Na3  1  0.64928226  0.67684134  0.07959267  1
  Na  Na4  1  0.31594826  0.30577392  0.91292667  1
  Na  Na5  1  0.31594826  0.01017534  0.41292667  1
  Na  Na6  1  0.99484662  0.00122855  0.49228084  1
  Na  Na7  1  0.99484662  0.99361807  0.99228084  1
  Na  Na8  1  0.66151362  0.33456155  0.82561384  1
  Na  Na9  1  0.66151362  0.32695107  0.32561384  1
  Na  Na10  1  0.32817962  0.66789555  0.15894784  1
  Na  Na11  1  0.32817962  0.66028507  0.65894784  1
  Ca  Ca12  1  0.99157591  0.00559845  0.35324445  1
  Ca  Ca13  1  0.99157591  0.98597746  0.85324445  1
  Ca  Ca14  1  0.65824291  0.33893145  0.68657745  1
  Ca  Ca15  1  0.65824291  0.31931046  0.18657745  1
  Ca  Ca16  1  0.32490891  0.67226545  0.01991145  1
  Ca  Ca17  1  0.32490891  0.65264446  0.51991145  1
  Nb  Nb18  1  0.00532695  0.99510913  0.64878772  1
  Nb  Nb19  1  0.00532695  0.01021783  0.14878772  1
  Nb  Nb20  1  0.67199395  0.32844213  0.98212072  1
  Nb  Nb21  1  0.67199395  0.34355083  0.48212072  1
  Nb  Nb22  1  0.33865995  0.66177613  0.31545472  1
  Nb  Nb23  1  0.33865995  0.67688483  0.81545472  1
  P  P24  1  0.28856851  0.98439958  0.25476402  1
  P  P25  1  0.70051482  0.71326739  0.24947771  1
  P  P26  1  0.01705077  0.30886222  0.25124910  1
  P  P27  1  0.28856851  0.30416893  0.75476402  1
  P  P28  1  0.01705077  0.70818855  0.75124910  1
  P  P29  1  0.70051482  0.98724743  0.74947771  1
  P  P30  1  0.95523551  0.31773258  0.58809702  1
  P  P31  1  0.36718182  0.04660039  0.58281071  1
  P  P32  1  0.68371777  0.64219522  0.58458210  1
  P  P33  1  0.95523551  0.63750193  0.08809702  1
  P  P34  1  0.68371777  0.04152155  0.08458210  1
  P  P35  1  0.36718182  0.32058043  0.08281071  1
  P  P36  1  0.62190151  0.65106658  0.92143102  1
  P  P37  1  0.03384782  0.37993439  0.91614471  1
  P  P38  1  0.35038377  0.97552922  0.91791610  1
  P  P39  1  0.62190151  0.97083593  0.42143102  1
  P  P40  1  0.35038377  0.37485555  0.41791610  1
  P  P41  1  0.03384782  0.65391443  0.41614471  1
  O  O42  1  0.21106780  0.99648959  0.31183932  1
  O  O43  1  0.81043666  0.79354317  0.30227177  1
  O  O44  1  0.99259471  0.20955973  0.30610447  1
  O  O45  1  0.21106780  0.21457821  0.81183932  1
  O  O46  1  0.99259471  0.78303498  0.80610447  1
  O  O47  1  0.81043666  0.01689348  0.80227177  1
  O  O48  1  0.79383898  0.96303356  0.69231265  1
  O  O49  1  0.16237965  0.19175530  0.70055506  1
  O  O50  1  0.02937936  0.82514299  0.69510999  1
  O  O51  1  0.79383898  0.83080542  0.19231265  1
  O  O52  1  0.02937936  0.20423637  0.19510999  1
  O  O53  1  0.16237965  0.97062435  0.20055506  1
  O  O54  1  0.87773480  0.32982259  0.64517232  1
  O  O55  1  0.47710366  0.12687617  0.63560477  1
  O  O56  1  0.65926171  0.54289273  0.63943747  1
  O  O57  1  0.87773480  0.54791121  0.14517232  1
  O  O58  1  0.65926171  0.11636798  0.13943747  1
  O  O59  1  0.47710366  0.35022648  0.13560477  1
  O  O60  1  0.46050598  0.29636656  0.02564565  1
  O  O61  1  0.82904665  0.52508830  0.03388806  1
  O  O62  1  0.69604636  0.15847599  0.02844299  1
  O  O63  1  0.46050598  0.16413842  0.52564565  1
  O  O64  1  0.69604636  0.53756937  0.52844299  1
  O  O65  1  0.82904665  0.30395735  0.53388806  1
  O  O66  1  0.54440080  0.66315659  0.97850632  1
  O  O67  1  0.14376966  0.46021017  0.96893877  1
  O  O68  1  0.32592771  0.87622673  0.97277147  1
  O  O69  1  0.54440080  0.88124521  0.47850632  1
  O  O70  1  0.32592771  0.44970198  0.47277147  1
  O  O71  1  0.14376966  0.68356048  0.46893877  1
  O  O72  1  0.12717198  0.62970056  0.35897965  1
  O  O73  1  0.49571265  0.85842230  0.36722206  1
  O  O74  1  0.36271236  0.49180999  0.36177699  1
  O  O75  1  0.12717198  0.49747242  0.85897965  1
  O  O76  1  0.36271236  0.87090337  0.86177699  1
  O  O77  1  0.49571265  0.63729135  0.86722206  1
  O  O78  1  0.00485623  0.80248083  0.40844519  1
  O  O79  1  0.79995401  0.00569269  0.41377115  1
  O  O80  1  0.21296179  0.19211057  0.40985050  1
  O  O81  1  0.00485623  0.20237540  0.90844519  1
  O  O82  1  0.21296179  0.02085123  0.90985050  1
  O  O83  1  0.79995401  0.79426132  0.91377115  1
  O  O84  1  0.95026463  0.14046979  0.58661618  1
  O  O85  1  0.19169826  0.04192719  0.59012876  1
  O  O86  1  0.86006906  0.81386243  0.58693146  1
  O  O87  1  0.95026463  0.80979484  0.08661618  1
  O  O88  1  0.86006906  0.04620663  0.08693146  1
  O  O89  1  0.19169826  0.14977107  0.09012876  1
  O  O90  1  0.67152323  0.13581383  0.74177819  1
  O  O91  1  0.46662101  0.33902569  0.74710415  1
  O  O92  1  0.87962879  0.52544357  0.74318350  1
  O  O93  1  0.67152323  0.53570840  0.24177819  1
  O  O94  1  0.87962879  0.35418423  0.24318350  1
  O  O95  1  0.46662101  0.12759432  0.24710415  1
  O  O96  1  0.61693163  0.47380279  0.91994918  1
  O  O97  1  0.85836526  0.37526019  0.92346176  1
  O  O98  1  0.52673606  0.14719543  0.92026446  1
  O  O99  1  0.61693163  0.14312784  0.41994918  1
  O  O100  1  0.52673606  0.37953963  0.42026446  1
  O  O101  1  0.85836526  0.48310407  0.42346176  1
  O  O102  1  0.33818923  0.46914783  0.07511219  1
  O  O103  1  0.13328701  0.67235969  0.08043815  1
  O  O104  1  0.54629479  0.85877757  0.07651750  1
  O  O105  1  0.33818923  0.86904240  0.57511219  1
  O  O106  1  0.54629479  0.68751823  0.57651750  1
  O  O107  1  0.13328701  0.46092832  0.58043815  1
  O  O108  1  0.28359763  0.80713679  0.25328318  1
  O  O109  1  0.52503126  0.70859419  0.25679576  1
  O  O110  1  0.19340206  0.48052943  0.25359846  1
  O  O111  1  0.28359763  0.47646184  0.75328318  1
  O  O112  1  0.19340206  0.71287363  0.75359846  1
  O  O113  1  0.52503126  0.81643807  0.75679576  1
