# generated using pymatgen
data_Ta(TeBr3)2
_symmetry_space_group_name_H-M   'P 1'
_cell_length_a   7.02563544
_cell_length_b   7.27336572
_cell_length_c   12.86993426
_cell_angle_alpha   84.82502336
_cell_angle_beta   81.56184569
_cell_angle_gamma   82.58182486
_symmetry_Int_Tables_number   1
_chemical_formula_structural   Ta(TeBr3)2
_chemical_formula_sum   'Ta2 Te4 Br12'
_cell_volume   643.38566782
_cell_formula_units_Z   2
loop_
 _symmetry_equiv_pos_site_id
 _symmetry_equiv_pos_as_xyz
  1  'x, y, z'
loop_
 _atom_site_type_symbol
 _atom_site_label
 _atom_site_symmetry_multiplicity
 _atom_site_fract_x
 _atom_site_fract_y
 _atom_site_fract_z
 _atom_site_occupancy
  Ta  Ta0  1  0.79646921  0.34083344  0.81271701  1
  Ta  Ta1  1  0.20353079  0.65916656  0.18728299  1
  Te  Te2  1  0.26401416  0.16226002  0.53196471  1
  Te  Te3  1  0.73598584  0.83773998  0.46803529  1
  Te  Te4  1  0.42791080  0.84131594  0.62215250  1
  Te  Te5  1  0.57208920  0.15868406  0.37784750  1
  Br  Br6  1  0.91592401  0.25594986  0.98091139  1
  Br  Br7  1  0.08407599  0.74405014  0.01908861  1
  Br  Br8  1  0.96674707  0.03046190  0.73564439  1
  Br  Br9  1  0.03325293  0.96953810  0.26435561  1
  Br  Br10  1  0.09962647  0.48506345  0.73613927  1
  Br  Br11  1  0.90037353  0.51493655  0.26386073  1
  Br  Br12  1  0.31066358  0.57759137  0.37790242  1
  Br  Br13  1  0.68933642  0.42240863  0.62209758  1
  Br  Br14  1  0.49557010  0.82210896  0.14031053  1
  Br  Br15  1  0.50442990  0.17789104  0.85968947  1
  Br  Br16  1  0.37372613  0.35762624  0.13534549  1
  Br  Br17  1  0.62627387  0.64237376  0.86465451  1
