# generated using pymatgen
data_MgFe8(OF)8
_symmetry_space_group_name_H-M   'P 1'
_cell_length_a   9.62971855
_cell_length_b   9.92567020
_cell_length_c   3.09895500
_cell_angle_alpha   90.00000000
_cell_angle_beta   90.00000000
_cell_angle_gamma   90.24553381
_symmetry_Int_Tables_number   1
_chemical_formula_structural   MgFe8(OF)8
_chemical_formula_sum   'Mg1 Fe8 O8 F8'
_cell_volume   296.19977012
_cell_formula_units_Z   1
loop_
 _symmetry_equiv_pos_site_id
 _symmetry_equiv_pos_as_xyz
  1  'x, y, z'
loop_
 _atom_site_type_symbol
 _atom_site_label
 _atom_site_symmetry_multiplicity
 _atom_site_fract_x
 _atom_site_fract_y
 _atom_site_fract_z
 _atom_site_occupancy
  Mg  Mg0  1  0.26802700  0.50098300  0.00000000  1
  Fe  Fe1  1  0.00927200  0.00156600  0.00000000  1
  Fe  Fe2  1  0.97872700  0.50692500  0.00000000  1
  Fe  Fe3  1  0.21465400  0.23719000  0.50000000  1
  Fe  Fe4  1  0.21327300  0.76368500  0.50000000  1
  Fe  Fe5  1  0.59284600  0.49283600  0.00000000  1
  Fe  Fe6  1  0.50286800  0.00587700  0.00000000  1
  Fe  Fe7  1  0.76723900  0.26715800  0.50000000  1
  Fe  Fe8  1  0.75328200  0.74069300  0.50000000  1
  O  O9  1  0.13432700  0.42142500  0.50000000  1
  O  O10  1  0.09046700  0.91286200  0.50000000  1
  O  O11  1  0.13172200  0.15409800  0.00000000  1
  O  O12  1  0.14384400  0.66158200  0.00000000  1
  O  O13  1  0.60902800  0.38026300  0.50000000  1
  O  O14  1  0.65368600  0.67691500  0.00000000  1
  O  O15  1  0.86805800  0.34258000  0.00000000  1
  O  O16  1  0.89559500  0.59771300  0.50000000  1
  F  F17  1  0.34415300  0.31914000  0.00000000  1
  F  F18  1  0.33944600  0.84441700  0.00000000  1
  F  F19  1  0.38713800  0.09627100  0.50000000  1
  F  F20  1  0.37046400  0.58716300  0.50000000  1
  F  F21  1  0.60803200  0.91023300  0.50000000  1
  F  F22  1  0.67034600  0.15043100  0.00000000  1
  F  F23  1  0.85089900  0.85732200  0.00000000  1
  F  F24  1  0.89427500  0.09150000  0.50000000  1
