# generated using pymatgen
data_Na42Ca8Nb16Si33(SO48)3
_symmetry_space_group_name_H-M   'P 1'
_cell_length_a   18.49675289
_cell_length_b   9.25061827
_cell_length_c   22.60647553
_cell_angle_alpha   89.86927984
_cell_angle_beta   90.34297805
_cell_angle_gamma   119.97307516
_symmetry_Int_Tables_number   1
_chemical_formula_structural   Na42Ca8Nb16Si33(SO48)3
_chemical_formula_sum   'Na42 Ca8 Nb16 Si33 S3 O144'
_cell_volume   3350.73115689
_cell_formula_units_Z   1
loop_
 _symmetry_equiv_pos_site_id
 _symmetry_equiv_pos_as_xyz
  1  'x, y, z'
loop_
 _atom_site_type_symbol
 _atom_site_label
 _atom_site_symmetry_multiplicity
 _atom_site_fract_x
 _atom_site_fract_y
 _atom_site_fract_z
 _atom_site_occupancy
  Na  Na0  1  0.31641047  0.98076695  0.25477451  1
  Na  Na1  1  0.81788305  0.98241844  0.25535711  1
  Na  Na2  1  0.17778373  0.38162322  0.25424480  1
  Na  Na3  1  0.67869163  0.38253977  0.25450947  1
  Na  Na4  1  0.00405964  0.63579569  0.26113299  1
  Na  Na5  1  0.50344936  0.63367921  0.25964239  1
  Na  Na6  1  0.31756713  0.65401377  0.75643152  1
  Na  Na7  1  0.81044246  0.64268234  0.75447725  1
  Na  Na8  1  0.00271037  0.37774812  0.75772663  1
  Na  Na9  1  0.51292128  0.37528303  0.75767262  1
  Na  Na10  1  0.17744987  0.97339395  0.75490199  1
  Na  Na11  1  0.67820460  0.97838923  0.75434001  1
  Na  Na12  1  0.14262031  0.32122164  0.58230825  1
  Na  Na13  1  0.64266197  0.31746923  0.59147076  1
  Na  Na14  1  0.01645692  0.71655304  0.58987945  1
  Na  Na15  1  0.51944885  0.72198636  0.59005140  1
  Na  Na16  1  0.34138042  0.96121787  0.58934264  1
  Na  Na17  1  0.84169355  0.96676454  0.59065620  1
  Na  Na18  1  0.34091550  0.72082161  0.08976600  1
  Na  Na19  1  0.84107608  0.72088796  0.09013029  1
  Na  Na20  1  0.01833388  0.31759171  0.08948133  1
  Na  Na21  1  0.51668586  0.31474682  0.08855615  1
  Na  Na22  1  0.48643480  0.66186543  0.91478872  1
  Na  Na23  1  0.98941196  0.65575366  0.91480791  1
  Na  Na24  1  0.34509242  0.02589450  0.91591414  1
  Na  Na25  1  0.84131444  0.02590157  0.91442612  1
  Na  Na26  1  0.66576817  0.30772009  0.91407853  1
  Na  Na27  1  0.48885813  0.32125089  0.41503134  1
  Na  Na28  1  0.34006197  0.65594985  0.41430121  1
  Na  Na29  1  0.84260218  0.65602021  0.41512035  1
  Na  Na30  1  0.00412468  0.00642254  0.50337371  1
  Na  Na31  1  0.50614464  0.00027602  0.50535225  1
  Na  Na32  1  0.01183174  0.01029065  0.00769003  1
  Na  Na33  1  0.50458474  0.99866065  0.00605607  1
  Na  Na34  1  0.32979647  0.33441575  0.83631644  1
  Na  Na35  1  0.83260354  0.33293271  0.83141368  1
  Na  Na36  1  0.32769615  0.32278450  0.33385349  1
  Na  Na37  1  0.83610650  0.32436277  0.33743689  1
  Na  Na38  1  0.16593937  0.66048777  0.17075674  1
  Na  Na39  1  0.66703535  0.66035731  0.17139232  1
  Na  Na40  1  0.16712126  0.68314228  0.67226855  1
  Na  Na41  1  0.66633842  0.66500152  0.67799880  1
  Ca  Ca42  1  0.99933519  0.99730966  0.64549307  1
  Ca  Ca43  1  0.49982556  -0.00001894  0.64648554  1
  Ca  Ca44  1  0.00314159  0.00064434  0.14405212  1
  Ca  Ca45  1  0.50320654  0.00092367  0.14328554  1
  Ca  Ca46  1  0.16483623  0.66270498  0.32273262  1
  Ca  Ca47  1  0.66667325  0.66493056  0.32216692  1
  Ca  Ca48  1  0.16677844  0.66782419  0.82352534  1
  Ca  Ca49  1  0.66634883  0.66750046  0.82116746  1
  Nb  Nb50  1  0.99139780  0.99963723  0.35766075  1
  Nb  Nb51  1  0.49217377  0.99687223  0.35640859  1
  Nb  Nb52  1  0.99305668  0.98826536  0.85619266  1
  Nb  Nb53  1  0.49821048  0.99868019  0.85049931  1
  Nb  Nb54  1  0.34027835  0.33605734  0.68424766  1
  Nb  Nb55  1  0.83276112  0.33342804  0.68803061  1
  Nb  Nb56  1  0.33823969  0.33990946  0.18378379  1
  Nb  Nb57  1  0.83930856  0.34230619  0.18429710  1
  Nb  Nb58  1  0.33019505  0.33203997  0.98103728  1
  Nb  Nb59  1  0.83306311  0.33121962  0.98222617  1
  Nb  Nb60  1  0.33065172  0.33094822  0.48011874  1
  Nb  Nb61  1  0.83429523  0.33086980  0.48009616  1
  Nb  Nb62  1  0.16753741  0.66903277  0.01825337  1
  Nb  Nb63  1  0.66650470  0.66932356  0.02030359  1
  Nb  Nb64  1  0.16385518  0.66427144  0.51667587  1
  Nb  Nb65  1  0.66669876  0.66731148  0.51772366  1
  Si  Si66  1  0.35132249  0.69938183  0.24654973  1
  Si  Si67  1  0.85209951  0.70108982  0.24708218  1
  Si  Si68  1  0.99808210  0.29424155  0.24669716  1
  Si  Si69  1  0.49791006  0.29527330  0.24685456  1
  Si  Si70  1  0.64946681  0.29460689  0.74694815  1
  Si  Si71  1  0.99943600  0.70204036  0.74706787  1
  Si  Si72  1  0.49645582  0.69863437  0.74682422  1
  Si  Si73  1  0.35009674  0.00184792  0.74614140  1
  Si  Si74  1  0.85259438  0.00501117  0.74677834  1
  Si  Si75  1  0.48295842  0.34394704  0.57940868  1
  Si  Si76  1  0.98124700  0.34618797  0.58366976  1
  Si  Si77  1  0.19172783  0.03915043  0.58281777  1
  Si  Si78  1  0.69207015  0.04037799  0.58185090  1
  Si  Si79  1  0.32799705  0.61812666  0.58179636  1
  Si  Si80  1  0.82871748  0.61737345  0.58122730  1
  Si  Si81  1  0.48224094  0.62058087  0.07999321  1
  Si  Si82  1  0.98396579  0.62317357  0.08044326  1
  Si  Si83  1  0.32727798  0.03815962  0.08183470  1
  Si  Si84  1  0.82724810  0.03705584  0.08322432  1
  Si  Si85  1  0.19061115  0.34336801  0.08253504  1
  Si  Si86  1  0.69060804  0.34229563  0.08186905  1
  Si  Si87  1  0.31654345  0.66572235  0.91452119  1
  Si  Si88  1  0.81412396  0.66121672  0.91761101  1
  Si  Si89  1  0.01722979  0.36395202  0.91686649  1
  Si  Si90  1  0.51595302  0.36574201  0.91718358  1
  Si  Si91  1  0.16636102  0.96753681  0.91532944  1
  Si  Si92  1  0.66629556  0.96655251  0.91606769  1
  Si  Si93  1  0.31297987  0.96697692  0.41523332  1
  Si  Si94  1  0.81322043  0.96788583  0.41475808  1
  Si  Si95  1  0.16421788  0.36338585  0.41541525  1
  Si  Si96  1  0.66617135  0.36352960  0.41599681  1
  Si  Si97  1  0.01571611  0.66936013  0.41466843  1
  Si  Si98  1  0.51645721  0.66924873  0.41626473  1
  S  S99  1  0.14883430  0.00862061  0.25138551  1
  S  S100  1  0.64802917  0.00900676  0.25172394  1
  S  S101  1  0.14853370  0.28879738  0.75004228  1
  O  O102  1  0.10603555  0.02771267  0.30357386  1
  O  O103  1  0.60371255  0.02618241  0.30394112  1
  O  O104  1  0.41444094  0.80549425  0.30671613  1
  O  O105  1  0.91417871  0.80355133  0.30694095  1
  O  O106  1  0.48702787  0.16648241  0.30613006  1
  O  O107  1  0.98672334  0.16145345  0.30410643  1
  O  O108  1  0.10245872  0.17992856  0.80089969  1
  O  O109  1  0.59563714  0.16611550  0.80554002  1
  O  O110  1  0.48458451  0.80394059  0.80508298  1
  O  O111  1  0.98938582  0.81067206  0.80584134  1
  O  O112  1  0.41454932  0.02628565  0.80504072  1
  O  O113  1  0.91559791  0.02195409  0.80638053  1
  O  O114  1  0.38869195  0.98096128  0.68655171  1
  O  O115  1  0.89258908  0.98310037  0.68807131  1
  O  O116  1  0.10437674  0.22141291  0.69398530  1
  O  O117  1  0.59870890  0.22268180  0.68723109  1
  O  O118  1  0.01841622  0.81122506  0.68874949  1
  O  O119  1  0.50865982  0.79686875  0.68687932  1
  O  O120  1  0.39457059  0.80167339  0.18850514  1
  O  O121  1  0.89377776  0.80126622  0.18822276  1
  O  O122  1  0.01388995  0.22114833  0.18788165  1
  O  O123  1  0.51433268  0.21956868  0.18906155  1
  O  O124  1  0.10193427  0.98594239  0.19713419  1
  O  O125  1  0.60102259  0.98597597  0.19752058  1
  O  O126  1  0.43372356  0.36406741  0.64037068  1
  O  O127  1  0.93406989  0.36806171  0.64341429  1
  O  O128  1  0.25032697  0.13594589  0.64308305  1
  O  O129  1  0.75080970  0.13462581  0.64217666  1
  O  O130  1  0.31775670  0.49731401  0.64096396  1
  O  O131  1  0.81718309  0.49875571  0.64094497  1
  O  O132  1  0.43309110  0.49941537  0.14066616  1
  O  O133  1  0.93356257  0.50109523  0.14067870  1
  O  O134  1  0.31908734  0.13761136  0.14177615  1
  O  O135  1  0.81942477  0.13743423  0.14233165  1
  O  O136  1  0.24992869  0.36264679  0.14277010  1
  O  O137  1  0.75040661  0.36085128  0.14139851  1
  O  O138  1  0.24686031  0.33698127  0.02829861  1
  O  O139  1  0.74523828  0.33810660  0.02577015  1
  O  O140  1  0.42479644  0.50966908  0.02492691  1
  O  O141  1  0.92485038  0.50916587  0.02572161  1
  O  O142  1  0.33366011  0.15621814  0.02639838  1
  O  O143  1  0.83115349  0.15227676  0.02677766  1
  O  O144  1  0.24760554  0.15857187  0.52856751  1
  O  O145  1  0.74667546  0.16257604  0.52831582  1
  O  O146  1  0.33329750  0.51142504  0.52628117  1
  O  O147  1  0.83561365  0.51539098  0.52552120  1
  O  O148  1  0.42395219  0.33698518  0.52516169  1
  O  O149  1  0.92119718  0.33271980  0.52878220  1
  O  O150  1  0.26354658  0.69549570  0.96932628  1
  O  O151  1  0.76601314  0.69709909  0.97265750  1
  O  O152  1  0.08141418  0.46964185  0.97286321  1
  O  O153  1  0.58356512  0.46961021  0.97288144  1
  O  O154  1  0.15044964  0.82741036  0.96891523  1
  O  O155  1  0.65283981  0.82980735  0.97040281  1
  O  O156  1  0.26323948  0.83272489  0.47051087  1
  O  O157  1  0.76212718  0.82989032  0.46947051  1
  O  O158  1  0.15273889  0.47008797  0.47222721  1
  O  O159  1  0.64968377  0.46855348  0.47111986  1
  O  O160  1  0.08223350  0.69099690  0.47093487  1
  O  O161  1  0.58113269  0.69139600  0.47250582  1
  O  O162  1  0.04527519  0.63309185  0.35414758  1
  O  O163  1  0.54357459  0.61434065  0.35784084  1
  O  O164  1  0.26928108  0.90898963  0.35301666  1
  O  O165  1  0.76964239  0.91020557  0.35239080  1
  O  O166  1  0.19463732  0.47514473  0.35742570  1
  O  O167  1  0.69058161  0.47065444  0.35688797  1
  O  O168  1  0.04279262  0.47276378  0.85808082  1
  O  O169  1  0.54412851  0.47594292  0.85888451  1
  O  O170  1  0.19202339  0.91434142  0.85573099  1
  O  O171  1  0.69560551  0.91569260  0.85773037  1
  O  O172  1  0.27016218  0.62839322  0.85267038  1
  O  O173  1  0.76201634  0.61187702  0.85807380  1
  O  O174  1  0.00729761  0.84026059  0.41202903  1
  O  O175  1  0.50784881  0.83845473  0.41064252  1
  O  O176  1  0.40659208  0.97359224  0.41255151  1
  O  O177  1  0.90501396  0.96970314  0.41305323  1
  O  O178  1  0.07889993  0.18102571  0.40888142  1
  O  O179  1  0.57693525  0.18390379  0.41001512  1
  O  O180  1  0.00832899  0.17712035  0.90995184  1
  O  O181  1  0.51282994  0.18363706  0.91138663  1
  O  O182  1  0.07751457  0.97003394  0.90975141  1
  O  O183  1  0.57874595  0.97237640  0.91124909  1
  O  O184  1  0.40865293  0.84367047  0.91168674  1
  O  O185  1  0.90666004  0.83817571  0.91145486  1
  O  O186  1  0.49098309  0.18075147  0.57733463  1
  O  O187  1  0.99455864  0.18836884  0.58194378  1
  O  O188  1  0.10268117  0.02718422  0.58031610  1
  O  O189  1  0.60114384  0.01926703  0.57966563  1
  O  O190  1  0.40912176  0.79871220  0.57863041  1
  O  O191  1  0.90938706  0.80022037  0.57987528  1
  O  O192  1  0.48457485  0.79358199  0.07923344  1
  O  O193  1  0.98472442  0.79470139  0.07853837  1
  O  O194  1  0.40912564  0.02116969  0.08027115  1
  O  O195  1  0.90966943  0.02269633  0.07989567  1
  O  O196  1  0.09865838  0.19008966  0.07975203  1
  O  O197  1  0.59831895  0.18942861  0.07815635  1
  O  O198  1  0.34797632  0.18333551  0.74571699  1
  O  O199  1  0.85434140  0.18826518  0.74723994  1
  O  O200  1  0.23188072  0.29632192  0.74913510  1
  O  O201  1  0.73975910  0.29174599  0.74613369  1
  O  O202  1  0.40383700  0.51520283  0.74552289  1
  O  O203  1  0.90708146  0.52466028  0.74600800  1
  O  O204  1  0.34885054  0.51314521  0.24648464  1
  O  O205  1  0.84837808  0.51280891  0.24560391  1
  O  O206  1  0.40508821  0.29100021  0.24585672  1
  O  O207  1  0.90531568  0.29130086  0.24548567  1
  O  O208  1  0.23277493  0.16883779  0.24856325  1
  O  O209  1  0.73137224  0.16814863  0.24946231  1
  O  O210  1  0.33810037  0.51570300  0.92752965  1
  O  O211  1  0.83716916  0.51308366  0.92846616  1
  O  O212  1  0.41989139  0.32683099  0.92851742  1
  O  O213  1  0.92033460  0.32619276  0.92888636  1
  O  O214  1  0.24522357  0.15348695  0.92946249  1
  O  O215  1  0.74315152  0.15904390  0.92892825  1
  O  O216  1  0.33776699  0.16091249  0.42731017  1
  O  O217  1  0.83256239  0.15586970  0.42877292  1
  O  O218  1  0.24436881  0.33608918  0.43027798  1
  O  O219  1  0.74595595  0.33902496  0.43001030  1
  O  O220  1  0.42049883  0.51287642  0.42848404  1
  O  O221  1  0.92068216  0.51431296  0.42804673  1
  O  O222  1  0.19041148  0.52250548  0.07715893  1
  O  O223  1  0.69007938  0.52155555  0.07758804  1
  O  O224  1  0.07260319  0.62358313  0.07758867  1
  O  O225  1  0.57185109  0.62243193  0.07751006  1
  O  O226  1  0.24289495  0.85221510  0.07558772  1
  O  O227  1  0.74283003  0.85123281  0.07746014  1
  O  O228  1  0.18715055  0.85677849  0.57706868  1
  O  O229  1  0.68855417  0.85783735  0.57556013  1
  O  O230  1  0.24050350  0.62536689  0.57731762  1
  O  O231  1  0.74133130  0.62644122  0.57574030  1
  O  O232  1  0.07282055  0.52165253  0.57761479  1
  O  O233  1  0.57313202  0.51902106  0.57769204  1
  O  O234  1  0.16321917  0.86613688  0.25624929  1
  O  O235  1  0.66103933  0.86497781  0.25727898  1
  O  O236  1  0.25922260  0.67485696  0.25197192  1
  O  O237  1  0.75929607  0.67455895  0.25189314  1
  O  O238  1  0.07314973  0.48308722  0.25401324  1
  O  O239  1  0.57276357  0.48450840  0.25385072  1
  O  O240  1  0.16079463  0.45783933  0.75596913  1
  O  O241  1  0.66552099  0.47978652  0.75540074  1
  O  O242  1  0.07468315  0.66364818  0.75454925  1
  O  O243  1  0.57260094  0.66528723  0.75483210  1
  O  O244  1  0.25821323  0.84311416  0.75295629  1
  O  O245  1  0.76015467  0.85031955  0.75348382  1
