# generated using pymatgen
data_MgNi(WO4)2
_symmetry_space_group_name_H-M   'P 1'
_cell_length_a   5.03092324
_cell_length_b   5.80321900
_cell_length_c   5.84232302
_cell_angle_alpha   71.42665457
_cell_angle_beta   89.03408577
_cell_angle_gamma   116.29897970
_symmetry_Int_Tables_number   1
_chemical_formula_structural   MgNi(WO4)2
_chemical_formula_sum   'Mg1 Ni1 W2 O8'
_cell_volume   142.42386859
_cell_formula_units_Z   1
loop_
 _symmetry_equiv_pos_site_id
 _symmetry_equiv_pos_as_xyz
  1  'x, y, z'
loop_
 _atom_site_type_symbol
 _atom_site_label
 _atom_site_symmetry_multiplicity
 _atom_site_fract_x
 _atom_site_fract_y
 _atom_site_fract_z
 _atom_site_occupancy
  Mg  Mg0  1  0.02594800  0.05462600  0.28278400  1
  Ni  Ni1  1  0.50414100  0.00967500  0.97979500  1
  W  W2  1  0.25787800  0.52336300  0.66788800  1
  W  W3  1  0.74582100  0.48079900  0.32847700  1
  O  O4  1  0.46584100  0.29693400  0.66342600  1
  O  O5  1  0.04079900  0.77439800  0.07813500  1
  O  O6  1  0.04088900  0.71498700  0.53460100  1
  O  O7  1  0.49459000  0.75470900  0.80610700  1
  O  O8  1  0.56699700  0.73604200  0.32624000  1
  O  O9  1  0.96788800  0.28880400  0.44692000  1
  O  O10  1  0.48542900  0.25005100  0.18617200  1
  O  O11  1  0.96628000  0.24656400  0.93903500  1
