# generated using pymatgen
data_Lu6UO12
_symmetry_space_group_name_H-M   'P 1'
_cell_length_a   6.37267859
_cell_length_b   6.37267823
_cell_length_c   6.37267798
_cell_angle_alpha   99.24071044
_cell_angle_beta   99.24070626
_cell_angle_gamma   99.24070101
_symmetry_Int_Tables_number   1
_chemical_formula_structural   Lu6UO12
_chemical_formula_sum   'Lu6 U1 O12'
_cell_volume   247.47089004
_cell_formula_units_Z   1
loop_
 _symmetry_equiv_pos_site_id
 _symmetry_equiv_pos_as_xyz
  1  'x, y, z'
loop_
 _atom_site_type_symbol
 _atom_site_label
 _atom_site_symmetry_multiplicity
 _atom_site_fract_x
 _atom_site_fract_y
 _atom_site_fract_z
 _atom_site_occupancy
  Lu  Lu0  1  0.67334471  0.39088755  0.85442328  1
  Lu  Lu1  1  0.39088755  0.85442328  0.67334471  1
  Lu  Lu2  1  0.85442328  0.67334471  0.39088755  1
  Lu  Lu3  1  0.32665529  0.60911245  0.14557672  1
  Lu  Lu4  1  0.60911245  0.14557672  0.32665529  1
  Lu  Lu5  1  0.14557672  0.32665529  0.60911245  1
  U  U6  1  0.00000000  -0.00000000  -0.00000000  1
  O  O7  1  0.42285804  0.17789892  0.58521997  1
  O  O8  1  0.17789892  0.58521997  0.42285804  1
  O  O9  1  0.58521997  0.42285804  0.17789892  1
  O  O10  1  0.57714196  0.82210108  0.41478003  1
  O  O11  1  0.82210108  0.41478003  0.57714196  1
  O  O12  1  0.41478003  0.57714196  0.82210108  1
  O  O13  1  0.05043142  0.91375483  0.68626692  1
  O  O14  1  0.31373308  0.94956858  0.08624517  1
  O  O15  1  0.08624517  0.31373308  0.94956858  1
  O  O16  1  0.94956858  0.08624517  0.31373308  1
  O  O17  1  0.68626692  0.05043142  0.91375483  1
  O  O18  1  0.91375483  0.68626692  0.05043142  1
