# generated using pymatgen
data_Ta3Ga(PO4)6
_symmetry_space_group_name_H-M   'P 1'
_cell_length_a   8.70553771
_cell_length_b   8.70553743
_cell_length_c   22.46369653
_cell_angle_alpha   90.00000000
_cell_angle_beta   90.00000000
_cell_angle_gamma   120.00000108
_symmetry_Int_Tables_number   1
_chemical_formula_structural   Ta3Ga(PO4)6
_chemical_formula_sum   'Ta9 Ga3 P18 O72'
_cell_volume   1474.35829956
_cell_formula_units_Z   3
loop_
 _symmetry_equiv_pos_site_id
 _symmetry_equiv_pos_as_xyz
  1  'x, y, z'
loop_
 _atom_site_type_symbol
 _atom_site_label
 _atom_site_symmetry_multiplicity
 _atom_site_fract_x
 _atom_site_fract_y
 _atom_site_fract_z
 _atom_site_occupancy
  Ta  Ta0  1  0.00000000  0.00000000  0.85460005  1
  Ta  Ta1  1  0.00000000  0.00000000  0.64025377  1
  Ta  Ta2  1  0.00000000  0.00000000  0.14706089  1
  Ta  Ta3  1  0.66666700  0.33333300  0.97838456  1
  Ta  Ta4  1  0.66666700  0.33333300  0.47345187  1
  Ta  Ta5  1  0.33333300  0.66666700  0.02676950  1
  Ta  Ta6  1  0.33333300  0.66666700  0.52127184  1
  Ta  Ta7  1  0.33333300  0.66666700  0.30670134  1
  Ta  Ta8  1  0.33333300  0.66666700  0.80641945  1
  Ga  Ga9  1  0.00000000  0.00000000  0.35395856  1
  Ga  Ga10  1  0.66666700  0.33333300  0.68777993  1
  Ga  Ga11  1  0.66666700  0.33333300  0.19241017  1
  P  P12  1  0.29015290  0.00885863  0.25191370  1
  P  P13  1  0.71870572  0.70984710  0.25191370  1
  P  P14  1  0.99114137  0.28129428  0.25191370  1
  P  P15  1  0.29225246  0.28319310  0.74816120  1
  P  P16  1  0.99094065  0.70774754  0.74816120  1
  P  P17  1  0.71680690  0.00905935  0.74816120  1
  P  P18  1  0.94822142  0.33724352  0.58461322  1
  P  P19  1  0.38902310  0.05177858  0.58461322  1
  P  P20  1  0.66275648  0.61097690  0.58461322  1
  P  P21  1  0.94672824  0.61680478  0.08608099  1
  P  P22  1  0.67007754  0.05327176  0.08608099  1
  P  P23  1  0.38319522  0.32992246  0.08608099  1
  P  P24  1  0.61671105  0.66652162  0.91656292  1
  P  P25  1  0.04980957  0.38328895  0.91656292  1
  P  P26  1  0.33347838  0.95019043  0.91656292  1
  P  P27  1  0.62533156  0.94973219  0.41458260  1
  P  P28  1  0.32439963  0.37466844  0.41458260  1
  P  P29  1  0.05026781  0.67560037  0.41458260  1
  O  O30  1  0.20445173  0.03515818  0.30618245  1
  O  O31  1  0.83070645  0.79554827  0.30618245  1
  O  O32  1  0.96484182  0.16929355  0.30618245  1
  O  O33  1  0.19749907  0.16937243  0.80477973  1
  O  O34  1  0.97187336  0.80250093  0.80477973  1
  O  O35  1  0.83062757  0.02812664  0.80477973  1
  O  O36  1  0.80142185  0.96881706  0.69471793  1
  O  O37  1  0.16739521  0.19857815  0.69471793  1
  O  O38  1  0.03118294  0.83260479  0.69471793  1
  O  O39  1  0.80227065  0.83227625  0.19499527  1
  O  O40  1  0.03000560  0.19772935  0.19499527  1
  O  O41  1  0.16772375  0.96999440  0.19499527  1
  O  O42  1  0.87278994  0.36977232  0.64038125  1
  O  O43  1  0.49698338  0.12721006  0.64038125  1
  O  O44  1  0.63022768  0.50301662  0.64038125  1
  O  O45  1  0.86981143  0.49967626  0.13906399  1
  O  O46  1  0.62986583  0.13018857  0.13906399  1
  O  O47  1  0.50032374  0.37013417  0.13906399  1
  O  O48  1  0.46941551  0.30466032  0.02799925  1
  O  O49  1  0.83524580  0.53058449  0.02799925  1
  O  O50  1  0.69533968  0.16475420  0.02799925  1
  O  O51  1  0.46890861  0.16694338  0.52873855  1
  O  O52  1  0.69803577  0.53109139  0.52873855  1
  O  O53  1  0.83305662  0.30196423  0.52873855  1
  O  O54  1  0.53216241  0.69715185  0.97163460  1
  O  O55  1  0.16498844  0.46783759  0.97163460  1
  O  O56  1  0.30284815  0.83501156  0.97163460  1
  O  O57  1  0.53091761  0.83621956  0.47142673  1
  O  O58  1  0.30530095  0.46908239  0.47142673  1
  O  O59  1  0.16378044  0.69469905  0.47142673  1
  O  O60  1  0.13468139  0.63503510  0.36125203  1
  O  O61  1  0.50035271  0.86531861  0.36125203  1
  O  O62  1  0.36496490  0.49964729  0.36125203  1
  O  O63  1  0.13545552  0.49903927  0.86115428  1
  O  O64  1  0.36358275  0.86454448  0.86115428  1
  O  O65  1  0.50096073  0.63641725  0.86115428  1
  O  O66  1  0.02682772  0.83357969  0.40806078  1
  O  O67  1  0.80675197  0.97317228  0.40806078  1
  O  O68  1  0.16642031  0.19324803  0.40806078  1
  O  O69  1  0.02720959  0.19753267  0.90646976  1
  O  O70  1  0.17032308  0.97279041  0.90646976  1
  O  O71  1  0.80246733  0.82967692  0.90646976  1
  O  O72  1  0.97165465  0.17094745  0.59352767  1
  O  O73  1  0.19929280  0.02834535  0.59352767  1
  O  O74  1  0.82905255  0.80070720  0.59352767  1
  O  O75  1  0.97296195  0.80380684  0.09167440  1
  O  O76  1  0.83084489  0.02703805  0.09167440  1
  O  O77  1  0.19619316  0.16915511  0.09167440  1
  O  O78  1  0.69384532  0.16728879  0.74166197  1
  O  O79  1  0.47344446  0.30615468  0.74166197  1
  O  O80  1  0.83271121  0.52655554  0.74166197  1
  O  O81  1  0.69191396  0.52825450  0.23997141  1
  O  O82  1  0.83634154  0.30808604  0.23997141  1
  O  O83  1  0.47174550  0.16365846  0.23997141  1
  O  O84  1  0.63934968  0.50385169  0.92607009  1
  O  O85  1  0.86450301  0.36065032  0.92607009  1
  O  O86  1  0.49614831  0.13549699  0.92607009  1
  O  O87  1  0.63756270  0.13322943  0.42705429  1
  O  O88  1  0.49566774  0.36243730  0.42705429  1
  O  O89  1  0.86677057  0.50433226  0.42705429  1
  O  O90  1  0.35976629  0.49432325  0.07220671  1
  O  O91  1  0.13455596  0.64023371  0.07220671  1
  O  O92  1  0.50567675  0.86544404  0.07220671  1
  O  O93  1  0.35837504  0.86307845  0.57297988  1
  O  O94  1  0.50470241  0.64162496  0.57297988  1
  O  O95  1  0.13692155  0.49529759  0.57297988  1
  O  O96  1  0.30417896  0.83671985  0.25949365  1
  O  O97  1  0.53253989  0.69582104  0.25949365  1
  O  O98  1  0.16328015  0.46746011  0.25949365  1
  O  O99  1  0.30426982  0.46658979  0.76023475  1
  O  O100  1  0.16231897  0.69573018  0.76023475  1
  O  O101  1  0.53341021  0.83768103  0.76023475  1
