# generated using pymatgen
data_Na4Ta2Zn2Si3(SO8)3
_symmetry_space_group_name_H-M   'P 1'
_cell_length_a   9.01466159
_cell_length_b   8.99798036
_cell_length_c   22.50375943
_cell_angle_alpha   89.43007858
_cell_angle_beta   90.40939190
_cell_angle_gamma   120.32761196
_symmetry_Int_Tables_number   1
_chemical_formula_structural   Na4Ta2Zn2Si3(SO8)3
_chemical_formula_sum   'Na12 Ta6 Zn6 Si9 S9 O72'
_cell_volume   1575.48467438
_cell_formula_units_Z   3
loop_
 _symmetry_equiv_pos_site_id
 _symmetry_equiv_pos_as_xyz
  1  'x, y, z'
loop_
 _atom_site_type_symbol
 _atom_site_label
 _atom_site_symmetry_multiplicity
 _atom_site_fract_x
 _atom_site_fract_y
 _atom_site_fract_z
 _atom_site_occupancy
  Na  Na0  1  0.37077742  0.35001203  0.24335346  1
  Na  Na1  1  0.64573267  0.62843108  0.74325175  1
  Na  Na2  1  0.02498632  0.67791234  0.59321139  1
  Na  Na3  1  0.32107678  0.96767515  0.07516584  1
  Na  Na4  1  0.70001400  0.02431000  0.90377174  1
  Na  Na5  1  0.98786577  0.30194997  0.42486009  1
  Na  Na6  1  0.01344505  0.01607262  0.49907141  1
  Na  Na7  1  0.01414226  0.00438777  0.98663806  1
  Na  Na8  1  0.68053901  0.33139331  0.81830419  1
  Na  Na9  1  0.64757380  0.31608427  0.32725801  1
  Na  Na10  1  0.35151315  0.66607942  0.15132826  1
  Na  Na11  1  0.33410136  0.64899569  0.65510397  1
  Ta  Ta12  1  0.98617331  0.99737117  0.64815294  1
  Ta  Ta13  1  0.00947472  0.00117334  0.14220931  1
  Ta  Ta14  1  0.65467750  0.31777146  0.98076984  1
  Ta  Ta15  1  0.66128734  0.33954265  0.48503572  1
  Ta  Ta16  1  0.34013515  0.66972325  0.31310583  1
  Ta  Ta17  1  0.32894681  0.67920805  0.81037581  1
  Zn  Zn18  1  0.02421278  0.00701765  0.35052650  1
  Zn  Zn19  1  0.00571786  0.99388248  0.84723640  1
  Zn  Zn20  1  0.69137877  0.33796481  0.68637294  1
  Zn  Zn21  1  0.63384033  0.30659335  0.17824163  1
  Zn  Zn22  1  0.34399561  0.67422115  0.01832717  1
  Zn  Zn23  1  0.34542700  0.62853432  0.52349974  1
  Si  Si24  1  0.29811309  0.99943589  0.25090724  1
  Si  Si25  1  0.99664320  0.70942121  0.75103152  1
  Si  Si26  1  0.71115444  0.01003113  0.75677559  1
  Si  Si27  1  0.96258881  0.33318000  0.58164524  1
  Si  Si28  1  0.66411575  0.62919167  0.59102649  1
  Si  Si29  1  0.66944804  0.03711397  0.08558064  1
  Si  Si30  1  0.37710079  0.34939518  0.08637196  1
  Si  Si31  1  0.31773139  0.95427829  0.92065968  1
  Si  Si32  1  0.33186333  0.36336240  0.41536166  1
  S  S33  1  0.71383513  0.71966047  0.25424714  1
  S  S34  1  0.00095967  0.29367291  0.25092681  1
  S  S35  1  0.28607328  0.29339909  0.75234630  1
  S  S36  1  0.37134304  0.04423063  0.58517267  1
  S  S37  1  0.94586036  0.61900704  0.08749291  1
  S  S38  1  0.62214354  0.65728251  0.91798663  1
  S  S39  1  0.04110724  0.38353307  0.91978899  1
  S  S40  1  0.62123111  0.95881073  0.41767967  1
  S  S41  1  0.04022549  0.66341158  0.41694646  1
  O  O42  1  0.20896523  0.03379852  0.30519357  1
  O  O43  1  0.80448940  0.80780176  0.30778754  1
  O  O44  1  0.97325289  0.19857871  0.30687958  1
  O  O45  1  0.20826566  0.20064815  0.80682328  1
  O  O46  1  0.96973170  0.79682393  0.80696464  1
  O  O47  1  0.81555087  0.03026372  0.81670688  1
  O  O48  1  0.81182476  0.97334923  0.69886482  1
  O  O49  1  0.17706086  0.20940031  0.69793014  1
  O  O50  1  0.03785561  0.83569743  0.68980216  1
  O  O51  1  0.79453722  0.82307205  0.19912650  1
  O  O52  1  0.03135323  0.20110076  0.20012645  1
  O  O53  1  0.17141415  0.97021290  0.19063518  1
  O  O54  1  0.86811440  0.36335506  0.63463700  1
  O  O55  1  0.47111331  0.12308470  0.63775374  1
  O  O56  1  0.63786758  0.51685597  0.64869756  1
  O  O57  1  0.86181120  0.52379413  0.14089250  1
  O  O58  1  0.64026783  0.12632677  0.14056567  1
  O  O59  1  0.47303658  0.37692935  0.14892323  1
  O  O60  1  0.48289002  0.30727922  0.03174114  1
  O  O61  1  0.84604728  0.54056027  0.03178431  1
  O  O62  1  0.70251544  0.16564800  0.02411992  1
  O  O63  1  0.46706693  0.15984008  0.52912453  1
  O  O64  1  0.69297422  0.52315146  0.53093110  1
  O  O65  1  0.83772310  0.29904636  0.51791711  1
  O  O66  1  0.53361339  0.67111023  0.96948976  1
  O  O67  1  0.13878986  0.46535419  0.97247941  1
  O  O68  1  0.30678394  0.85450770  0.98095357  1
  O  O69  1  0.53340269  0.86244023  0.47000457  1
  O  O70  1  0.29183852  0.45787021  0.46659049  1
  O  O71  1  0.13718232  0.68953847  0.47138977  1
  O  O72  1  0.13900472  0.64104307  0.36447528  1
  O  O73  1  0.50969218  0.86406949  0.36171796  1
  O  O74  1  0.35990293  0.48932147  0.35359337  1
  O  O75  1  0.13013824  0.48297725  0.86395708  1
  O  O76  1  0.35741664  0.85240286  0.86402422  1
  O  O77  1  0.51886150  0.62951614  0.86199255  1
  O  O78  1  0.00130757  0.79889994  0.40588814  1
  O  O79  1  0.79267384  0.98042042  0.40999676  1
  O  O80  1  0.15815333  0.17595435  0.41203254  1
  O  O81  1  0.00250675  0.20404224  0.91609312  1
  O  O82  1  0.16926751  0.99787633  0.91066228  1
  O  O83  1  0.79259204  0.81411580  0.91451699  1
  O  O84  1  0.98359335  0.16017145  0.58926585  1
  O  O85  1  0.20291210  0.04125479  0.58444700  1
  O  O86  1  0.85650406  0.81461117  0.59046046  1
  O  O87  1  0.95658792  0.79865230  0.08958368  1
  O  O88  1  0.84725245  0.02611298  0.09363145  1
  O  O89  1  0.19101298  0.15129026  0.09032241  1
  O  O90  1  0.65790328  0.14992438  0.74424517  1
  O  O91  1  0.45911671  0.32110552  0.74549569  1
  O  O92  1  0.83396085  0.52047810  0.74581412  1
  O  O93  1  0.68560417  0.54490908  0.25115084  1
  O  O94  1  0.86688176  0.33373045  0.23998608  1
  O  O95  1  0.48818736  0.16664884  0.24668524  1
  O  O96  1  0.64511338  0.50195054  0.92376873  1
  O  O97  1  0.86693864  0.37743532  0.92078843  1
  O  O98  1  0.51332741  0.14699014  0.92387640  1
  O  O99  1  0.63635790  0.13359714  0.41504352  1
  O  O100  1  0.51297340  0.35440026  0.42255722  1
  O  O101  1  0.87119867  0.49001836  0.41738900  1
  O  O102  1  0.32625838  0.48992624  0.07259567  1
  O  O103  1  0.12363227  0.65795212  0.08324563  1
  O  O104  1  0.50345979  0.85153716  0.07700852  1
  O  O105  1  0.34088476  0.87235184  0.57362840  1
  O  O106  1  0.52311154  0.68292929  0.58064092  1
  O  O107  1  0.14448708  0.50935873  0.57483614  1
  O  O108  1  0.30649203  0.81720732  0.25878886  1
  O  O109  1  0.53107668  0.70086964  0.25537175  1
  O  O110  1  0.17544756  0.46574233  0.25422893  1
  O  O111  1  0.30129194  0.47133993  0.75496547  1
  O  O112  1  0.17570547  0.69247101  0.75790269  1
  O  O113  1  0.52529622  0.81222896  0.76136972  1
