# generated using pymatgen
data_Na4ZrZn3P2(SO6)4
_symmetry_space_group_name_H-M   'P 1'
_cell_length_a   8.92863504
_cell_length_b   8.92073769
_cell_length_c   22.53109871
_cell_angle_alpha   90.21270953
_cell_angle_beta   90.24223503
_cell_angle_gamma   120.13279268
_symmetry_Int_Tables_number   1
_chemical_formula_structural   Na4ZrZn3P2(SO6)4
_chemical_formula_sum   'Na12 Zr3 Zn9 P6 S12 O72'
_cell_volume   1552.03813504
_cell_formula_units_Z   3
loop_
 _symmetry_equiv_pos_site_id
 _symmetry_equiv_pos_as_xyz
  1  'x, y, z'
loop_
 _atom_site_type_symbol
 _atom_site_label
 _atom_site_symmetry_multiplicity
 _atom_site_fract_x
 _atom_site_fract_y
 _atom_site_fract_z
 _atom_site_occupancy
  Na  Na0  1  0.63173440  0.99637671  0.25451995  1
  Na  Na1  1  0.36358148  0.36453768  0.24975258  1
  Na  Na2  1  0.30532989  0.33849971  0.59331543  1
  Na  Na3  1  0.66796344  0.96049320  0.58353731  1
  Na  Na4  1  0.97779519  0.67989140  0.91072194  1
  Na  Na5  1  0.32221592  0.29586188  0.90705459  1
  Na  Na6  1  0.98368458  0.97555649  0.49632664  1
  Na  Na7  1  0.98595935  0.00129018  0.99744869  1
  Na  Na8  1  0.65751960  0.31787146  0.82140040  1
  Na  Na9  1  0.68386749  0.34029069  0.33157689  1
  Na  Na10  1  0.31698722  0.66546166  0.16016734  1
  Na  Na11  1  0.32506234  0.66065234  0.66561184  1
  Zr  Zr12  1  0.66673345  0.32802784  0.98182899  1
  Zr  Zr13  1  0.66922847  0.33895317  0.47943641  1
  Zr  Zr14  1  0.33664901  0.66258299  0.81367060  1
  Zn  Zn15  1  0.98748124  0.99434043  0.35165335  1
  Zn  Zn16  1  0.99833205  0.00761293  0.84755636  1
  Zn  Zn17  1  0.99685697  0.99082378  0.65637454  1
  Zn  Zn18  1  0.00095812  0.99653126  0.14938195  1
  Zn  Zn19  1  0.65621192  0.34518552  0.68595955  1
  Zn  Zn20  1  0.67492388  0.34055981  0.17829592  1
  Zn  Zn21  1  0.33946460  0.67067922  0.01134932  1
  Zn  Zn22  1  0.34735980  0.67359661  0.51054370  1
  Zn  Zn23  1  0.33347593  0.67790572  0.32446759  1
  P  P24  1  0.29550210  0.28935614  0.74897191  1
  P  P25  1  0.66762725  0.63373669  0.58504199  1
  P  P26  1  0.63379532  0.67483556  0.92010825  1
  P  P27  1  0.04251997  0.37092187  0.91917919  1
  P  P28  1  0.32777842  0.95631112  0.91835603  1
  P  P29  1  0.63734472  0.96451893  0.41567118  1
  S  S30  1  0.29177172  0.99836681  0.25003304  1
  S  S31  1  0.70515855  0.70175475  0.24910017  1
  S  S32  1  0.00142363  0.29663755  0.24964023  1
  S  S33  1  0.99708109  0.70028199  0.75121985  1
  S  S34  1  0.70496828  0.00584670  0.74732067  1
  S  S35  1  0.96403316  0.33780193  0.58520363  1
  S  S36  1  0.37136639  0.03586689  0.58407469  1
  S  S37  1  0.96883637  0.63554600  0.08521676  1
  S  S38  1  0.66626358  0.03139518  0.08835534  1
  S  S39  1  0.36532262  0.33294231  0.08670051  1
  S  S40  1  0.32680872  0.36656527  0.41504288  1
  S  S41  1  0.04409891  0.67172773  0.41640051  1
  O  O42  1  0.20964973  0.02461907  0.30286259  1
  O  O43  1  0.80705748  0.77990675  0.30356553  1
  O  O44  1  0.97134723  0.18660430  0.30256167  1
  O  O45  1  0.20884812  0.19050076  0.80614387  1
  O  O46  1  0.98034304  0.78020938  0.80668570  1
  O  O47  1  0.80736861  0.01912827  0.80025565  1
  O  O48  1  0.77525499  0.97757028  0.69128928  1
  O  O49  1  0.19115967  0.21022987  0.69079386  1
  O  O50  1  0.01907031  0.80343064  0.69784022  1
  O  O51  1  0.78572451  0.81024450  0.19612234  1
  O  O52  1  0.03046069  0.21667532  0.19596887  1
  O  O53  1  0.19286606  0.97940928  0.19499304  1
  O  O54  1  0.88004262  0.35474792  0.63816391  1
  O  O55  1  0.48233564  0.11591894  0.63661530  1
  O  O56  1  0.63288479  0.51561672  0.63814296  1
  O  O57  1  0.88250409  0.52985507  0.13799589  1
  O  O58  1  0.64900106  0.11294606  0.14388227  1
  O  O59  1  0.46628540  0.34888497  0.14173686  1
  O  O60  1  0.46181235  0.31858119  0.03344093  1
  O  O61  1  0.86173353  0.54358501  0.03013978  1
  O  O62  1  0.68120229  0.14603081  0.03631872  1
  O  O63  1  0.46278507  0.14776542  0.53040228  1
  O  O64  1  0.68627546  0.54035870  0.52820958  1
  O  O65  1  0.85302057  0.31596666  0.53089702  1
  O  O66  1  0.55610465  0.70093512  0.97608079  1
  O  O67  1  0.15427391  0.45125813  0.97440709  1
  O  O68  1  0.29748478  0.84709424  0.97357559  1
  O  O69  1  0.55195789  0.86271882  0.47258722  1
  O  O70  1  0.30890153  0.44839968  0.46972220  1
  O  O71  1  0.14320358  0.68478815  0.47044740  1
  O  O72  1  0.11381778  0.63874678  0.36184102  1
  O  O73  1  0.53157121  0.88898968  0.35761673  1
  O  O74  1  0.35138254  0.46966985  0.36071773  1
  O  O75  1  0.12688585  0.49142200  0.86429145  1
  O  O76  1  0.35750133  0.87143170  0.86291634  1
  O  O77  1  0.51142205  0.63467663  0.86506095  1
  O  O78  1  0.02503423  0.82628271  0.41222896  1
  O  O79  1  0.81983027  0.98705763  0.41239644  1
  O  O80  1  0.17771615  0.18972268  0.41064897  1
  O  O81  1  0.01700255  0.19012933  0.91015531  1
  O  O82  1  0.17222205  0.98467838  0.91085759  1
  O  O83  1  0.81825565  0.82229573  0.90983252  1
  O  O84  1  0.97744433  0.17697472  0.58519552  1
  O  O85  1  0.20287665  0.02999497  0.58638234  1
  O  O86  1  0.82940979  0.81718349  0.58892416  1
  O  O87  1  0.97698746  0.80548639  0.08674995  1
  O  O88  1  0.82724855  0.02245787  0.08825024  1
  O  O89  1  0.19449168  0.17194211  0.08667106  1
  O  O90  1  0.68635144  0.16049537  0.74372156  1
  O  O91  1  0.47833868  0.31224646  0.74713131  1
  O  O92  1  0.84681590  0.52270852  0.74696348  1
  O  O93  1  0.67876426  0.52221567  0.24352783  1
  O  O94  1  0.84166539  0.31136200  0.24361978  1
  O  O95  1  0.47108240  0.15905450  0.24656590  1
  O  O96  1  0.64274208  0.50037843  0.92509268  1
  O  O97  1  0.86228091  0.36287512  0.92454264  1
  O  O98  1  0.49308590  0.14350759  0.92379974  1
  O  O99  1  0.65482660  0.15047760  0.42208214  1
  O  O100  1  0.48985557  0.35292460  0.41998485  1
  O  O101  1  0.86277146  0.51319200  0.42105748  1
  O  O102  1  0.35064772  0.48953364  0.08190365  1
  O  O103  1  0.14097762  0.65255810  0.08043390  1
  O  O104  1  0.50971987  0.86022007  0.08172070  1
  O  O105  1  0.35166477  0.86191128  0.57639829  1
  O  O106  1  0.50027051  0.64881724  0.57787523  1
  O  O107  1  0.13983199  0.49040093  0.57815377  1
  O  O108  1  0.31715179  0.84509910  0.25427145  1
  O  O109  1  0.52708748  0.68250907  0.25346111  1
  O  O110  1  0.15988666  0.47104582  0.25648207  1
  O  O111  1  0.31524553  0.47721210  0.75352753  1
  O  O112  1  0.15937070  0.68638872  0.75469301  1
  O  O113  1  0.52582785  0.84644732  0.75281548  1
