# generated using pymatgen
data_Sr3(InP2)2
_symmetry_space_group_name_H-M   'P 1'
_cell_length_a   4.30605440
_cell_length_b   6.92890541
_cell_length_c   16.34286178
_cell_angle_alpha   90.00000000
_cell_angle_beta   90.00000000
_cell_angle_gamma   90.00000000
_symmetry_Int_Tables_number   1
_chemical_formula_structural   Sr3(InP2)2
_chemical_formula_sum   'Sr6 In4 P8'
_cell_volume   487.60960565
_cell_formula_units_Z   2
loop_
 _symmetry_equiv_pos_site_id
 _symmetry_equiv_pos_as_xyz
  1  'x, y, z'
loop_
 _atom_site_type_symbol
 _atom_site_label
 _atom_site_symmetry_multiplicity
 _atom_site_fract_x
 _atom_site_fract_y
 _atom_site_fract_z
 _atom_site_occupancy
  Sr  Sr0  1  0.50000000  0.50000000  0.50000000  1
  Sr  Sr1  1  -0.00000000  0.29202900  0.80130258  1
  Sr  Sr2  1  0.50000000  0.20797100  0.30130258  1
  Sr  Sr3  1  0.50000000  0.79202900  0.69869742  1
  Sr  Sr4  1  -0.00000000  0.70797100  0.19869742  1
  Sr  Sr5  1  0.00000000  0.00000000  -0.00000000  1
  In  In6  1  0.50000000  0.36715844  0.08493982  1
  In  In7  1  -0.00000000  0.13284156  0.58493982  1
  In  In8  1  0.00000000  0.86715844  0.41506018  1
  In  In9  1  0.50000000  0.63284156  0.91506018  1
  P  P10  1  0.50000000  0.74763699  0.33466733  1
  P  P11  1  0.50000000  0.26291937  0.93243496  1
  P  P12  1  -0.00000000  0.23708063  0.43243496  1
  P  P13  1  -0.00000000  0.76291937  0.56756504  1
  P  P14  1  0.50000000  0.73708063  0.06756504  1
  P  P15  1  0.00000000  0.75236301  0.83466733  1
  P  P16  1  0.50000000  0.25236301  0.66533267  1
  P  P17  1  0.00000000  0.24763699  0.16533267  1
