# generated using pymatgen
data_Ca2Nb4Si3(SO6)6
_symmetry_space_group_name_H-M   'P 1'
_cell_length_a   9.06651244
_cell_length_b   9.04486694
_cell_length_c   23.03309745
_cell_angle_alpha   90.31550430
_cell_angle_beta   90.00000000
_cell_angle_gamma   120.07919558
_symmetry_Int_Tables_number   1
_chemical_formula_structural   Ca2Nb4Si3(SO6)6
_chemical_formula_sum   'Ca4 Nb8 Si6 S12 O72'
_cell_volume   1634.44192978
_cell_formula_units_Z   2
loop_
 _symmetry_equiv_pos_site_id
 _symmetry_equiv_pos_as_xyz
  1  'x, y, z'
loop_
 _atom_site_type_symbol
 _atom_site_label
 _atom_site_symmetry_multiplicity
 _atom_site_fract_x
 _atom_site_fract_y
 _atom_site_fract_z
 _atom_site_occupancy
  Ca  Ca0  1  0.99479493  0.00147458  0.36487450  1
  Ca  Ca1  1  0.00667965  0.00147458  0.86487450  1
  Ca  Ca2  1  0.66897334  0.33800858  0.68747089  1
  Ca  Ca3  1  0.66903624  0.33800858  0.18747089  1
  Nb  Nb4  1  0.99619680  0.00309560  0.64121486  1
  Nb  Nb5  1  0.00689880  0.00309560  0.14121486  1
  Nb  Nb6  1  0.65419877  0.34004437  0.97900405  1
  Nb  Nb7  1  0.68584660  0.34004437  0.47900405  1
  Nb  Nb8  1  0.32512976  0.67215442  0.02462746  1
  Nb  Nb9  1  0.34702366  0.67215442  0.52462746  1
  Nb  Nb10  1  0.34123696  0.67688460  0.30865683  1
  Nb  Nb11  1  0.33564664  0.67688460  0.80865683  1
  Si  Si12  1  0.96251314  0.33923425  0.58377559  1
  Si  Si13  1  0.66953357  0.61882501  0.58484607  1
  Si  Si14  1  0.94929244  0.61882501  0.08484607  1
  Si  Si15  1  0.37672210  0.33923425  0.08377559  1
  Si  Si16  1  0.35465155  0.96213581  0.91744025  1
  Si  Si17  1  0.60748327  0.96213581  0.41744025  1
  S  S18  1  0.27635889  0.98499296  0.25054610  1
  S  S19  1  0.70833810  0.72076106  0.25087551  1
  S  S20  1  0.01285273  0.29089497  0.25159357  1
  S  S21  1  0.27804224  0.29089497  0.75159357  1
  S  S22  1  0.01242296  0.72076106  0.75087551  1
  S  S23  1  0.70863407  0.98499296  0.75054610  1
  S  S24  1  0.37007086  0.04092661  0.58216539  1
  S  S25  1  0.67085675  0.04092661  0.08216539  1
  S  S26  1  0.60270584  0.65136479  0.91654213  1
  S  S27  1  0.04599614  0.39968839  0.91675077  1
  S  S28  1  0.35369125  0.39968839  0.41675077  1
  S  S29  1  0.04865795  0.65136479  0.41654213  1
  O  O30  1  0.20176558  0.00971489  0.30197995  1
  O  O31  1  0.80506644  0.79994651  0.30269512  1
  O  O32  1  0.99409308  0.19165972  0.30262116  1
  O  O33  1  0.19756664  0.19165972  0.80262116  1
  O  O34  1  0.99488007  0.79994651  0.80269512  1
  O  O35  1  0.80794930  0.00971489  0.80197995  1
  O  O36  1  0.79442437  0.95939612  0.69762547  1
  O  O37  1  0.16692846  0.20503520  0.69830142  1
  O  O38  1  0.04450383  0.82895302  0.69845521  1
  O  O39  1  0.78444919  0.82895302  0.19845521  1
  O  O40  1  0.03810674  0.20503520  0.19830142  1
  O  O41  1  0.16497175  0.95939612  0.19762547  1
  O  O42  1  0.89165446  0.37764076  0.63962849  1
  O  O43  1  0.47321157  0.09665477  0.63413878  1
  O  O44  1  0.61223947  0.51012060  0.64098997  1
  O  O45  1  0.89788214  0.51012060  0.14098997  1
  O  O46  1  0.62344420  0.09665477  0.13413878  1
  O  O47  1  0.48598730  0.37764076  0.13962849  1
  O  O48  1  0.46741329  0.29687305  0.02566100  1
  O  O49  1  0.82457346  0.52525400  0.02731503  1
  O  O50  1  0.70438439  0.15340264  0.03144970  1
  O  O51  1  0.44901925  0.15340264  0.53144970  1
  O  O52  1  0.70068154  0.52525400  0.52731503  1
  O  O53  1  0.82946076  0.29687305  0.52566100  1
  O  O54  1  0.51707094  0.66415601  0.96856843  1
  O  O55  1  0.15626902  0.48484504  0.96849888  1
  O  O56  1  0.34724079  0.83885900  0.97060203  1
  O  O57  1  0.49161722  0.83885900  0.47060203  1
  O  O58  1  0.32857502  0.48484504  0.46849888  1
  O  O59  1  0.14708406  0.66415601  0.46856843  1
  O  O60  1  0.12552433  0.62094697  0.36326262  1
  O  O61  1  0.48116559  0.85903100  0.35820731  1
  O  O62  1  0.37209309  0.50647812  0.36373456  1
  O  O63  1  0.13438403  0.50647812  0.86373456  1
  O  O64  1  0.37786442  0.85903100  0.85820731  1
  O  O65  1  0.49542164  0.62094697  0.86326262  1
  O  O66  1  0.02891173  0.79865513  0.41115456  1
  O  O67  1  0.78680464  0.97882794  0.41476787  1
  O  O68  1  0.20634212  0.23163868  0.41179621  1
  O  O69  1  0.02529656  0.23163868  0.91179621  1
  O  O70  1  0.19202330  0.97882794  0.91476787  1
  O  O71  1  0.76974341  0.79865513  0.91115456  1
  O  O72  1  0.97824448  0.16219859  0.59538419  1
  O  O73  1  0.19951326  0.02905403  0.59230515  1
  O  O74  1  0.84558406  0.81165017  0.59732135  1
  O  O75  1  0.96606611  0.81165017  0.09732135  1
  O  O76  1  0.82954077  0.02905403  0.09230515  1
  O  O77  1  0.18395411  0.16219859  0.09538419  1
  O  O78  1  0.66631967  0.11682358  0.74064329  1
  O  O79  1  0.44793649  0.31875006  0.74307155  1
  O  O80  1  0.87584654  0.54688942  0.74416317  1
  O  O81  1  0.67104388  0.54688942  0.24416317  1
  O  O82  1  0.87081456  0.31875006  0.24307155  1
  O  O83  1  0.45050491  0.11682358  0.24064329  1
  O  O84  1  0.61741710  0.49101281  0.92236194  1
  O  O85  1  0.88170771  0.39478820  0.92384885  1
  O  O86  1  0.53571787  0.14444255  0.92857766  1
  O  O87  1  0.60872569  0.14444255  0.42857766  1
  O  O88  1  0.51308149  0.39478820  0.42384885  1
  O  O89  1  0.87359671  0.49101281  0.42236194  1
  O  O90  1  0.33788186  0.48884154  0.06294819  1
  O  O91  1  0.14738334  0.67118908  0.06512765  1
  O  O92  1  0.53298985  0.86021775  0.06891898  1
  O  O93  1  0.32722690  0.86021775  0.56891898  1
  O  O94  1  0.52380474  0.67118908  0.56512765  1
  O  O95  1  0.15095868  0.48884154  0.56294819  1
  O  O96  1  0.27558864  0.81275397  0.25668643  1
  O  O97  1  0.52845228  0.70838888  0.25823387  1
  O  O98  1  0.17696915  0.46442419  0.25856999  1
  O  O99  1  0.28745404  0.46442419  0.75856999  1
  O  O100  1  0.17993560  0.70838888  0.75823387  1
  O  O101  1  0.53716433  0.81275397  0.75668643  1
