# generated using pymatgen
data_Na3TiSi2GePO12
_symmetry_space_group_name_H-M   'P 1'
_cell_length_a   15.22240304
_cell_length_b   8.81028822
_cell_length_c   8.86947613
_cell_angle_alpha   90.05334999
_cell_angle_beta   125.25391164
_cell_angle_gamma   90.03806075
_symmetry_Int_Tables_number   1
_chemical_formula_structural   Na3TiSi2GePO12
_chemical_formula_sum   'Na12 Ti4 Si8 Ge4 P4 O48'
_cell_volume   971.36211846
_cell_formula_units_Z   4
loop_
 _symmetry_equiv_pos_site_id
 _symmetry_equiv_pos_as_xyz
  1  'x, y, z'
loop_
 _atom_site_type_symbol
 _atom_site_label
 _atom_site_symmetry_multiplicity
 _atom_site_fract_x
 _atom_site_fract_y
 _atom_site_fract_z
 _atom_site_occupancy
  Na  Na0  1  0.24828433  0.77119849  0.99876016  1
  Na  Na1  1  0.74466173  0.73302961  0.49648865  1
  Na  Na2  1  0.74368256  0.26855966  0.99574261  1
  Na  Na3  1  0.24760630  0.22825168  0.49910807  1
  Na  Na4  1  0.50166725  0.12654221  0.75337826  1
  Na  Na5  1  0.50269514  0.87159623  0.25139118  1
  Na  Na6  1  0.00220895  0.62220747  0.75468460  1
  Na  Na7  1  0.00404889  0.37987872  0.25317490  1
  Na  Na8  1  0.80771880  0.93932514  0.22392686  1
  Na  Na9  1  0.81094849  0.05971671  0.72964994  1
  Na  Na10  1  0.31095979  0.43728146  0.22938873  1
  Na  Na11  1  0.31216729  0.56082426  0.73282730  1
  Ti  Ti12  1  0.89359543  0.74234593  0.93384515  1
  Ti  Ti13  1  0.89113660  0.25880249  0.42940353  1
  Ti  Ti14  1  0.10678184  0.25163385  0.06221416  1
  Ti  Ti15  1  0.39213245  0.23776763  0.93434796  1
  Si  Si16  1  0.35588610  0.88741989  0.74820826  1
  Si  Si17  1  0.64092920  0.89292560  0.74243008  1
  Si  Si18  1  0.64265923  0.10567230  0.24457800  1
  Si  Si19  1  0.35956221  0.10412188  0.26184737  1
  Si  Si20  1  0.85178052  0.39100089  0.75125592  1
  Si  Si21  1  0.14389315  0.39547697  0.74041660  1
  Si  Si22  1  0.14813265  0.61260179  0.25119910  1
  Si  Si23  1  0.85404586  0.61110754  0.25382742  1
  Ge  Ge24  1  0.10561205  0.74939658  0.56266261  1
  Ge  Ge25  1  0.60587090  0.24762548  0.56201955  1
  Ge  Ge26  1  0.39603322  0.75758357  0.43583358  1
  Ge  Ge27  1  0.60389142  0.75229166  0.05837901  1
  P  P28  1  0.00348922  0.96340123  0.74134989  1
  P  P29  1  0.00562374  0.03359169  0.25152079  1
  P  P30  1  0.50485529  0.46940815  0.74544335  1
  P  P31  1  0.50491446  0.53347965  0.25050339  1
  O  O32  1  0.14820330  0.58373102  0.73902309  1
  O  O33  1  0.85012063  0.57592259  0.75506480  1
  O  O34  1  0.85009667  0.42590149  0.25491443  1
  O  O35  1  0.15299507  0.42534932  0.23816538  1
  O  O36  1  0.64624892  0.08167445  0.73606440  1
  O  O37  1  0.35222167  0.07254481  0.76236834  1
  O  O38  1  0.35733706  0.91839520  0.26300645  1
  O  O39  1  0.64628126  0.91732130  0.23483163  1
  O  O40  1  0.43079927  0.56434573  0.56658527  1
  O  O41  1  0.57262236  0.56895769  0.92080286  1
  O  O42  1  0.57295242  0.43374554  0.42521418  1
  O  O43  1  0.43272377  0.43817312  0.07330553  1
  O  O44  1  0.93556541  0.05733379  0.56369373  1
  O  O45  1  0.06591342  0.06681652  0.91373128  1
  O  O46  1  0.07168323  0.93316592  0.42623144  1
  O  O47  1  0.93828633  0.93843804  0.07289554  1
  O  O48  1  0.25251420  0.80728232  0.72879720  1
  O  O49  1  0.74920499  0.83084359  0.76400310  1
  O  O50  1  0.74810064  0.17019054  0.25913342  1
  O  O51  1  0.25569342  0.18298521  0.23701659  1
  O  O52  1  0.75049862  0.30735687  0.73267949  1
  O  O53  1  0.24922813  0.32878442  0.75791617  1
  O  O54  1  0.25517684  0.67858668  0.26832177  1
  O  O55  1  0.75003663  0.69141234  0.22974342  1
  O  O56  1  0.36462721  0.86050613  0.57584530  1
  O  O57  1  0.63794312  0.86798778  0.92332311  1
  O  O58  1  0.64090419  0.13318082  0.42617840  1
  O  O59  1  0.36301732  0.14643276  0.08414530  1
  O  O60  1  0.85833009  0.34362799  0.57829403  1
  O  O61  1  0.14271823  0.35875931  0.92157164  1
  O  O62  1  0.14065344  0.63417519  0.42773856  1
  O  O63  1  0.86149862  0.65370412  0.08082768  1
  O  O64  1  0.45947292  0.80891469  0.93809884  1
  O  O65  1  0.53826932  0.81754209  0.55330155  1
  O  O66  1  0.53736323  0.17634744  0.05763675  1
  O  O67  1  0.46331401  0.18668960  0.44502311  1
  O  O68  1  0.95994042  0.32194172  0.93883129  1
  O  O69  1  0.03562377  0.32988872  0.55416810  1
  O  O70  1  0.04054899  0.67693438  0.06052184  1
  O  O71  1  0.96042941  0.68542997  0.44218480  1
  O  O72  1  0.08687803  0.85976965  0.74265478  1
  O  O73  1  0.92264485  0.86174865  0.74965210  1
  O  O74  1  0.92220443  0.13409012  0.25418810  1
  O  O75  1  0.08489071  0.14046100  0.24847548  1
  O  O76  1  0.58510531  0.36624065  0.73859133  1
  O  O77  1  0.42524862  0.36628824  0.75492738  1
  O  O78  1  0.42291735  0.63525073  0.25890001  1
  O  O79  1  0.58347709  0.63876335  0.24160401  1
