# generated using pymatgen
data_TaGaP2SO12
_symmetry_space_group_name_H-M   'P 1'
_cell_length_a   8.61007693
_cell_length_b   8.65005329
_cell_length_c   22.32577175
_cell_angle_alpha   89.69228291
_cell_angle_beta   90.00000000
_cell_angle_gamma   119.84723882
_symmetry_Int_Tables_number   1
_chemical_formula_structural   TaGaP2SO12
_chemical_formula_sum   'Ta6 Ga6 P12 S6 O72'
_cell_volume   1442.18530091
_cell_formula_units_Z   6
loop_
 _symmetry_equiv_pos_site_id
 _symmetry_equiv_pos_as_xyz
  1  'x, y, z'
loop_
 _atom_site_type_symbol
 _atom_site_label
 _atom_site_symmetry_multiplicity
 _atom_site_fract_x
 _atom_site_fract_y
 _atom_site_fract_z
 _atom_site_occupancy
  Ta  Ta0  1  0.99331118  0.00429006  0.64193828  1
  Ta  Ta1  1  0.01097888  0.00429006  0.14193828  1
  Ta  Ta2  1  0.65997818  0.33762306  0.97527128  1
  Ta  Ta3  1  0.67764588  0.33762306  0.47527128  1
  Ta  Ta4  1  0.32664418  0.67095706  0.30860528  1
  Ta  Ta5  1  0.34431188  0.67095706  0.80860528  1
  Ga  Ga6  1  0.99876176  0.00249594  0.35432162  1
  Ga  Ga7  1  0.00373418  0.00249594  0.85432162  1
  Ga  Ga8  1  0.66542876  0.33582894  0.68765462  1
  Ga  Ga9  1  0.67040118  0.33582894  0.18765462  1
  Ga  Ga10  1  0.33209476  0.66916294  0.02098862  1
  Ga  Ga11  1  0.33706718  0.66916294  0.52098862  1
  P  P12  1  0.29329965  0.01422680  0.25130823  1
  P  P13  1  0.99069979  0.28067128  0.25086722  1
  P  P14  1  0.28997148  0.28067128  0.75086722  1
  P  P15  1  0.72092715  0.01422680  0.75130823  1
  P  P16  1  0.95996665  0.34755980  0.58464123  1
  P  P17  1  0.65736679  0.61400428  0.58420022  1
  P  P18  1  0.95663848  0.61400428  0.08420022  1
  P  P19  1  0.38759415  0.34755980  0.08464123  1
  P  P20  1  0.62663265  0.68089380  0.91797523  1
  P  P21  1  0.32403279  0.94733828  0.91753422  1
  P  P22  1  0.62330448  0.94733828  0.41753422  1
  P  P23  1  0.05426015  0.68089380  0.41797523  1
  S  S24  1  0.71480439  0.70875725  0.25046588  1
  S  S25  1  0.99395286  0.70875725  0.75046588  1
  S  S26  1  0.38147139  0.04209025  0.58379888  1
  S  S27  1  0.66061986  0.04209025  0.08379888  1
  S  S28  1  0.04813739  0.37542425  0.91713288  1
  S  S29  1  0.32728586  0.37542425  0.41713288  1
  O  O30  1  0.20367937  0.03427657  0.30642565  1
  O  O31  1  0.82209249  0.78759466  0.30405864  1
  O  O32  1  0.96512550  0.16899386  0.30639092  1
  O  O33  1  0.20386836  0.16899386  0.80639092  1
  O  O34  1  0.96550217  0.78759466  0.80405864  1
  O  O35  1  0.83059720  0.03427657  0.80642565  1
  O  O36  1  0.80054351  0.96866455  0.69491551  1
  O  O37  1  0.16698053  0.19518555  0.69463560  1
  O  O38  1  0.03315104  0.82487428  0.69634778  1
  O  O39  1  0.79172324  0.82487428  0.19634778  1
  O  O40  1  0.02820503  0.19518555  0.19463560  1
  O  O41  1  0.16812104  0.96866455  0.19491551  1
  O  O42  1  0.87034637  0.36760957  0.63975865  1
  O  O43  1  0.48875949  0.12092766  0.63739164  1
  O  O44  1  0.63179250  0.50232686  0.63972392  1
  O  O45  1  0.87053536  0.50232686  0.13972392  1
  O  O46  1  0.63216917  0.12092766  0.13739164  1
  O  O47  1  0.49726420  0.36760957  0.13975865  1
  O  O48  1  0.46721051  0.30199755  0.02824851  1
  O  O49  1  0.83364753  0.52851855  0.02796860  1
  O  O50  1  0.69981804  0.15820728  0.02968078  1
  O  O51  1  0.45839024  0.15820728  0.52968078  1
  O  O52  1  0.69487203  0.52851855  0.52796860  1
  O  O53  1  0.83478804  0.30199755  0.52824851  1
  O  O54  1  0.53701237  0.70094357  0.97309265  1
  O  O55  1  0.15542549  0.45426166  0.97072564  1
  O  O56  1  0.29845850  0.83566086  0.97305792  1
  O  O57  1  0.53720136  0.83566086  0.47305792  1
  O  O58  1  0.29883517  0.45426166  0.47072564  1
  O  O59  1  0.16393020  0.70094357  0.47309265  1
  O  O60  1  0.13387651  0.63533155  0.36158251  1
  O  O61  1  0.50031353  0.86185255  0.36130260  1
  O  O62  1  0.36648404  0.49154128  0.36301478  1
  O  O63  1  0.12505624  0.49154128  0.86301478  1
  O  O64  1  0.36153803  0.86185255  0.86130260  1
  O  O65  1  0.50145404  0.63533155  0.86158251  1
  O  O66  1  0.02445230  0.83501949  0.40595436  1
  O  O67  1  0.80882268  0.97671371  0.40657874  1
  O  O68  1  0.17453060  0.19870937  0.40885993  1
  O  O69  1  0.02417877  0.19870937  0.90885993  1
  O  O70  1  0.16789103  0.97671371  0.90657874  1
  O  O71  1  0.81056719  0.83501949  0.90595436  1
  O  O72  1  0.97372369  0.17255421  0.59186486  1
  O  O73  1  0.20001375  0.02607300  0.59164475  1
  O  O74  1  0.83212092  0.80089943  0.59342204  1
  O  O75  1  0.96877852  0.80089943  0.09342204  1
  O  O76  1  0.82605925  0.02607300  0.09164475  1
  O  O77  1  0.19883052  0.17255421  0.09186486  1
  O  O78  1  0.69111930  0.16835249  0.73928736  1
  O  O79  1  0.47548968  0.31004671  0.73991174  1
  O  O80  1  0.84119760  0.53204237  0.74219293  1
  O  O81  1  0.69084577  0.53204237  0.24219293  1
  O  O82  1  0.83455803  0.31004671  0.23991174  1
  O  O83  1  0.47723419  0.16835249  0.23928736  1
  O  O84  1  0.64039069  0.50588721  0.92519786  1
  O  O85  1  0.86668075  0.35940600  0.92497775  1
  O  O86  1  0.49878792  0.13423243  0.92675504  1
  O  O87  1  0.63544552  0.13423243  0.42675504  1
  O  O88  1  0.49272625  0.35940600  0.42497775  1
  O  O89  1  0.86549752  0.50588721  0.42519786  1
  O  O90  1  0.35778530  0.50168649  0.07262136  1
  O  O91  1  0.14215568  0.64338071  0.07324574  1
  O  O92  1  0.50786360  0.86537637  0.07552693  1
  O  O93  1  0.35751177  0.86537637  0.57552693  1
  O  O94  1  0.50122403  0.64338071  0.57324574  1
  O  O95  1  0.14390019  0.50168649  0.57262136  1
  O  O96  1  0.30705669  0.83922121  0.25853186  1
  O  O97  1  0.53334675  0.69274000  0.25831175  1
  O  O98  1  0.16545392  0.46756643  0.26008904  1
  O  O99  1  0.30211152  0.46756643  0.76008904  1
  O  O100  1  0.15939225  0.69274000  0.75831175  1
  O  O101  1  0.53216352  0.83922121  0.75853186  1
