# generated using pymatgen
data_Na3MgTi(PO4)3
_symmetry_space_group_name_H-M   'P 1'
_cell_length_a   15.34022489
_cell_length_b   8.88454288
_cell_length_c   8.83239704
_cell_angle_alpha   90.00000000
_cell_angle_beta   124.89440339
_cell_angle_gamma   90.00000000
_symmetry_Int_Tables_number   1
_chemical_formula_structural   Na3MgTi(PO4)3
_chemical_formula_sum   'Na12 Mg4 Ti4 P12 O48'
_cell_volume   987.34577173
_cell_formula_units_Z   4
loop_
 _symmetry_equiv_pos_site_id
 _symmetry_equiv_pos_as_xyz
  1  'x, y, z'
loop_
 _atom_site_type_symbol
 _atom_site_label
 _atom_site_symmetry_multiplicity
 _atom_site_fract_x
 _atom_site_fract_y
 _atom_site_fract_z
 _atom_site_occupancy
  Na  Na0  1  0.25217934  0.72332720  0.98966788  1
  Na  Na1  1  0.75217934  0.77667280  0.48966788  1
  Na  Na2  1  0.75217934  0.22332720  0.98966788  1
  Na  Na3  1  0.25217934  0.27667280  0.48966788  1
  Na  Na4  1  0.50125536  0.11300444  0.74522376  1
  Na  Na5  1  0.50125536  0.88699556  0.24522376  1
  Na  Na6  1  0.00125536  0.61300444  0.74522376  1
  Na  Na7  1  0.00125536  0.38699556  0.24522376  1
  Na  Na8  1  0.18542217  0.94139971  0.28154290  1
  Na  Na9  1  0.18542217  0.05860029  0.78154290  1
  Na  Na10  1  0.68542217  0.44139971  0.28154290  1
  Na  Na11  1  0.68542217  0.55860029  0.78154290  1
  Mg  Mg12  1  0.10289678  0.74894482  0.56071846  1
  Mg  Mg13  1  0.10289678  0.25105518  0.06071846  1
  Mg  Mg14  1  0.60289678  0.24894482  0.56071846  1
  Mg  Mg15  1  0.60289678  0.75105518  0.06071846  1
  Ti  Ti16  1  0.89504632  0.75778391  0.94388532  1
  Ti  Ti17  1  0.89504632  0.24221609  0.44388532  1
  Ti  Ti18  1  0.39504632  0.25778391  0.94388532  1
  Ti  Ti19  1  0.39504632  0.74221609  0.44388532  1
  P  P20  1  0.99918351  0.95670420  0.76193498  1
  P  P21  1  0.99918351  0.04329580  0.26193498  1
  P  P22  1  0.49918351  0.45670420  0.76193498  1
  P  P23  1  0.49918351  0.54329580  0.26193498  1
  P  P24  1  0.35485123  0.89924536  0.76014471  1
  P  P25  1  0.64530530  0.88991060  0.74621692  1
  P  P26  1  0.64530530  0.11008940  0.24621692  1
  P  P27  1  0.35485123  0.10075464  0.26014471  1
  P  P28  1  0.85485123  0.39924536  0.76014471  1
  P  P29  1  0.14530530  0.38991060  0.74621692  1
  P  P30  1  0.14530530  0.61008940  0.24621692  1
  P  P31  1  0.85485123  0.60075464  0.26014471  1
  O  O32  1  0.15228404  0.56016690  0.73778302  1
  O  O33  1  0.84888014  0.57685761  0.75367654  1
  O  O34  1  0.84888014  0.42314239  0.25367654  1
  O  O35  1  0.15228404  0.43983310  0.23778302  1
  O  O36  1  0.65228404  0.06016690  0.73778302  1
  O  O37  1  0.34888014  0.07685761  0.75367654  1
  O  O38  1  0.34888014  0.92314239  0.25367654  1
  O  O39  1  0.65228404  0.93983310  0.23778302  1
  O  O40  1  0.43809274  0.56877742  0.58995227  1
  O  O41  1  0.56577104  0.54775004  0.93693174  1
  O  O42  1  0.56577104  0.45224996  0.43693174  1
  O  O43  1  0.43809274  0.43122258  0.08995227  1
  O  O44  1  0.93809274  0.06877742  0.58995227  1
  O  O45  1  0.06577104  0.04775004  0.93693174  1
  O  O46  1  0.06577104  0.95224996  0.43693174  1
  O  O47  1  0.93809274  0.93122258  0.08995227  1
  O  O48  1  0.25692114  0.83855555  0.74598965  1
  O  O49  1  0.73923659  0.80889691  0.75354036  1
  O  O50  1  0.73923659  0.19110309  0.25354036  1
  O  O51  1  0.25692114  0.16144445  0.24598965  1
  O  O52  1  0.75692114  0.33855555  0.74598965  1
  O  O53  1  0.23923659  0.30889691  0.75354036  1
  O  O54  1  0.23923659  0.69110309  0.25354036  1
  O  O55  1  0.75692114  0.66144445  0.24598965  1
  O  O56  1  0.35521782  0.85679986  0.58446759  1
  O  O57  1  0.64611449  0.84096829  0.91093057  1
  O  O58  1  0.64611449  0.15903171  0.41093057  1
  O  O59  1  0.35521782  0.14320014  0.08446759  1
  O  O60  1  0.85521782  0.35679986  0.58446759  1
  O  O61  1  0.14611449  0.34096829  0.91093057  1
  O  O62  1  0.14611449  0.65903171  0.41093057  1
  O  O63  1  0.85521782  0.64320014  0.08446759  1
  O  O64  1  0.45736177  0.84751220  0.93489133  1
  O  O65  1  0.53948308  0.82686986  0.56424169  1
  O  O66  1  0.53948308  0.17313014  0.06424169  1
  O  O67  1  0.45736177  0.15248780  0.43489133  1
  O  O68  1  0.95736177  0.34751220  0.93489133  1
  O  O69  1  0.03948308  0.32686986  0.56424169  1
  O  O70  1  0.03948308  0.67313014  0.06424169  1
  O  O71  1  0.95736177  0.65248780  0.43489133  1
  O  O72  1  0.07216808  0.85201331  0.74284216  1
  O  O73  1  0.91232907  0.85921323  0.75541817  1
  O  O74  1  0.91232907  0.14078677  0.25541817  1
  O  O75  1  0.07216808  0.14798669  0.24284216  1
  O  O76  1  0.57216808  0.35201331  0.74284216  1
  O  O77  1  0.41232907  0.35921323  0.75541817  1
  O  O78  1  0.41232907  0.64078677  0.25541817  1
  O  O79  1  0.57216808  0.64798669  0.24284216  1
