# generated using pymatgen
data_Rb2Te3
_symmetry_space_group_name_H-M   'P 1'
_cell_length_a   4.79232620
_cell_length_b   10.75268020
_cell_length_c   16.24681427
_cell_angle_alpha   90.00000000
_cell_angle_beta   90.00000000
_cell_angle_gamma   90.00000000
_symmetry_Int_Tables_number   1
_chemical_formula_structural   Rb2Te3
_chemical_formula_sum   'Rb8 Te12'
_cell_volume   837.20404266
_cell_formula_units_Z   4
loop_
 _symmetry_equiv_pos_site_id
 _symmetry_equiv_pos_as_xyz
  1  'x, y, z'
loop_
 _atom_site_type_symbol
 _atom_site_label
 _atom_site_symmetry_multiplicity
 _atom_site_fract_x
 _atom_site_fract_y
 _atom_site_fract_z
 _atom_site_occupancy
  Rb  Rb0  1  0.71948434  0.96894578  0.62327508  1
  Rb  Rb1  1  0.21948434  0.03105422  0.87672492  1
  Rb  Rb2  1  0.28051566  0.46894578  0.37672492  1
  Rb  Rb3  1  0.78051566  0.53105422  0.12327508  1
  Rb  Rb4  1  0.28051566  0.03105422  0.37672492  1
  Rb  Rb5  1  0.78051566  0.96894578  0.12327508  1
  Rb  Rb6  1  0.71948434  0.53105422  0.62327508  1
  Rb  Rb7  1  0.21948434  0.46894578  0.87672492  1
  Te  Te8  1  0.19288501  0.75000000  0.51433185  1
  Te  Te9  1  0.69288501  0.25000000  0.98566815  1
  Te  Te10  1  0.80711499  0.25000000  0.48566815  1
  Te  Te11  1  0.30711499  0.75000000  0.01433185  1
  Te  Te12  1  0.29246051  0.75000000  0.74074658  1
  Te  Te13  1  0.79246051  0.25000000  0.75925342  1
  Te  Te14  1  0.70753949  0.25000000  0.25925342  1
  Te  Te15  1  0.20753949  0.75000000  0.24074658  1
  Te  Te16  1  0.66748548  0.75000000  0.87587996  1
  Te  Te17  1  0.16748548  0.25000000  0.62412004  1
  Te  Te18  1  0.33251452  0.25000000  0.12412004  1
  Te  Te19  1  0.83251452  0.75000000  0.37587996  1
