# generated using pymatgen
data_La2MgFe2(TeO6)2
_symmetry_space_group_name_H-M   'P 1'
_cell_length_a   5.66205838
_cell_length_b   5.57762858
_cell_length_c   7.88533208
_cell_angle_alpha   89.13361620
_cell_angle_beta   88.97773100
_cell_angle_gamma   90.21615936
_symmetry_Int_Tables_number   1
_chemical_formula_structural   La2MgFe2(TeO6)2
_chemical_formula_sum   'La2 Mg1 Fe2 Te2 O12'
_cell_volume   248.95542133
_cell_formula_units_Z   1
loop_
 _symmetry_equiv_pos_site_id
 _symmetry_equiv_pos_as_xyz
  1  'x, y, z'
loop_
 _atom_site_type_symbol
 _atom_site_label
 _atom_site_symmetry_multiplicity
 _atom_site_fract_x
 _atom_site_fract_y
 _atom_site_fract_z
 _atom_site_occupancy
  La  La0  1  0.04442065  0.00843309  0.26268085  1
  La  La1  1  0.56263642  0.49593209  0.78328050  1
  Mg  Mg2  1  0.05869338  0.49366410  0.52822657  1
  Fe  Fe3  1  0.53441141  0.00221138  0.01414015  1
  Fe  Fe4  1  0.63037703  0.50890317  0.31047515  1
  Te  Te5  1  0.52715376  0.99882566  0.51383129  1
  Te  Te6  1  0.03427412  0.50164306  0.01561527  1
  O  O7  1  0.00535153  0.56826543  0.77779450  1
  O  O8  1  0.31129020  0.30649762  0.98767288  1
  O  O9  1  0.24216049  0.17841126  0.53953902  1
  O  O10  1  0.23348403  0.77668483  0.05236843  1
  O  O11  1  0.35297958  0.70104198  0.46170798  1
  O  O12  1  0.53099603  0.10107546  0.27417125  1
  O  O13  1  0.54210925  0.92012379  0.75190996  1
  O  O14  1  0.72139289  0.29262913  0.53935314  1
  O  O15  1  0.83185293  0.22352656  0.99439900  1
  O  O16  1  0.80396622  0.79131812  0.46466523  1
  O  O17  1  0.74198734  0.68660788  0.07242106  1
  O  O18  1  0.01665275  0.43531441  0.26445478  1
