# generated using pymatgen
data_RbDy2Cl7
_symmetry_space_group_name_H-M   'P 1'
_cell_length_a   6.94803929
_cell_length_b   12.61533087
_cell_length_c   13.10375092
_cell_angle_alpha   90.00000000
_cell_angle_beta   90.00000000
_cell_angle_gamma   90.00000000
_symmetry_Int_Tables_number   1
_chemical_formula_structural   RbDy2Cl7
_chemical_formula_sum   'Rb4 Dy8 Cl28'
_cell_volume   1148.56754543
_cell_formula_units_Z   4
loop_
 _symmetry_equiv_pos_site_id
 _symmetry_equiv_pos_as_xyz
  1  'x, y, z'
loop_
 _atom_site_type_symbol
 _atom_site_label
 _atom_site_symmetry_multiplicity
 _atom_site_fract_x
 _atom_site_fract_y
 _atom_site_fract_z
 _atom_site_occupancy
  Rb  Rb0  1  0.25000000  0.19614746  0.04020970  1
  Rb  Rb1  1  0.75000000  0.80385254  0.95979030  1
  Rb  Rb2  1  0.75000000  0.69614746  0.45979030  1
  Rb  Rb3  1  0.25000000  0.30385254  0.54020970  1
  Dy  Dy4  1  0.25000000  0.65714179  0.74817849  1
  Dy  Dy5  1  0.75000000  0.34285821  0.25182151  1
  Dy  Dy6  1  0.75000000  0.15714179  0.75182151  1
  Dy  Dy7  1  0.25000000  0.84285821  0.24817849  1
  Dy  Dy8  1  0.25000000  0.53983315  0.23800399  1
  Dy  Dy9  1  0.75000000  0.46016685  0.76199601  1
  Dy  Dy10  1  0.75000000  0.03983315  0.26199601  1
  Dy  Dy11  1  0.25000000  0.96016685  0.73800399  1
  Cl  Cl12  1  0.99015560  0.46045340  0.37027386  1
  Cl  Cl13  1  0.49015560  0.53954660  0.62972614  1
  Cl  Cl14  1  0.00984440  0.96045340  0.12972614  1
  Cl  Cl15  1  0.50984440  0.03954660  0.87027386  1
  Cl  Cl16  1  0.00984440  0.53954660  0.62972614  1
  Cl  Cl17  1  0.50984440  0.46045340  0.37027386  1
  Cl  Cl18  1  0.99015560  0.03954660  0.87027386  1
  Cl  Cl19  1  0.49015560  0.96045340  0.12972614  1
  Cl  Cl20  1  0.01047174  0.42171568  0.12161336  1
  Cl  Cl21  1  0.51047174  0.57828432  0.87838664  1
  Cl  Cl22  1  0.98952826  0.92171568  0.37838664  1
  Cl  Cl23  1  0.48952826  0.07828432  0.62161336  1
  Cl  Cl24  1  0.25000000  0.68882984  0.39365597  1
  Cl  Cl25  1  0.75000000  0.31117016  0.60634403  1
  Cl  Cl26  1  0.75000000  0.18882984  0.10634403  1
  Cl  Cl27  1  0.25000000  0.81117016  0.89365597  1
  Cl  Cl28  1  0.49216156  0.69287001  0.17413089  1
  Cl  Cl29  1  0.99216156  0.30712999  0.82586911  1
  Cl  Cl30  1  0.50783844  0.19287001  0.32586911  1
  Cl  Cl31  1  0.00783844  0.80712999  0.67413089  1
  Cl  Cl32  1  0.50783844  0.30712999  0.82586911  1
  Cl  Cl33  1  0.00783844  0.69287001  0.17413089  1
  Cl  Cl34  1  0.49216156  0.80712999  0.67413089  1
  Cl  Cl35  1  0.99216156  0.19287001  0.32586911  1
  Cl  Cl36  1  0.51047174  0.92171568  0.37838664  1
  Cl  Cl37  1  0.01047174  0.07828432  0.62161336  1
  Cl  Cl38  1  0.48952826  0.42171568  0.12161336  1
  Cl  Cl39  1  0.98952826  0.57828432  0.87838664  1
