# generated using pymatgen
data_Na7Ca3Ta(PO4)6
_symmetry_space_group_name_H-M   'P 1'
_cell_length_a   9.33065166
_cell_length_b   9.35277709
_cell_length_c   22.66716628
_cell_angle_alpha   89.96527567
_cell_angle_beta   90.02166912
_cell_angle_gamma   119.93188803
_symmetry_Int_Tables_number   1
_chemical_formula_structural   Na7Ca3Ta(PO4)6
_chemical_formula_sum   'Na21 Ca9 Ta3 P18 O72'
_cell_volume   1714.26518929
_cell_formula_units_Z   3
loop_
 _symmetry_equiv_pos_site_id
 _symmetry_equiv_pos_as_xyz
  1  'x, y, z'
loop_
 _atom_site_type_symbol
 _atom_site_label
 _atom_site_symmetry_multiplicity
 _atom_site_fract_x
 _atom_site_fract_y
 _atom_site_fract_z
 _atom_site_occupancy
  Na  Na0  1  0.63680946  -0.00000559  0.24788478  1
  Na  Na1  1  0.36298148  0.36345534  0.24813641  1
  Na  Na2  1  0.99993082  0.63664503  0.24797565  1
  Na  Na3  1  0.66724447  0.65401576  0.74928435  1
  Na  Na4  1  0.98572129  0.33852383  0.74863574  1
  Na  Na5  1  0.29424658  0.33911996  0.58490756  1
  Na  Na6  1  0.04238928  0.70432978  0.58599714  1
  Na  Na7  1  0.66256843  0.95749582  0.58607319  1
  Na  Na8  1  0.29519354  0.95721789  0.08502901  1
  Na  Na9  1  0.65839203  0.70273655  0.08534410  1
  Na  Na10  1  0.04622714  0.33947506  0.08572025  1
  Na  Na11  1  0.31530298  0.29939034  0.90862797  1
  Na  Na12  1  0.98904891  0.30899358  0.40259567  1
  Na  Na13  1  0.32028976  0.01063831  0.40308945  1
  Na  Na14  1  0.69058849  0.67996090  0.40267032  1
  Na  Na15  1  0.99967073  0.99973092  0.49885993  1
  Na  Na16  1  0.98096662  0.98224206  0.99578593  1
  Na  Na17  1  0.66333385  0.31719644  0.82827299  1
  Na  Na18  1  0.66652197  0.33333765  0.32006009  1
  Na  Na19  1  0.33316548  0.66663324  0.17537293  1
  Na  Na20  1  0.33497318  0.68666769  0.66666123  1
  Ca  Ca21  1  0.99993721  0.99990036  0.34452757  1
  Ca  Ca22  1  0.99803661  0.99155672  0.85063476  1
  Ca  Ca23  1  0.00511471  0.99782046  0.65633673  1
  Ca  Ca24  1  0.00018935  0.00038652  0.14867865  1
  Ca  Ca25  1  0.65729033  0.32673280  0.68727298  1
  Ca  Ca26  1  0.66664138  0.33324111  0.18138150  1
  Ca  Ca27  1  0.33494023  0.67165164  0.01189919  1
  Ca  Ca28  1  0.33324889  0.66595896  0.51260315  1
  Ca  Ca29  1  0.33337876  0.66711122  0.32179582  1
  Ta  Ta30  1  0.67137786  0.33371627  0.97801955  1
  Ta  Ta31  1  0.66614604  0.33284995  0.48550497  1
  Ta  Ta32  1  0.33221066  0.67497240  0.82220663  1
  P  P33  1  0.30781987  0.99578021  0.24994289  1
  P  P34  1  0.68790660  0.69230055  0.24993619  1
  P  P35  1  0.00448246  0.31218368  0.24999244  1
  P  P36  1  0.30637554  0.32516063  0.75559518  1
  P  P37  1  0.01070991  0.69246220  0.74971031  1
  P  P38  1  0.68535451  0.98666961  0.75146001  1
  P  P39  1  0.95960874  0.32986278  0.58502765  1
  P  P40  1  0.36963532  0.03909030  0.58169650  1
  P  P41  1  0.66972855  0.63005921  0.58455927  1
  P  P42  1  0.95699097  0.62734683  0.07953663  1
  P  P43  1  0.67086700  0.04354733  0.07958355  1
  P  P44  1  0.37291799  0.32941533  0.07795517  1
  P  P45  1  0.62663018  0.65163220  0.91976880  1
  P  P46  1  0.03014568  0.37412763  0.91967355  1
  P  P47  1  0.34803756  0.97792186  0.92130978  1
  P  P48  1  0.64574016  0.98686438  0.42169634  1
  P  P49  1  0.34136478  0.35505458  0.42148065  1
  P  P50  1  0.01351986  0.65864886  0.42162287  1
  O  O51  1  0.22059693  0.00345713  0.30691407  1
  O  O52  1  0.78290441  0.77913895  0.30691690  1
  O  O53  1  0.99650517  0.21700502  0.30691410  1
  O  O54  1  0.21983682  0.21890547  0.80886815  1
  O  O55  1  0.97512039  0.78720136  0.79569028  1
  O  O56  1  0.81005655  0.00986604  0.79841645  1
  O  O57  1  0.73078058  0.93664461  0.69167209  1
  O  O58  1  0.20402676  0.25783631  0.69786726  1
  O  O59  1  0.04554204  0.77661377  0.68848771  1
  O  O60  1  0.77830120  0.79365541  0.19436060  1
  O  O61  1  0.01572143  0.22214496  0.19435983  1
  O  O62  1  0.20651735  0.98484459  0.19428986  1
  O  O63  1  0.88155462  0.34230988  0.64193184  1
  O  O64  1  0.47040819  0.12240992  0.63560464  1
  O  O65  1  0.65847846  0.54106900  0.64172846  1
  O  O66  1  0.88167534  0.53736039  0.13697933  1
  O  O67  1  0.65681470  0.11838800  0.13720418  1
  O  O68  1  0.46474645  0.34374291  0.13503021  1
  O  O69  1  0.48814295  0.32878872  0.02404440  1
  O  O70  1  0.83909391  0.50911226  0.02658418  1
  O  O71  1  0.67058143  0.16222618  0.02700721  1
  O  O72  1  0.47969680  0.14827621  0.52633001  1
  O  O73  1  0.66565571  0.51053451  0.53183832  1
  O  O74  1  0.84315306  0.33063688  0.53191977  1
  O  O75  1  0.55650310  0.66597709  0.97845556  1
  O  O76  1  0.12024225  0.44240782  0.97746005  1
  O  O77  1  0.32630919  0.89340907  0.97997462  1
  O  O78  1  0.56599686  0.88236041  0.47674617  1
  O  O79  1  0.31566740  0.43343441  0.47674149  1
  O  O80  1  0.11829204  0.68365430  0.47661486  1
  O  O81  1  0.08441177  0.61760466  0.36699531  1
  O  O82  1  0.53315481  0.91588696  0.36720135  1
  O  O83  1  0.38090832  0.46714266  0.36700963  1
  O  O84  1  0.13549813  0.50243368  0.86823225  1
  O  O85  1  0.35987117  0.86297161  0.87121440  1
  O  O86  1  0.49584023  0.63239666  0.86908099  1
  O  O87  1  0.98399803  0.80561997  0.41512097  1
  O  O88  1  0.82213568  0.01524336  0.41521605  1
  O  O89  1  0.19489794  0.17845779  0.41506349  1
  O  O90  1  0.01231321  0.20668214  0.90724203  1
  O  O91  1  0.21078556  0.01626582  0.90876179  1
  O  O92  1  0.79876522  0.79132076  0.90869126  1
  O  O93  1  0.96187034  0.16626062  0.57864998  1
  O  O94  1  0.20437654  0.04000792  0.57766401  1
  O  O95  1  0.83386319  0.79471990  0.57730494  1
  O  O96  1  0.95465097  0.79024624  0.07274910  1
  O  O97  1  0.83546727  0.04401821  0.07247475  1
  O  O98  1  0.20815936  0.16517978  0.07178010  1
  O  O99  1  0.66384623  0.13826625  0.74964101  1
  O  O100  1  0.48814969  0.36793034  0.75220650  1
  O  O101  1  0.86918869  0.51075450  0.75018551  1
  O  O102  1  0.67019770  0.51814831  0.25010141  1
  O  O103  1  0.84769840  0.32985075  0.25024199  1
  O  O104  1  0.48198811  0.15235288  0.25013288  1
  O  O105  1  0.62409830  0.47830494  0.91852256  1
  O  O106  1  0.85457893  0.36302677  0.92096470  1
  O  O107  1  0.51765487  0.14930563  0.91963294  1
  O  O108  1  0.66746064  0.16726692  0.42927661  1
  O  O109  1  0.50304023  0.33795678  0.42890291  1
  O  O110  1  0.83403508  0.49901598  0.42984734  1
  O  O111  1  0.34830346  0.48008159  0.07435525  1
  O  O112  1  0.13181558  0.65144337  0.07497754  1
  O  O113  1  0.52029557  0.86908992  0.07514356  1
  O  O114  1  0.34357972  0.86301156  0.57706827  1
  O  O115  1  0.51733250  0.65229125  0.57842164  1
  O  O116  1  0.13385927  0.48195949  0.57846047  1
  O  O117  1  0.32577121  0.83933127  0.25068874  1
  O  O118  1  0.51327621  0.67455866  0.25068417  1
  O  O119  1  0.16113201  0.48636559  0.25075152  1
  O  O120  1  0.31269893  0.50019492  0.76533235  1
  O  O121  1  0.17508561  0.68601995  0.76663596  1
  O  O122  1  0.51114301  0.82714089  0.76869125  1
