# generated using pymatgen
data_NaZn2Sn2PS5O24
_symmetry_space_group_name_H-M   'P 1'
_cell_length_a   8.72627438
_cell_length_b   8.74622175
_cell_length_c   22.69442032
_cell_angle_alpha   90.06551114
_cell_angle_beta   89.67404260
_cell_angle_gamma   120.10120117
_symmetry_Int_Tables_number   1
_chemical_formula_structural   NaZn2Sn2PS5O24
_chemical_formula_sum   'Na3 Zn6 Sn6 P3 S15 O72'
_cell_volume   1498.46779547
_cell_formula_units_Z   3
loop_
 _symmetry_equiv_pos_site_id
 _symmetry_equiv_pos_as_xyz
  1  'x, y, z'
loop_
 _atom_site_type_symbol
 _atom_site_label
 _atom_site_symmetry_multiplicity
 _atom_site_fract_x
 _atom_site_fract_y
 _atom_site_fract_z
 _atom_site_occupancy
  Na  Na0  1  0.67183481  0.33415990  0.82895160  1
  Na  Na1  1  0.66105728  0.33433782  0.33299977  1
  Na  Na2  1  0.33786365  0.67195731  0.16355810  1
  Zn  Zn3  1  0.00092995  0.00905018  0.85506141  1
  Zn  Zn4  1  0.66623625  0.33371204  0.67943224  1
  Zn  Zn5  1  0.65670938  0.33405980  0.18767777  1
  Zn  Zn6  1  0.66763021  0.33391123  0.49024320  1
  Zn  Zn7  1  0.32643225  0.65892238  0.01353451  1
  Zn  Zn8  1  0.33388101  0.66663591  0.52676301  1
  Sn  Sn9  1  0.00151308  0.99467839  0.35407304  1
  Sn  Sn10  1  0.99913264  0.99963093  0.64613943  1
  Sn  Sn11  1  0.99864255  0.99358343  0.14688951  1
  Sn  Sn12  1  0.67186635  0.33325860  0.98089369  1
  Sn  Sn13  1  0.33927119  0.67359156  0.31603548  1
  Sn  Sn14  1  0.32725507  0.66254798  0.81390129  1
  P  P15  1  0.29440199  0.00091936  0.25018206  1
  P  P16  1  0.70739051  0.70566480  0.25041154  1
  P  P17  1  0.04231899  0.37188075  0.91758495  1
  S  S18  1  0.99978471  0.29277118  0.25039721  1
  S  S19  1  0.29518680  0.29089623  0.75090820  1
  S  S20  1  0.99709525  0.70815280  0.75178233  1
  S  S21  1  0.70662619  0.00127692  0.75167224  1
  S  S22  1  0.95921837  0.33430598  0.58371188  1
  S  S23  1  0.37548689  0.04053333  0.58361175  1
  S  S24  1  0.66529321  0.62473091  0.58359910  1
  S  S25  1  0.96067774  0.62360371  0.08523541  1
  S  S26  1  0.66453561  0.03841116  0.08548436  1
  S  S27  1  0.37436605  0.33574147  0.08443644  1
  S  S28  1  0.62726532  0.66913068  0.91748431  1
  S  S29  1  0.33075259  0.95818056  0.91758909  1
  S  S30  1  0.62809323  0.96400365  0.41811647  1
  S  S31  1  0.33392436  0.37446684  0.41705925  1
  S  S32  1  0.03944009  0.66229279  0.41801851  1
  O  O33  1  0.21173288  0.03373183  0.30588450  1
  O  O34  1  0.81839927  0.79188242  0.30620751  1
  O  O35  1  0.97222745  0.18409099  0.30429184  1
  O  O36  1  0.21328095  0.18311288  0.80320890  1
  O  O37  1  0.97272350  0.79112979  0.80409587  1
  O  O38  1  0.81399567  0.02588879  0.80356417  1
  O  O39  1  0.78072171  0.96455469  0.69689662  1
  O  O40  1  0.18311273  0.21608389  0.69672687  1
  O  O41  1  0.03261362  0.81830529  0.69687217  1
  O  O42  1  0.78352191  0.82596618  0.19491720  1
  O  O43  1  0.03643461  0.21668604  0.19652860  1
  O  O44  1  0.17706823  0.96329246  0.19467984  1
  O  O45  1  0.88122779  0.36076397  0.63737717  1
  O  O46  1  0.47929525  0.11823316  0.63703507  1
  O  O47  1  0.63820102  0.52043474  0.63713574  1
  O  O48  1  0.87654036  0.51509172  0.13739019  1
  O  O49  1  0.63994848  0.12221659  0.13765788  1
  O  O50  1  0.48181840  0.36032287  0.13651059  1
  O  O51  1  0.45056146  0.29955303  0.02963705  1
  O  O52  1  0.84961023  0.54946138  0.03064129  1
  O  O53  1  0.69998789  0.14850540  0.03047326  1
  O  O54  1  0.44781185  0.15001760  0.53005444  1
  O  O55  1  0.70346825  0.55318881  0.53008073  1
  O  O56  1  0.85021860  0.29677480  0.53040400  1
  O  O57  1  0.54723927  0.69336865  0.97061368  1
  O  O58  1  0.14788531  0.45558672  0.97257021  1
  O  O59  1  0.31215412  0.85731541  0.97084925  1
  O  O60  1  0.54546714  0.84833514  0.46794190  1
  O  O61  1  0.30263896  0.45602607  0.46754333  1
  O  O62  1  0.15371353  0.69400608  0.46774847  1
  O  O63  1  0.11505921  0.63257936  0.36057650  1
  O  O64  1  0.52310289  0.89013916  0.36121673  1
  O  O65  1  0.36392885  0.48068444  0.36006597  1
  O  O66  1  0.11559974  0.49280317  0.86116504  1
  O  O67  1  0.37656359  0.88753157  0.86324228  1
  O  O68  1  0.51343452  0.62917039  0.86314330  1
  O  O69  1  0.02790529  0.82742974  0.41071050  1
  O  O70  1  0.80572902  0.97731313  0.40913996  1
  O  O71  1  0.16747024  0.19821072  0.40883230  1
  O  O72  1  0.02000007  0.19232981  0.90802825  1
  O  O73  1  0.17683414  0.97521450  0.90854316  1
  O  O74  1  0.80200422  0.81869057  0.90830684  1
  O  O75  1  0.97538378  0.16926695  0.59029042  1
  O  O76  1  0.19389516  0.02437078  0.59016077  1
  O  O77  1  0.83079279  0.80608328  0.59004262  1
  O  O78  1  0.97298563  0.80208057  0.08847157  1
  O  O79  1  0.83198163  0.02761488  0.08995203  1
  O  O80  1  0.19457431  0.17101851  0.08959299  1
  O  O81  1  0.68461011  0.15546661  0.74395591  1
  O  O82  1  0.47237764  0.31322011  0.74318649  1
  O  O83  1  0.84272259  0.53072004  0.74434022  1
  O  O84  1  0.69352958  0.52702615  0.24495791  1
  O  O85  1  0.84354682  0.30999595  0.24441549  1
  O  O86  1  0.47745643  0.16128655  0.24503820  1
  O  O87  1  0.63692863  0.49895337  0.92221827  1
  O  O88  1  0.85324970  0.35819978  0.92097003  1
  O  O89  1  0.49735881  0.14190975  0.92184089  1
  O  O90  1  0.64935449  0.14110718  0.42208130  1
  O  O91  1  0.48979312  0.35241408  0.42046380  1
  O  O92  1  0.86107962  0.50676453  0.42145275  1
  O  O93  1  0.35518124  0.49160244  0.07783134  1
  O  O94  1  0.13834491  0.64775171  0.07837868  1
  O  O95  1  0.50981176  0.86192781  0.07767716  1
  O  O96  1  0.35243461  0.86456907  0.57585915  1
  O  O97  1  0.51186531  0.64737636  0.57600786  1
  O  O98  1  0.13576205  0.48768586  0.57593497  1
  O  O99  1  0.30118936  0.82629926  0.25581175  1
  O  O100  1  0.52127212  0.69001055  0.25555728  1
  O  O101  1  0.16463986  0.46946685  0.25598149  1
  O  O102  1  0.31048634  0.47079528  0.75583018  1
  O  O103  1  0.16438015  0.69643137  0.75561884  1
  O  O104  1  0.52631272  0.83489285  0.75746431  1
