# generated using pymatgen
data_Na5Si3Ge4(PO8)3
_symmetry_space_group_name_H-M   'P 1'
_cell_length_a   8.57779598
_cell_length_b   8.57477842
_cell_length_c   21.73098836
_cell_angle_alpha   89.95810634
_cell_angle_beta   90.14615849
_cell_angle_gamma   119.94529093
_symmetry_Int_Tables_number   1
_chemical_formula_structural   Na5Si3Ge4(PO8)3
_chemical_formula_sum   'Na15 Si9 Ge12 P9 O72'
_cell_volume   1384.98920146
_cell_formula_units_Z   3
loop_
 _symmetry_equiv_pos_site_id
 _symmetry_equiv_pos_as_xyz
  1  'x, y, z'
loop_
 _atom_site_type_symbol
 _atom_site_label
 _atom_site_symmetry_multiplicity
 _atom_site_fract_x
 _atom_site_fract_y
 _atom_site_fract_z
 _atom_site_occupancy
  Na  Na0  1  0.00010252  0.63259824  0.25010088  1
  Na  Na1  1  0.36744032  -0.00008265  0.75029195  1
  Na  Na2  1  0.03148571  0.70024144  0.58239532  1
  Na  Na3  1  0.66352939  0.96435646  0.58393627  1
  Na  Na4  1  0.29927986  0.96867473  0.08234103  1
  Na  Na5  1  0.03457321  0.33583885  0.08414254  1
  Na  Na6  1  0.96852198  0.66725021  0.91732339  1
  Na  Na7  1  0.96618204  0.29986500  0.41546211  1
  Na  Na8  1  0.33569028  0.03231138  0.41707447  1
  Na  Na9  1  0.99822542  0.99703822  0.50003131  1
  Na  Na10  1  0.99699920  0.00076188  0.99920976  1
  Na  Na11  1  0.66598111  0.33083813  0.83335782  1
  Na  Na12  1  0.66364763  0.33343884  0.33258103  1
  Na  Na13  1  0.34297037  0.66500614  0.16751522  1
  Na  Na14  1  0.33547591  0.65706768  0.66733723  1
  Si  Si15  1  -0.00005456  0.28595053  0.24995376  1
  Si  Si16  1  0.71621352  0.00162405  0.75019010  1
  Si  Si17  1  0.37703839  0.05129436  0.58346079  1
  Si  Si18  1  0.65989599  0.61394821  0.58397275  1
  Si  Si19  1  0.94806406  0.62143723  0.08281514  1
  Si  Si20  1  0.38445413  0.33981966  0.08411275  1
  Si  Si21  1  0.33883548  0.96092550  0.91630604  1
  Si  Si22  1  0.62140297  0.95044964  0.41591592  1
  Si  Si23  1  0.04157309  0.66670483  0.41658217  1
  Ge  Ge24  1  0.98863862  0.99275907  0.35283328  1
  Ge  Ge25  1  0.00236782  0.00706827  0.85315803  1
  Ge  Ge26  1  0.99837124  0.99893982  0.64705794  1
  Ge  Ge27  1  0.00068221  0.00109642  0.14681141  1
  Ge  Ge28  1  0.66601678  0.33207058  0.68653215  1
  Ge  Ge29  1  0.66776174  0.33356039  0.18627386  1
  Ge  Ge30  1  0.65620693  0.32891522  0.98062994  1
  Ge  Ge31  1  0.66653290  0.33823760  0.48006084  1
  Ge  Ge32  1  0.33217708  0.66493275  0.01931882  1
  Ge  Ge33  1  0.34058347  0.67292029  0.51978989  1
  Ge  Ge34  1  0.33170877  0.66386993  0.31395682  1
  Ge  Ge35  1  0.34221991  0.67145207  0.81360914  1
  P  P36  1  0.29250220  0.00500915  0.25047555  1
  P  P37  1  0.70803185  0.71313141  0.24942046  1
  P  P38  1  0.28569935  0.29130441  0.75028279  1
  P  P39  1  0.99529393  0.70641965  0.75064778  1
  P  P40  1  0.95784233  0.33398390  0.58345802  1
  P  P41  1  0.66664766  0.04406276  0.08314375  1
  P  P42  1  0.61864279  0.66706607  0.91668923  1
  P  P43  1  0.04646820  0.37649937  0.91581033  1
  P  P44  1  0.33774907  0.38429020  0.41668666  1
  O  O45  1  0.20702051  0.03523327  0.30850381  1
  O  O46  1  0.83348240  0.79058207  0.30655014  1
  O  O47  1  0.96525706  0.16505544  0.31144525  1
  O  O48  1  0.20775158  0.16588807  0.80718320  1
  O  O49  1  0.96474598  0.79161371  0.80867050  1
  O  O50  1  0.84090218  0.03771011  0.81037154  1
  O  O51  1  0.79930914  0.96500034  0.68810005  1
  O  O52  1  0.16929220  0.20627481  0.69253415  1
  O  O53  1  0.04136382  0.83003828  0.69294412  1
  O  O54  1  0.79455629  0.83078599  0.19223127  1
  O  O55  1  0.03493300  0.20034608  0.18839982  1
  O  O56  1  0.16916125  0.95979983  0.19258834  1
  O  O57  1  0.87627313  0.37565513  0.63996445  1
  O  O58  1  0.50581196  0.12797924  0.64400596  1
  O  O59  1  0.63102030  0.49384726  0.64468551  1
  O  O60  1  0.87226068  0.49416991  0.14365954  1
  O  O61  1  0.62364696  0.12283242  0.14042136  1
  O  O62  1  0.50564217  0.37003083  0.14460389  1
  O  O63  1  0.46094783  0.28553409  0.02451176  1
  O  O64  1  0.83111298  0.53249559  0.02074269  1
  O  O65  1  0.71044796  0.16733962  0.02633289  1
  O  O66  1  0.46397114  0.16790425  0.52141951  1
  O  O67  1  0.71342318  0.53637034  0.52419213  1
  O  O68  1  0.83787754  0.29105615  0.52513549  1
  O  O69  1  0.53696471  0.70268692  0.97426308  1
  O  O70  1  0.16017718  0.45607448  0.97529629  1
  O  O71  1  0.29134198  0.82931643  0.97680476  1
  O  O72  1  0.54019592  0.83378337  0.47833021  1
  O  O73  1  0.29163423  0.46091985  0.47362288  1
  O  O74  1  0.16930106  0.70689359  0.47732815  1
  O  O75  1  0.12597250  0.62259647  0.35603019  1
  O  O76  1  0.48892687  0.86531971  0.35687776  1
  O  O77  1  0.37135986  0.49838775  0.35856803  1
  O  O78  1  0.13084638  0.50198044  0.85972891  1
  O  O79  1  0.36753631  0.86827192  0.85525413  1
  O  O80  1  0.50084604  0.62766198  0.85895632  1
  O  O81  1  0.03257549  0.85090346  0.40789905  1
  O  O82  1  0.82382375  0.98114422  0.41009403  1
  O  O83  1  0.16909487  0.19318246  0.41036062  1
  O  O84  1  0.02791274  0.18922360  0.91017460  1
  O  O85  1  0.15247191  0.97178781  0.90822942  1
  O  O86  1  0.81023944  0.83364660  0.91025722  1
  O  O87  1  0.97283881  0.16335784  0.59013001  1
  O  O88  1  0.17549324  0.02191843  0.59212066  1
  O  O89  1  0.83989249  0.81668721  0.59037866  1
  O  O90  1  0.97794273  0.82334969  0.09171090  1
  O  O91  1  0.83617966  0.02718959  0.09013273  1
  O  O92  1  0.18204926  0.15998355  0.09054736  1
  O  O93  1  0.68784282  0.17742774  0.74309057  1
  O  O94  1  0.47295966  0.30599964  0.74442548  1
  O  O95  1  0.82744468  0.52037685  0.74329144  1
  O  O96  1  0.69466911  0.52626263  0.24401031  1
  O  O97  1  0.82296983  0.31246654  0.24313771  1
  O  O98  1  0.47886272  0.17247119  0.24335136  1
  O  O99  1  0.64528003  0.50132958  0.92240147  1
  O  O100  1  0.86043296  0.36313316  0.92266578  1
  O  O101  1  0.51740467  0.15646574  0.92355923  1
  O  O102  1  0.64207282  0.15134159  0.42361444  1
  O  O103  1  0.50197879  0.35832954  0.42234935  1
  O  O104  1  0.84716230  0.48531284  0.42379100  1
  O  O105  1  0.35511241  0.51217414  0.07510822  1
  O  O106  1  0.15097137  0.64478804  0.07618748  1
  O  O107  1  0.49623309  0.85803126  0.07590996  1
  O  O108  1  0.35321297  0.84831592  0.57746524  1
  O  O109  1  0.48603419  0.64093567  0.57661628  1
  O  O110  1  0.14294950  0.50407744  0.57605697  1
  O  O111  1  0.30563364  0.83129223  0.25575838  1
  O  O112  1  0.52221847  0.69500786  0.25709443  1
  O  O113  1  0.17661749  0.48944031  0.25662662  1
  O  O114  1  0.30307162  0.47755858  0.75830221  1
  O  O115  1  0.16757930  0.69070460  0.75683168  1
  O  O116  1  0.51245102  0.82473183  0.75633763  1
