# generated using pymatgen
data_SbBrF8
_symmetry_space_group_name_H-M   'P 1'
_cell_length_a   5.80718082
_cell_length_b   9.86319615
_cell_length_c   10.76871403
_cell_angle_alpha   90.00000000
_cell_angle_beta   90.00000000
_cell_angle_gamma   90.00000000
_symmetry_Int_Tables_number   1
_chemical_formula_structural   SbBrF8
_chemical_formula_sum   'Sb4 Br4 F32'
_cell_volume   616.80354799
_cell_formula_units_Z   4
loop_
 _symmetry_equiv_pos_site_id
 _symmetry_equiv_pos_as_xyz
  1  'x, y, z'
loop_
 _atom_site_type_symbol
 _atom_site_label
 _atom_site_symmetry_multiplicity
 _atom_site_fract_x
 _atom_site_fract_y
 _atom_site_fract_z
 _atom_site_occupancy
  Sb  Sb0  1  0.88947070  -0.00000000  0.25000000  1
  Sb  Sb1  1  0.11052930  0.50000000  0.25000000  1
  Sb  Sb2  1  0.11052930  -0.00000000  0.75000000  1
  Sb  Sb3  1  0.88947070  0.50000000  0.75000000  1
  Br  Br4  1  0.50000000  0.75000000  0.03885701  1
  Br  Br5  1  0.50000000  0.25000000  0.46114299  1
  Br  Br6  1  0.50000000  0.25000000  0.96114299  1
  Br  Br7  1  0.50000000  0.75000000  0.53885701  1
  F  F8  1  0.11005220  0.38176381  0.81617739  1
  F  F9  1  0.11005220  0.61823619  0.68382261  1
  F  F10  1  0.88994780  0.88176381  0.68382261  1
  F  F11  1  0.88994780  0.11823619  0.81617739  1
  F  F12  1  0.88994780  0.61823619  0.18382261  1
  F  F13  1  0.88994780  0.38176381  0.31617739  1
  F  F14  1  0.11005220  0.11823619  0.31617739  1
  F  F15  1  0.11005220  0.88176381  0.18382261  1
  F  F16  1  0.63977682  0.88764184  0.18588664  1
  F  F17  1  0.63977682  0.11235816  0.31411336  1
  F  F18  1  0.36022318  0.38764184  0.31411336  1
  F  F19  1  0.36022318  0.61235816  0.18588664  1
  F  F20  1  0.36022318  0.11235816  0.81411336  1
  F  F21  1  0.36022318  0.88764184  0.68588664  1
  F  F22  1  0.63977682  0.61235816  0.68588664  1
  F  F23  1  0.63977682  0.38764184  0.81411336  1
  F  F24  1  0.61680490  0.85925417  0.92840690  1
  F  F25  1  0.61680490  0.14074583  0.57159310  1
  F  F26  1  0.38319510  0.35925417  0.57159310  1
  F  F27  1  0.38319510  0.64074583  0.92840690  1
  F  F28  1  0.38319510  0.14074583  0.07159310  1
  F  F29  1  0.38319510  0.85925417  0.42840690  1
  F  F30  1  0.61680490  0.64074583  0.42840690  1
  F  F31  1  0.61680490  0.35925417  0.07159310  1
  F  F32  1  0.86933606  0.90056416  0.39814739  1
  F  F33  1  0.86933606  0.09943584  0.10185261  1
  F  F34  1  0.13066394  0.40056416  0.10185261  1
  F  F35  1  0.13066394  0.59943584  0.39814739  1
  F  F36  1  0.13066394  0.09943584  0.60185261  1
  F  F37  1  0.13066394  0.90056416  0.89814739  1
  F  F38  1  0.86933606  0.59943584  0.89814739  1
  F  F39  1  0.86933606  0.40056416  0.60185261  1
