# generated using pymatgen
data_Na2PbO2
_symmetry_space_group_name_H-M   'P 1'
_cell_length_a   5.95006384
_cell_length_b   6.88611137
_cell_length_c   16.71887631
_cell_angle_alpha   90.00000000
_cell_angle_beta   90.00000000
_cell_angle_gamma   90.00000000
_symmetry_Int_Tables_number   1
_chemical_formula_structural   Na2PbO2
_chemical_formula_sum   'Na16 Pb8 O16'
_cell_volume   685.01921307
_cell_formula_units_Z   8
loop_
 _symmetry_equiv_pos_site_id
 _symmetry_equiv_pos_as_xyz
  1  'x, y, z'
loop_
 _atom_site_type_symbol
 _atom_site_label
 _atom_site_symmetry_multiplicity
 _atom_site_fract_x
 _atom_site_fract_y
 _atom_site_fract_z
 _atom_site_occupancy
  Na  Na0  1  0.91643572  0.62720140  0.36574201  1
  Na  Na1  1  0.41643572  0.87279860  0.13425799  1
  Na  Na2  1  0.58356428  0.62720140  0.63425799  1
  Na  Na3  1  0.08356428  0.87279860  0.86574201  1
  Na  Na4  1  0.08356428  0.37279860  0.63425799  1
  Na  Na5  1  0.58356428  0.12720140  0.86574201  1
  Na  Na6  1  0.41643572  0.37279860  0.36574201  1
  Na  Na7  1  0.91643572  0.12720140  0.13425799  1
  Na  Na8  1  0.25000000  0.12304842  0.50000000  1
  Na  Na9  1  0.75000000  0.37695158  0.00000000  1
  Na  Na10  1  0.75000000  0.36790718  0.50000000  1
  Na  Na11  1  0.25000000  0.13209282  0.00000000  1
  Na  Na12  1  0.25000000  0.63209282  0.50000000  1
  Na  Na13  1  0.75000000  0.86790718  0.00000000  1
  Na  Na14  1  0.75000000  0.87695158  0.50000000  1
  Na  Na15  1  0.25000000  0.62304842  0.00000000  1
  Pb  Pb16  1  0.93160934  0.13579999  0.33703773  1
  Pb  Pb17  1  0.43160934  0.36420001  0.16296227  1
  Pb  Pb18  1  0.56839066  0.13579999  0.66296227  1
  Pb  Pb19  1  0.06839066  0.36420001  0.83703773  1
  Pb  Pb20  1  0.06839066  0.86420001  0.66296227  1
  Pb  Pb21  1  0.56839066  0.63579999  0.83703773  1
  Pb  Pb22  1  0.43160934  0.86420001  0.33703773  1
  Pb  Pb23  1  0.93160934  0.63579999  0.16296227  1
  O  O24  1  0.56400244  0.14674868  0.08569333  1
  O  O25  1  0.06400244  0.35325132  0.41430667  1
  O  O26  1  0.93599756  0.14674868  0.91430667  1
  O  O27  1  0.43599756  0.35325132  0.58569333  1
  O  O28  1  0.43599756  0.85325132  0.91430667  1
  O  O29  1  0.93599756  0.64674868  0.58569333  1
  O  O30  1  0.06400244  0.85325132  0.08569333  1
  O  O31  1  0.56400244  0.64674868  0.41430667  1
  O  O32  1  0.89123838  0.10256625  0.59631798  1
  O  O33  1  0.39123838  0.39743375  0.90368202  1
  O  O34  1  0.39123838  0.89743375  0.59631798  1
  O  O35  1  0.89123838  0.60256625  0.90368202  1
  O  O36  1  0.10876162  0.89743375  0.40368202  1
  O  O37  1  0.60876162  0.60256625  0.09631798  1
  O  O38  1  0.60876162  0.10256625  0.40368202  1
  O  O39  1  0.10876162  0.39743375  0.09631798  1
