# generated using pymatgen
data_Na10Sc8Si5S7O48
_symmetry_space_group_name_H-M   'P 1'
_cell_length_a   18.10756807
_cell_length_b   9.04694834
_cell_length_c   22.86880545
_cell_angle_alpha   89.91287799
_cell_angle_beta   89.78711259
_cell_angle_gamma   119.92663115
_symmetry_Int_Tables_number   1
_chemical_formula_structural   Na10Sc8Si5S7O48
_chemical_formula_sum   'Na30 Sc24 Si15 S21 O144'
_cell_volume   3246.76357028
_cell_formula_units_Z   3
loop_
 _symmetry_equiv_pos_site_id
 _symmetry_equiv_pos_as_xyz
  1  'x, y, z'
loop_
 _atom_site_type_symbol
 _atom_site_label
 _atom_site_symmetry_multiplicity
 _atom_site_fract_x
 _atom_site_fract_y
 _atom_site_fract_z
 _atom_site_occupancy
  Na  Na0  1  0.32583577  0.00081757  0.24924123  1
  Na  Na1  1  0.82510379  0.00028852  0.24992176  1
  Na  Na2  1  0.18254789  0.37425605  0.24380846  1
  Na  Na3  1  0.68264480  0.37474068  0.24447740  1
  Na  Na4  1  0.99504322  0.62634365  0.25597752  1
  Na  Na5  1  0.49572404  0.62661893  0.25647453  1
  Na  Na6  1  0.82577635  0.64839277  0.74828415  1
  Na  Na7  1  0.99498836  0.36458377  0.75603060  1
  Na  Na8  1  0.49692254  0.35614704  0.75561132  1
  Na  Na9  1  0.18058366  0.98865832  0.74636918  1
  Na  Na10  1  0.01893812  0.70804115  0.58489230  1
  Na  Na11  1  0.33023000  0.96957994  0.58913761  1
  Na  Na12  1  0.02099163  0.33137905  0.08308833  1
  Na  Na13  1  0.52072814  0.33109193  0.08386662  1
  Na  Na14  1  0.16198059  0.30138495  0.92251191  1
  Na  Na15  1  0.66345670  0.30209893  0.92332449  1
  Na  Na16  1  0.16247738  0.02383233  0.42297038  1
  Na  Na17  1  0.66253923  0.02212975  0.42397031  1
  Na  Na18  1  0.99961933  0.99959806  0.50041384  1
  Na  Na19  1  0.50809155  0.99265237  0.49981761  1
  Na  Na20  1  0.00236962  0.00310987  0.99965382  1
  Na  Na21  1  0.50192508  0.00027878  0.00160170  1
  Na  Na22  1  0.34298280  0.33498836  0.83668545  1
  Na  Na23  1  0.84493218  0.32861224  0.83280287  1
  Na  Na24  1  0.34877106  0.35996974  0.33486649  1
  Na  Na25  1  0.84765779  0.35832224  0.33595559  1
  Na  Na26  1  0.17389209  0.65931945  0.16519017  1
  Na  Na27  1  0.67394455  0.65932064  0.16598635  1
  Na  Na28  1  0.17155389  0.67438852  0.67019281  1
  Na  Na29  1  0.67591692  0.70238530  0.66314488  1
  Sc  Sc30  1  0.99031296  0.98542082  0.35115307  1
  Sc  Sc31  1  0.49133508  0.98664553  0.35108860  1
  Sc  Sc32  1  0.99146752  0.99634903  0.85058880  1
  Sc  Sc33  1  0.49259307  0.00652052  0.85249959  1
  Sc  Sc34  1  0.99818155  0.99126384  0.64986074  1
  Sc  Sc35  1  0.50356554  0.99631882  0.64755684  1
  Sc  Sc36  1  0.00018666  0.00739668  0.14909626  1
  Sc  Sc37  1  0.50032661  0.00755657  0.14937652  1
  Sc  Sc38  1  0.32968596  0.32026728  0.68295755  1
  Sc  Sc39  1  0.82885430  0.31318152  0.68598442  1
  Sc  Sc40  1  0.33239853  0.34486283  0.18410026  1
  Sc  Sc41  1  0.83215762  0.34447241  0.18402623  1
  Sc  Sc42  1  0.33365631  0.33124948  0.98197334  1
  Sc  Sc43  1  0.83482129  0.33228969  0.98170197  1
  Sc  Sc44  1  0.33646597  0.34303689  0.48162362  1
  Sc  Sc45  1  0.83300353  0.33583710  0.48238913  1
  Sc  Sc46  1  0.16540160  0.65139333  0.01788098  1
  Sc  Sc47  1  0.66511289  0.65165842  0.01855774  1
  Sc  Sc48  1  0.16158960  0.67021632  0.51723435  1
  Sc  Sc49  1  0.66244510  0.68081103  0.51961237  1
  Sc  Sc50  1  0.15977417  0.65172303  0.31555995  1
  Sc  Sc51  1  0.66002085  0.65151138  0.31620787  1
  Sc  Sc52  1  0.16243790  0.66788324  0.81452363  1
  Sc  Sc53  1  0.66525200  0.67560333  0.81648786  1
  Si  Si54  1  0.35286294  0.70799498  0.24931393  1
  Si  Si55  1  0.85272795  0.70776079  0.24916895  1
  Si  Si56  1  0.99850302  0.29160689  0.24952983  1
  Si  Si57  1  0.49860941  0.29209759  0.24964063  1
  Si  Si58  1  0.99842294  0.70438925  0.74974691  1
  Si  Si59  1  0.35287666  0.99830059  0.74688686  1
  Si  Si60  1  0.85087796  0.99518388  0.74951331  1
  Si  Si61  1  0.18419541  0.04000529  0.58074958  1
  Si  Si62  1  0.68526320  0.04014118  0.58167068  1
  Si  Si63  1  0.18455559  0.32932365  0.08217031  1
  Si  Si64  1  0.68453871  0.32869415  0.08185915  1
  Si  Si65  1  0.01720050  0.36759121  0.91630271  1
  Si  Si66  1  0.51745346  0.37252162  0.91574602  1
  Si  Si67  1  0.01589099  0.66646137  0.41652272  1
  Si  Si68  1  0.51725633  0.66754270  0.41548056  1
  S  S69  1  0.14624708  0.00006138  0.25059628  1
  S  S70  1  0.64628203  0.00004323  0.25038970  1
  S  S71  1  0.14738035  0.29329037  0.75012903  1
  S  S72  1  0.64576016  0.29208891  0.75120470  1
  S  S73  1  0.49942612  0.70739801  0.75074184  1
  S  S74  1  0.48068876  0.33380720  0.58383602  1
  S  S75  1  0.97991424  0.33174858  0.58315313  1
  S  S76  1  0.33313469  0.62604362  0.58344361  1
  S  S77  1  0.83162260  0.62435125  0.58407580  1
  S  S78  1  0.48055737  0.62911426  0.08260450  1
  S  S79  1  0.98064543  0.62932454  0.08273495  1
  S  S80  1  0.33170409  0.03874636  0.08379277  1
  S  S81  1  0.83151263  0.03843657  0.08379171  1
  S  S82  1  0.31307647  0.66637103  0.91622270  1
  S  S83  1  0.81292983  0.66670230  0.91666791  1
  S  S84  1  0.16710261  0.96057331  0.91711407  1
  S  S85  1  0.66618024  0.95984757  0.91775222  1
  S  S86  1  0.31339813  0.96035183  0.41732121  1
  S  S87  1  0.81264624  0.95930939  0.41660467  1
  S  S88  1  0.16711342  0.37212930  0.41698463  1
  S  S89  1  0.66666305  0.37211165  0.41759749  1
  O  O90  1  0.10970272  0.03127357  0.30395284  1
  O  O91  1  0.60965977  0.03130711  0.30367422  1
  O  O92  1  0.41517376  0.78776266  0.30577513  1
  O  O93  1  0.91531751  0.78708652  0.30564601  1
  O  O94  1  0.48379777  0.16801177  0.30507648  1
  O  O95  1  0.98454664  0.16829303  0.30505341  1
  O  O96  1  0.11086062  0.18833377  0.80372447  1
  O  O97  1  0.60843145  0.18924713  0.80480703  1
  O  O98  1  0.48947789  0.78911770  0.80310342  1
  O  O99  1  0.98539226  0.80188297  0.80497969  1
  O  O100  1  0.41747185  0.03851334  0.80243811  1
  O  O101  1  0.91267418  0.03532482  0.80645150  1
  O  O102  1  0.39823896  0.97909536  0.68774249  1
  O  O103  1  0.89705722  0.96275023  0.69333044  1
  O  O104  1  0.09286257  0.21259294  0.69884588  1
  O  O105  1  0.59088208  0.20941456  0.70003466  1
  O  O106  1  0.01924401  0.82340026  0.69057373  1
  O  O107  1  0.51263334  0.81167336  0.69766720  1
  O  O108  1  0.39859234  0.83018436  0.19292313  1
  O  O109  1  0.89883138  0.83037481  0.19294858  1
  O  O110  1  0.01884382  0.21482270  0.19041798  1
  O  O111  1  0.51846135  0.21453285  0.19046056  1
  O  O112  1  0.09203325  0.96961006  0.19933832  1
  O  O113  1  0.59202727  0.96981033  0.19913050  1
  O  O114  1  0.44267856  0.36133075  0.63787652  1
  O  O115  1  0.94348632  0.36557653  0.63665334  1
  O  O116  1  0.24483418  0.12693252  0.63916446  1
  O  O117  1  0.74513919  0.13654196  0.63787601  1
  O  O118  1  0.32300840  0.52349642  0.63627548  1
  O  O119  1  0.82174873  0.52692684  0.63834965  1
  O  O120  1  0.44345079  0.52224905  0.13652279  1
  O  O121  1  0.94343257  0.52217404  0.13662632  1
  O  O122  1  0.32144719  0.11691216  0.13810933  1
  O  O123  1  0.82106949  0.11633795  0.13811718  1
  O  O124  1  0.24055146  0.35238812  0.14135486  1
  O  O125  1  0.74050826  0.35234641  0.14106965  1
  O  O126  1  0.23278241  0.31308884  0.02373636  1
  O  O127  1  0.73238668  0.31263133  0.02328624  1
  O  O128  1  0.42712526  0.54197122  0.03160337  1
  O  O129  1  0.92711619  0.54240812  0.03180692  1
  O  O130  1  0.34664994  0.15243421  0.03296760  1
  O  O131  1  0.84638526  0.15213762  0.03300769  1
  O  O132  1  0.23411930  0.15379310  0.52324188  1
  O  O133  1  0.72882957  0.15028507  0.52141837  1
  O  O134  1  0.34593780  0.54677478  0.53104673  1
  O  O135  1  0.84693521  0.54119812  0.53323325  1
  O  O136  1  0.42515948  0.30886451  0.53324735  1
  O  O137  1  0.92722922  0.31198259  0.53168217  1
  O  O138  1  0.27466016  0.69457825  0.96918168  1
  O  O139  1  0.77086987  0.69056309  0.96831666  1
  O  O140  1  0.07877946  0.46184201  0.97387805  1
  O  O141  1  0.57921589  0.46220142  0.97299185  1
  O  O142  1  0.15844108  0.85627661  0.96864994  1
  O  O143  1  0.65618686  0.85673000  0.96973480  1
  O  O144  1  0.27211980  0.85487763  0.47029759  1
  O  O145  1  0.77084012  0.85111207  0.46822798  1
  O  O146  1  0.15814370  0.45977622  0.46839585  1
  O  O147  1  0.65753987  0.45881924  0.46871069  1
  O  O148  1  0.07792198  0.69536799  0.47398333  1
  O  O149  1  0.58177690  0.69768084  0.47019054  1
  O  O150  1  0.06359432  0.64585345  0.35802282  1
  O  O151  1  0.56120461  0.64434628  0.35540171  1
  O  O152  1  0.26069356  0.87898749  0.36455941  1
  O  O153  1  0.76159012  0.88143253  0.36275942  1
  O  O154  1  0.17997485  0.47376402  0.36269537  1
  O  O155  1  0.67926501  0.47316009  0.36278215  1
  O  O156  1  0.06469795  0.48296458  0.85777574  1
  O  O157  1  0.56439976  0.48551847  0.85660939  1
  O  O158  1  0.17994496  0.88525702  0.86285334  1
  O  O159  1  0.67966632  0.88158655  0.86449329  1
  O  O160  1  0.25977358  0.64153194  0.86441694  1
  O  O161  1  0.76062627  0.64176881  0.86329293  1
  O  O162  1  0.01634486  0.84907189  0.41284958  1
  O  O163  1  0.51581413  0.84842804  0.41230418  1
  O  O164  1  0.39874931  0.98101687  0.41345316  1
  O  O165  1  0.89872728  0.98133359  0.41269633  1
  O  O166  1  0.09109938  0.20046798  0.41243951  1
  O  O167  1  0.59097979  0.19951398  0.41235572  1
  O  O168  1  0.01628449  0.18424331  0.91275703  1
  O  O169  1  0.51591643  0.18682364  0.91143715  1
  O  O170  1  0.09118381  0.98156291  0.91245490  1
  O  O171  1  0.58961704  0.97876205  0.91113622  1
  O  O172  1  0.40005406  0.81507697  0.91030252  1
  O  O173  1  0.89845878  0.81613325  0.91262745  1
  O  O174  1  0.48464745  0.17398235  0.58875105  1
  O  O175  1  0.98986027  0.18107823  0.58879643  1
  O  O176  1  0.08792012  0.01047513  0.58541878  1
  O  O177  1  0.58954867  0.01987121  0.58908498  1
  O  O178  1  0.40885102  0.80110230  0.58772739  1
  O  O179  1  0.91034607  0.79603039  0.58705221  1
  O  O180  1  0.48912202  0.79823281  0.08832105  1
  O  O181  1  0.98910085  0.79837499  0.08854559  1
  O  O182  1  0.41023974  0.02481159  0.08709071  1
  O  O183  1  0.91007771  0.02463133  0.08719039  1
  O  O184  1  0.08755238  0.16230344  0.08536509  1
  O  O185  1  0.58727371  0.16203340  0.08516060  1
  O  O186  1  0.34547368  0.17661332  0.74365936  1
  O  O187  1  0.84453345  0.16903407  0.74459489  1
  O  O188  1  0.23304590  0.31011697  0.74269772  1
  O  O189  1  0.73293540  0.32080347  0.74450316  1
  O  O190  1  0.42342195  0.53401938  0.74452199  1
  O  O191  1  0.91247583  0.51730485  0.74313970  1
  O  O192  1  0.33984250  0.51403816  0.24422686  1
  O  O193  1  0.83984526  0.51397690  0.24404454  1
  O  O194  1  0.41262119  0.30888794  0.24281605  1
  O  O195  1  0.91262504  0.30851814  0.24280661  1
  O  O196  1  0.23278809  0.15198133  0.24340936  1
  O  O197  1  0.73272088  0.15215884  0.24321356  1
  O  O198  1  0.31822105  0.50741903  0.92186600  1
  O  O199  1  0.81739810  0.50715774  0.92185495  1
  O  O200  1  0.42312586  0.35102338  0.92279341  1
  O  O201  1  0.92309631  0.34924361  0.92383490  1
  O  O202  1  0.24355107  0.13613614  0.92121004  1
  O  O203  1  0.74200142  0.13510295  0.92156547  1
  O  O204  1  0.31815351  0.12928631  0.42229593  1
  O  O205  1  0.81785159  0.12856649  0.42184907  1
  O  O206  1  0.24343179  0.35044277  0.42149178  1
  O  O207  1  0.74342083  0.35080254  0.42115909  1
  O  O208  1  0.42328897  0.49717232  0.42322545  1
  O  O209  1  0.92269376  0.49660130  0.42376113  1
  O  O210  1  0.17313315  0.50157087  0.07911770  1
  O  O211  1  0.67273395  0.50079769  0.07891580  1
  O  O212  1  0.06624714  0.64429640  0.07671831  1
  O  O213  1  0.56603411  0.64371144  0.07657786  1
  O  O214  1  0.25539972  0.87004747  0.07651642  1
  O  O215  1  0.75533933  0.86970677  0.07640738  1
  O  O216  1  0.17903786  0.84915469  0.57803971  1
  O  O217  1  0.67675653  0.84940333  0.57877914  1
  O  O218  1  0.25656375  0.64544242  0.57770765  1
  O  O219  1  0.75534281  0.64117695  0.57617435  1
  O  O220  1  0.06611695  0.48880545  0.57673810  1
  O  O221  1  0.56688686  0.48185289  0.57734947  1
  O  O222  1  0.15728185  0.84810867  0.25656791  1
  O  O223  1  0.65734453  0.84818802  0.25622329  1
  O  O224  1  0.25892798  0.69310764  0.25717447  1
  O  O225  1  0.75887756  0.69281304  0.25692800  1
  O  O226  1  0.08326771  0.48466534  0.25488578  1
  O  O227  1  0.58355779  0.48444608  0.25478669  1
  O  O228  1  0.15593275  0.46413777  0.75582493  1
  O  O229  1  0.65228533  0.46353529  0.75599818  1
  O  O230  1  0.08302527  0.68021399  0.75498627  1
  O  O231  1  0.57568788  0.68381479  0.75475823  1
  O  O232  1  0.25706146  0.83721261  0.75570836  1
  O  O233  1  0.75818615  0.81785986  0.75729370  1
