# generated using pymatgen
data_Na8Mg(NiO4)2
_symmetry_space_group_name_H-M   'P 1'
_cell_length_a   8.62965135
_cell_length_b   5.90604975
_cell_length_c   5.84758202
_cell_angle_alpha   69.04453890
_cell_angle_beta   106.85847266
_cell_angle_gamma   96.08922358
_symmetry_Int_Tables_number   1
_chemical_formula_structural   Na8Mg(NiO4)2
_chemical_formula_sum   'Na8 Mg1 Ni2 O8'
_cell_volume   266.36010908
_cell_formula_units_Z   1
loop_
 _symmetry_equiv_pos_site_id
 _symmetry_equiv_pos_as_xyz
  1  'x, y, z'
loop_
 _atom_site_type_symbol
 _atom_site_label
 _atom_site_symmetry_multiplicity
 _atom_site_fract_x
 _atom_site_fract_y
 _atom_site_fract_z
 _atom_site_occupancy
  Na  Na0  1  0.19881270  0.99036959  0.67119808  1
  Na  Na1  1  0.12644595  0.50311977  0.11471977  1
  Na  Na2  1  0.31290168  0.53534085  0.67359991  1
  Na  Na3  1  0.32544130  0.01529945  0.20041319  1
  Na  Na4  1  0.57195231  0.03142179  0.66961272  1
  Na  Na5  1  0.71842375  0.51177275  0.88831037  1
  Na  Na6  1  0.85941963  0.13726136  0.45084974  1
  Na  Na7  1  0.94806183  0.56589644  0.57622142  1
  Mg  Mg8  1  0.65739920  0.83275535  0.19286162  1
  Ni  Ni9  1  0.48126881  0.51485599  0.31038423  1
  Ni  Ni10  1  0.98374583  0.98299534  0.01799641  1
  O  O11  1  0.10755269  0.24254116  0.85516085  1
  O  O12  1  0.11018624  0.80036727  0.33778881  1
  O  O13  1  0.42729661  0.75894602  0.97901256  1
  O  O14  1  0.34996663  0.28390078  0.44140428  1
  O  O15  1  0.54939452  0.75792478  0.47397428  1
  O  O16  1  0.69840677  0.46737644  0.31521656  1
  O  O17  1  0.93440563  0.79343129  0.81015421  1
  O  O18  1  0.78690193  0.09331659  0.03941099  1
