# generated using pymatgen
data_NbAlCl8
_symmetry_space_group_name_H-M   'P 1'
_cell_length_a   9.59445353
_cell_length_b   9.59445353
_cell_length_c   8.29073927
_cell_angle_alpha   90.00000000
_cell_angle_beta   90.00000000
_cell_angle_gamma   130.20471691
_symmetry_Int_Tables_number   1
_chemical_formula_structural   NbAlCl8
_chemical_formula_sum   'Nb2 Al2 Cl16'
_cell_volume   582.88237624
_cell_formula_units_Z   2
loop_
 _symmetry_equiv_pos_site_id
 _symmetry_equiv_pos_as_xyz
  1  'x, y, z'
loop_
 _atom_site_type_symbol
 _atom_site_label
 _atom_site_symmetry_multiplicity
 _atom_site_fract_x
 _atom_site_fract_y
 _atom_site_fract_z
 _atom_site_occupancy
  Nb  Nb0  1  0.88913158  0.11086842  0.25000000  1
  Nb  Nb1  1  0.11086842  0.88913158  0.75000000  1
  Al  Al2  1  0.31512472  0.68487528  0.75000000  1
  Al  Al3  1  0.68487528  0.31512472  0.25000000  1
  Cl  Cl4  1  0.37967050  0.62032950  0.53651263  1
  Cl  Cl5  1  0.62032950  0.37967050  0.46348737  1
  Cl  Cl6  1  0.43591327  0.97387786  0.75000000  1
  Cl  Cl7  1  0.97387786  0.43591327  0.25000000  1
  Cl  Cl8  1  0.56408673  0.02612214  0.25000000  1
  Cl  Cl9  1  0.02612214  0.56408673  0.75000000  1
  Cl  Cl10  1  0.24701623  0.18764575  0.75000000  1
  Cl  Cl11  1  0.18764575  0.24701623  0.25000000  1
  Cl  Cl12  1  0.75298377  0.81235425  0.25000000  1
  Cl  Cl13  1  0.81235425  0.75298377  0.75000000  1
  Cl  Cl14  1  0.13251107  0.86748893  0.47393441  1
  Cl  Cl15  1  0.86748893  0.13251107  0.52606559  1
  Cl  Cl16  1  0.86748893  0.13251107  0.97393441  1
  Cl  Cl17  1  0.13251107  0.86748893  0.02606559  1
  Cl  Cl18  1  0.37967050  0.62032950  0.96348737  1
  Cl  Cl19  1  0.62032950  0.37967050  0.03651263  1
