# generated using pymatgen
data_Pb(IO3)2
_symmetry_space_group_name_H-M   'P 1'
_cell_length_a   5.55944789
_cell_length_b   6.06716521
_cell_length_c   16.76739742
_cell_angle_alpha   90.00000000
_cell_angle_beta   90.00000000
_cell_angle_gamma   90.00000000
_symmetry_Int_Tables_number   1
_chemical_formula_structural   Pb(IO3)2
_chemical_formula_sum   'Pb4 I8 O24'
_cell_volume   565.56580434
_cell_formula_units_Z   4
loop_
 _symmetry_equiv_pos_site_id
 _symmetry_equiv_pos_as_xyz
  1  'x, y, z'
loop_
 _atom_site_type_symbol
 _atom_site_label
 _atom_site_symmetry_multiplicity
 _atom_site_fract_x
 _atom_site_fract_y
 _atom_site_fract_z
 _atom_site_occupancy
  Pb  Pb0  1  0.75705237  0.25000000  0.50000000  1
  Pb  Pb1  1  0.74294763  0.75000000  -0.00000000  1
  Pb  Pb2  1  0.24294763  0.75000000  0.50000000  1
  Pb  Pb3  1  0.25705237  0.25000000  -0.00000000  1
  I  I4  1  0.75549495  0.70130961  0.33778343  1
  I  I5  1  0.75549495  0.79869039  0.66221657  1
  I  I6  1  0.74450505  0.20130961  0.16221657  1
  I  I7  1  0.74450505  0.29869039  0.83778343  1
  I  I8  1  0.24450505  0.29869039  0.66221657  1
  I  I9  1  0.24450505  0.20130961  0.33778343  1
  I  I10  1  0.25549495  0.79869039  0.83778343  1
  I  I11  1  0.25549495  0.70130961  0.16221657  1
  O  O12  1  0.59285290  0.92485357  0.38714590  1
  O  O13  1  0.59285290  0.57514643  0.61285410  1
  O  O14  1  0.90714710  0.42485357  0.11285410  1
  O  O15  1  0.90714710  0.07514643  0.88714590  1
  O  O16  1  0.40714710  0.07514643  0.61285410  1
  O  O17  1  0.40714710  0.42485357  0.38714590  1
  O  O18  1  0.09285290  0.57514643  0.88714590  1
  O  O19  1  0.09285290  0.92485357  0.11285410  1
  O  O20  1  0.00238525  0.85137664  0.29184761  1
  O  O21  1  0.00238525  0.64862336  0.70815239  1
  O  O22  1  0.49761475  0.35137664  0.20815239  1
  O  O23  1  0.49761475  0.14862336  0.79184761  1
  O  O24  1  0.39777215  0.60292678  0.06996619  1
  O  O25  1  0.39777215  0.89707322  0.93003381  1
  O  O26  1  0.10222785  0.10292678  0.43003381  1
  O  O27  1  0.10222785  0.39707322  0.56996619  1
  O  O28  1  0.60222785  0.39707322  0.93003381  1
  O  O29  1  0.60222785  0.10292678  0.06996619  1
  O  O30  1  0.89777215  0.89707322  0.56996619  1
  O  O31  1  0.89777215  0.60292678  0.43003381  1
  O  O32  1  0.50238525  0.85137664  0.20815239  1
  O  O33  1  0.50238525  0.64862336  0.79184761  1
  O  O34  1  0.99761475  0.35137664  0.29184761  1
  O  O35  1  0.99761475  0.14862336  0.70815239  1
