# generated using pymatgen
data_Na3CaSn3P5SO24
_symmetry_space_group_name_H-M   'P 1'
_cell_length_a   8.92430579
_cell_length_b   8.89344297
_cell_length_c   23.07391779
_cell_angle_alpha   89.87456229
_cell_angle_beta   90.22960561
_cell_angle_gamma   119.93286596
_symmetry_Int_Tables_number   1
_chemical_formula_structural   Na3CaSn3P5SO24
_chemical_formula_sum   'Na9 Ca3 Sn9 P15 S3 O72'
_cell_volume   1587.03403236
_cell_formula_units_Z   3
loop_
 _symmetry_equiv_pos_site_id
 _symmetry_equiv_pos_as_xyz
  1  'x, y, z'
loop_
 _atom_site_type_symbol
 _atom_site_label
 _atom_site_symmetry_multiplicity
 _atom_site_fract_x
 _atom_site_fract_y
 _atom_site_fract_z
 _atom_site_occupancy
  Na  Na0  1  0.99078131  0.36468418  0.74637974  1
  Na  Na1  1  0.31234892  0.97571759  0.08572911  1
  Na  Na2  1  0.32558763  0.03197926  0.41156585  1
  Na  Na3  1  0.98429685  0.99854634  0.49760629  1
  Na  Na4  1  0.99063510  0.00059656  0.99929261  1
  Na  Na5  1  0.65568761  0.33296173  0.83019002  1
  Na  Na6  1  0.66750764  0.33442098  0.32907833  1
  Na  Na7  1  0.33263605  0.66029559  0.16682660  1
  Na  Na8  1  0.34351465  0.66813409  0.66619990  1
  Ca  Ca9  1  0.99313770  0.99870384  0.35525859  1
  Ca  Ca10  1  0.66189305  0.33770659  0.68566616  1
  Ca  Ca11  1  0.66534281  0.33150419  0.18221957  1
  Sn  Sn12  1  0.00019932  0.99793923  0.85465802  1
  Sn  Sn13  1  0.99138544  0.99671366  0.64919525  1
  Sn  Sn14  1  0.00012550  0.99797468  0.14875794  1
  Sn  Sn15  1  0.66900826  0.33483687  0.98192338  1
  Sn  Sn16  1  0.67955818  0.34512403  0.48309578  1
  Sn  Sn17  1  0.33373972  0.66310188  0.01444315  1
  Sn  Sn18  1  0.33296516  0.65880234  0.51834237  1
  Sn  Sn19  1  0.33329849  0.67083348  0.31668906  1
  Sn  Sn20  1  0.33708989  0.66993311  0.81574911  1
  P  P21  1  0.29496809  0.99355653  0.25252801  1
  P  P22  1  0.28469742  0.28897066  0.75305218  1
  P  P23  1  0.00818753  0.71634711  0.75244479  1
  P  P24  1  0.70675516  0.99203699  0.75281770  1
  P  P25  1  0.96757194  0.33291800  0.58453528  1
  P  P26  1  0.66786234  0.63502862  0.58260876  1
  P  P27  1  0.96624485  0.63028313  0.08162811  1
  P  P28  1  0.66763349  0.03358452  0.08117979  1
  P  P29  1  0.36867431  0.33546870  0.08173223  1
  P  P30  1  0.62679536  0.66541008  0.91657515  1
  P  P31  1  0.03777370  0.37278543  0.91525971  1
  P  P32  1  0.33549338  0.96214153  0.91739543  1
  P  P33  1  0.61976432  0.96082967  0.42091203  1
  P  P34  1  0.34302198  0.38050964  0.41798597  1
  P  P35  1  0.04244493  0.65865755  0.41883158  1
  S  S36  1  0.69862641  0.70692930  0.25074327  1
  S  S37  1  0.00887243  0.30096107  0.25058134  1
  S  S38  1  0.36585588  0.03328842  0.58138146  1
  O  O39  1  0.20864128  0.00739423  0.30651422  1
  O  O40  1  0.79788868  0.78966874  0.30189540  1
  O  O41  1  0.98892410  0.19968976  0.30157703  1
  O  O42  1  0.19599646  0.18028477  0.80773115  1
  O  O43  1  0.98353759  0.80139118  0.80691847  1
  O  O44  1  0.82318604  0.02144009  0.80655675  1
  O  O45  1  0.78396884  0.96029438  0.69660542  1
  O  O46  1  0.16737608  0.20982877  0.69745124  1
  O  O47  1  0.03780236  0.82679859  0.69631623  1
  O  O48  1  0.77649995  0.81542307  0.19619350  1
  O  O49  1  0.03249185  0.21917971  0.19582882  1
  O  O50  1  0.18288878  0.96633885  0.19398765  1
  O  O51  1  0.89810360  0.36147040  0.64018393  1
  O  O52  1  0.47064267  0.10818781  0.63249286  1
  O  O53  1  0.63311940  0.52883052  0.63618803  1
  O  O54  1  0.89887124  0.52768499  0.13610410  1
  O  O55  1  0.62252923  0.10020993  0.13412597  1
  O  O56  1  0.47080481  0.36866052  0.13648977  1
  O  O57  1  0.44920251  0.29275444  0.02808971  1
  O  O58  1  0.85117060  0.55059397  0.02649818  1
  O  O59  1  0.70234306  0.14967550  0.02629346  1
  O  O60  1  0.44393805  0.13955037  0.52730915  1
  O  O61  1  0.69705800  0.55213259  0.52681046  1
  O  O62  1  0.84863736  0.29981983  0.52988702  1
  O  O63  1  0.54660150  0.69920223  0.97061122  1
  O  O64  1  0.15386623  0.45607900  0.96907205  1
  O  O65  1  0.30504282  0.85262049  0.97321481  1
  O  O66  1  0.52876719  0.84927419  0.47433325  1
  O  O67  1  0.31579173  0.46331971  0.47208098  1
  O  O68  1  0.15821466  0.68827331  0.47245904  1
  O  O69  1  0.12156238  0.62707287  0.36294199  1
  O  O70  1  0.50372370  0.88398070  0.36476730  1
  O  O71  1  0.37286501  0.49322298  0.36210437  1
  O  O72  1  0.11736818  0.48285394  0.85955747  1
  O  O73  1  0.36575158  0.87725268  0.86375257  1
  O  O74  1  0.51314625  0.63284861  0.86189929  1
  O  O75  1  0.02913634  0.82210031  0.41621277  1
  O  O76  1  0.79779197  0.98339743  0.41774290  1
  O  O77  1  0.18891302  0.19770298  0.41515935  1
  O  O78  1  0.01962544  0.18975212  0.91112003  1
  O  O79  1  0.17084824  0.97916577  0.91199305  1
  O  O80  1  0.80889587  0.82930450  0.91141764  1
  O  O81  1  0.98881596  0.16714881  0.58704839  1
  O  O82  1  0.19030394  0.01665056  0.58598667  1
  O  O83  1  0.83712458  0.81847814  0.58643428  1
  O  O84  1  0.99079890  0.82015379  0.08654322  1
  O  O85  1  0.83269312  0.01403486  0.08858637  1
  O  O86  1  0.18524822  0.16324925  0.08687322  1
  O  O87  1  0.69437035  0.15622112  0.74894527  1
  O  O88  1  0.46267538  0.31077618  0.74988099  1
  O  O89  1  0.85418698  0.53253107  0.74972903  1
  O  O90  1  0.67815517  0.53419737  0.24512707  1
  O  O91  1  0.86131542  0.32850253  0.24490237  1
  O  O92  1  0.47538236  0.14901032  0.24714659  1
  O  O93  1  0.64327771  0.50008837  0.92326389  1
  O  O94  1  0.85716006  0.35691968  0.92227650  1
  O  O95  1  0.49971293  0.14449853  0.92331286  1
  O  O96  1  0.62300972  0.13980869  0.42598026  1
  O  O97  1  0.50979316  0.36323056  0.42355404  1
  O  O98  1  0.86195894  0.49115523  0.42296852  1
  O  O99  1  0.34162658  0.49331104  0.07179083  1
  O  O100  1  0.15518330  0.66428180  0.07185455  1
  O  O101  1  0.50270605  0.85109996  0.07124297  1
  O  O102  1  0.34296600  0.85524798  0.57472757  1
  O  O103  1  0.50933047  0.66362129  0.57480135  1
  O  O104  1  0.14997562  0.49683797  0.57542176  1
  O  O105  1  0.30331349  0.81756323  0.25337752  1
  O  O106  1  0.52184309  0.69321301  0.25335210  1
  O  O107  1  0.17559248  0.47476374  0.25320374  1
  O  O108  1  0.28860067  0.46897366  0.75738153  1
  O  O109  1  0.17610153  0.70018646  0.75693145  1
  O  O110  1  0.52596040  0.82460085  0.75780683  1
