# generated using pymatgen
data_Na3Mg3Sc(SO4)6
_symmetry_space_group_name_H-M   'P 1'
_cell_length_a   8.74778307
_cell_length_b   8.75184346
_cell_length_c   22.68845298
_cell_angle_alpha   90.01005349
_cell_angle_beta   90.01730227
_cell_angle_gamma   120.09805940
_symmetry_Int_Tables_number   1
_chemical_formula_structural   Na3Mg3Sc(SO4)6
_chemical_formula_sum   'Na9 Mg9 Sc3 S18 O72'
_cell_volume   1502.80638308
_cell_formula_units_Z   3
loop_
 _symmetry_equiv_pos_site_id
 _symmetry_equiv_pos_as_xyz
  1  'x, y, z'
loop_
 _atom_site_type_symbol
 _atom_site_label
 _atom_site_symmetry_multiplicity
 _atom_site_fract_x
 _atom_site_fract_y
 _atom_site_fract_z
 _atom_site_occupancy
  Na  Na0  1  0.63535330  0.99900424  0.24906526  1
  Na  Na1  1  0.36452349  0.36343283  0.24890314  1
  Na  Na2  1  0.03072420  0.69791321  0.58552792  1
  Na  Na3  1  0.99909818  0.00812314  0.49922884  1
  Na  Na4  1  0.00001840  0.99936034  0.99871351  1
  Na  Na5  1  0.66590837  0.33243739  0.83069557  1
  Na  Na6  1  0.67605271  0.34190929  0.33542028  1
  Na  Na7  1  0.32348776  0.66570628  0.16028841  1
  Na  Na8  1  0.34239785  0.66576040  0.66862912  1
  Mg  Mg9  1  -0.00003173  0.99776353  0.35303165  1
  Mg  Mg10  1  0.00017965  0.00075564  0.85027459  1
  Mg  Mg11  1  0.99923736  0.00674153  0.65277080  1
  Mg  Mg12  1  0.99992092  0.99719465  0.14538394  1
  Mg  Mg13  1  0.66384066  0.33051164  0.68743289  1
  Mg  Mg14  1  0.67349038  0.33945588  0.17875267  1
  Mg  Mg15  1  0.33281240  0.66683495  0.01729072  1
  Mg  Mg16  1  0.33965687  0.66587078  0.51650314  1
  Mg  Mg17  1  0.32639757  0.66580310  0.31952851  1
  Sc  Sc18  1  0.66733764  0.33414148  0.98117609  1
  Sc  Sc19  1  0.66472392  0.33104307  0.48160610  1
  Sc  Sc20  1  0.33389765  0.66676865  0.81402230  1
  S  S21  1  0.28998950  0.99765439  0.24994964  1
  S  S22  1  0.71006971  0.70761158  0.25030931  1
  S  S23  1  0.99994333  0.29206775  0.25009431  1
  S  S24  1  0.29241552  0.28954021  0.74994628  1
  S  S25  1  0.99721055  0.70721885  0.74901935  1
  S  S26  1  0.71067053  0.00298812  0.74988966  1
  S  S27  1  0.95993808  0.33182254  0.58407452  1
  S  S28  1  0.37285283  0.03941345  0.58442394  1
  S  S29  1  0.66493567  0.62644176  0.58457342  1
  S  S30  1  0.96302791  0.62862377  0.08389244  1
  S  S31  1  0.66578818  0.03702443  0.08489585  1
  S  S32  1  0.37118436  0.33429423  0.08486947  1
  S  S33  1  0.62760962  0.67069115  0.91756516  1
  S  S34  1  0.04314963  0.37241430  0.91746666  1
  S  S35  1  0.32938333  0.95697633  0.91746641  1
  S  S36  1  0.62699782  0.95728704  0.41562682  1
  S  S37  1  0.33040971  0.37308114  0.41565456  1
  S  S38  1  0.04235505  0.66958119  0.41741785  1
  O  O39  1  0.21131427  0.03039113  0.30276826  1
  O  O40  1  0.81602786  0.78850030  0.30358274  1
  O  O41  1  0.96808284  0.18026780  0.30306980  1
  O  O42  1  0.21051134  0.18401623  0.80314320  1
  O  O43  1  0.97427640  0.79198123  0.80142687  1
  O  O44  1  0.81611882  0.02675133  0.80312829  1
  O  O45  1  0.78738807  0.97247721  0.69635803  1
  O  O46  1  0.18544504  0.21249204  0.69637535  1
  O  O47  1  0.02624816  0.81144991  0.69399127  1
  O  O48  1  0.78908531  0.81950241  0.19779142  1
  O  O49  1  0.03167870  0.21183401  0.19744189  1
  O  O50  1  0.18375457  0.97263738  0.19695570  1
  O  O51  1  0.87754820  0.36431164  0.63575388  1
  O  O52  1  0.48273245  0.12282296  0.63620617  1
  O  O53  1  0.63956390  0.51661933  0.63660402  1
  O  O54  1  0.88157508  0.52041825  0.13714719  1
  O  O55  1  0.63981455  0.11652144  0.13964313  1
  O  O56  1  0.47650570  0.35982364  0.13963981  1
  O  O57  1  0.45875329  0.30838174  0.03268133  1
  O  O58  1  0.85120998  0.54360046  0.03097098  1
  O  O59  1  0.69191340  0.15059807  0.03270225  1
  O  O60  1  0.45473488  0.14760448  0.53035335  1
  O  O61  1  0.69669219  0.54469437  0.53074757  1
  O  O62  1  0.85096261  0.30612672  0.52998633  1
  O  O63  1  0.54423349  0.69372770  0.97037206  1
  O  O64  1  0.14967802  0.45578980  0.97030675  1
  O  O65  1  0.30621937  0.85054419  0.97029417  1
  O  O66  1  0.54185206  0.84978202  0.46808794  1
  O  O67  1  0.30732124  0.45780590  0.46809637  1
  O  O68  1  0.14536909  0.69258834  0.47183770  1
  O  O69  1  0.12263715  0.64045150  0.36468281  1
  O  O70  1  0.52242946  0.88139286  0.36085115  1
  O  O71  1  0.35965248  0.47784154  0.36090183  1
  O  O72  1  0.12313569  0.48270563  0.86391714  1
  O  O73  1  0.35960144  0.87700336  0.86391969  1
  O  O74  1  0.51733244  0.64028399  0.86397908  1
  O  O75  1  0.02277432  0.82705810  0.41061448  1
  O  O76  1  0.80503724  0.97809462  0.41000498  1
  O  O77  1  0.17267369  0.19502593  0.40991505  1
  O  O78  1  0.02237259  0.19535248  0.91028232  1
  O  O79  1  0.17277896  0.97725686  0.91020775  1
  O  O80  1  0.80492971  0.82710445  0.91025463  1
  O  O81  1  0.97844831  0.17404519  0.58967830  1
  O  O82  1  0.19211996  0.01694386  0.58929724  1
  O  O83  1  0.82925078  0.80292187  0.58950821  1
  O  O84  1  0.97742836  0.80376902  0.08967143  1
  O  O85  1  0.82672036  0.02267373  0.09024462  1
  O  O86  1  0.19550460  0.17344313  0.09010823  1
  O  O87  1  0.68947035  0.15994678  0.74345104  1
  O  O88  1  0.47086363  0.31125755  0.74360990  1
  O  O89  1  0.83972611  0.52864737  0.74316298  1
  O  O90  1  0.68288419  0.52578831  0.24377261  1
  O  O91  1  0.83859639  0.30828513  0.24326539  1
  O  O92  1  0.47254570  0.16016709  0.24407142  1
  O  O93  1  0.64372766  0.50814411  0.92299989  1
  O  O94  1  0.86409446  0.35560311  0.92295086  1
  O  O95  1  0.49197855  0.13600193  0.92306491  1
  O  O96  1  0.64437253  0.13655050  0.42191993  1
  O  O97  1  0.49238609  0.35592917  0.42205257  1
  O  O98  1  0.86231841  0.50745055  0.42263357  1
  O  O99  1  0.35567893  0.49398647  0.07767812  1
  O  O100  1  0.13899076  0.64522040  0.07702834  1
  O  O101  1  0.50597558  0.86148047  0.07768656  1
  O  O102  1  0.35005279  0.85909091  0.57683634  1
  O  O103  1  0.50776244  0.64531022  0.57633819  1
  O  O104  1  0.13599151  0.49558627  0.57623740  1
  O  O105  1  0.31677288  0.84287874  0.25674347  1
  O  O106  1  0.52777451  0.68768959  0.25653157  1
  O  O107  1  0.16151729  0.46965379  0.25729944  1
  O  O108  1  0.31122343  0.47001683  0.75592326  1
  O  O109  1  0.15894860  0.68936364  0.75536191  1
  O  O110  1  0.52991692  0.84118966  0.75582943  1
