# generated using pymatgen
data_Mg(CoO2)4
_symmetry_space_group_name_H-M   'P 1'
_cell_length_a   5.80077697
_cell_length_b   5.77854970
_cell_length_c   5.75532507
_cell_angle_alpha   119.85872499
_cell_angle_beta   119.49268234
_cell_angle_gamma   91.33826681
_symmetry_Int_Tables_number   1
_chemical_formula_structural   Mg(CoO2)4
_chemical_formula_sum   'Mg1 Co4 O8'
_cell_volume   136.10927666
_cell_formula_units_Z   1
loop_
 _symmetry_equiv_pos_site_id
 _symmetry_equiv_pos_as_xyz
  1  'x, y, z'
loop_
 _atom_site_type_symbol
 _atom_site_label
 _atom_site_symmetry_multiplicity
 _atom_site_fract_x
 _atom_site_fract_y
 _atom_site_fract_z
 _atom_site_occupancy
  Mg  Mg0  1  0.00000100  0.00000000  0.00000100  1
  Co  Co1  1  0.50000000  0.50000000  0.00000000  1
  Co  Co2  1  0.00000100  0.00000000  0.50000000  1
  Co  Co3  1  0.00000100  0.50000000  0.00000000  1
  Co  Co4  1  0.00000000  0.50000000  0.50000000  1
  O  O5  1  0.77991300  0.73830000  0.02753900  1
  O  O6  1  0.19654600  0.73391000  0.46427400  1
  O  O7  1  0.22008800  0.26170100  0.97246200  1
  O  O8  1  0.21830900  0.71915300  0.96813200  1
  O  O9  1  0.80345500  0.26609000  0.53572600  1
  O  O10  1  0.21887900  0.26133100  0.50644300  1
  O  O11  1  0.78169200  0.28084700  0.03186800  1
  O  O12  1  0.78112200  0.73866900  0.49355800  1
