# generated using pymatgen
data_RbMgCr3O8
_symmetry_space_group_name_H-M   'P 1'
_cell_length_a   5.33245534
_cell_length_b   5.33245619
_cell_length_c   7.09998830
_cell_angle_alpha   87.16541041
_cell_angle_beta   87.16541077
_cell_angle_gamma   65.07138274
_symmetry_Int_Tables_number   1
_chemical_formula_structural   RbMgCr3O8
_chemical_formula_sum   'Rb1 Mg1 Cr3 O8'
_cell_volume   182.76427196
_cell_formula_units_Z   1
loop_
 _symmetry_equiv_pos_site_id
 _symmetry_equiv_pos_as_xyz
  1  'x, y, z'
loop_
 _atom_site_type_symbol
 _atom_site_label
 _atom_site_symmetry_multiplicity
 _atom_site_fract_x
 _atom_site_fract_y
 _atom_site_fract_z
 _atom_site_occupancy
  Rb  Rb0  1  0.98861400  0.98861400  0.01738900  1
  Mg  Mg1  1  0.33177000  0.33177000  0.74375800  1
  Cr  Cr2  1  0.36560200  0.36560200  0.28645000  1
  Cr  Cr3  1  0.63899200  0.63899200  0.70422800  1
  Cr  Cr4  1  0.99744400  0.99744400  0.50899800  1
  O  O5  1  0.73178300  0.26752100  0.69793400  1
  O  O6  1  0.71424900  0.23563900  0.32269600  1
  O  O7  1  0.23563900  0.71424900  0.32269600  1
  O  O8  1  0.26752100  0.73178300  0.69793400  1
  O  O9  1  0.22640100  0.22640100  0.48907600  1
  O  O10  1  0.77226100  0.77226100  0.52808300  1
  O  O11  1  0.69825300  0.69825300  0.91707400  1
  O  O12  1  0.30647100  0.30647100  0.06055900  1
