# generated using pymatgen
data_NaNb3Zn(PO4)6
_symmetry_space_group_name_H-M   'P 1'
_cell_length_a   8.79519350
_cell_length_b   8.79519321
_cell_length_c   22.73822613
_cell_angle_alpha   90.00000000
_cell_angle_beta   90.00000000
_cell_angle_gamma   120.00000108
_symmetry_Int_Tables_number   1
_chemical_formula_structural   NaNb3Zn(PO4)6
_chemical_formula_sum   'Na3 Nb9 Zn3 P18 O72'
_cell_volume   1523.27386629
_cell_formula_units_Z   3
loop_
 _symmetry_equiv_pos_site_id
 _symmetry_equiv_pos_as_xyz
  1  'x, y, z'
loop_
 _atom_site_type_symbol
 _atom_site_label
 _atom_site_symmetry_multiplicity
 _atom_site_fract_x
 _atom_site_fract_y
 _atom_site_fract_z
 _atom_site_occupancy
  Na  Na0  1  -0.00000000  -0.00000000  0.98625864  1
  Na  Na1  1  0.66666700  0.33333300  0.84323928  1
  Na  Na2  1  0.66666700  0.33333300  0.34217210  1
  Nb  Nb3  1  -0.00000000  -0.00000000  0.36107856  1
  Nb  Nb4  1  -0.00000000  -0.00000000  0.64653171  1
  Nb  Nb5  1  -0.00000000  -0.00000000  0.14342624  1
  Nb  Nb6  1  0.66666700  0.33333300  0.68782288  1
  Nb  Nb7  1  0.66666700  0.33333300  0.18477001  1
  Nb  Nb8  1  0.33333300  0.66666700  0.01838645  1
  Nb  Nb9  1  0.33333300  0.66666700  0.52704367  1
  Nb  Nb10  1  0.33333300  0.66666700  0.31099076  1
  Nb  Nb11  1  0.33333300  0.66666700  0.81116329  1
  Zn  Zn12  1  -0.00000000  -0.00000000  0.85408475  1
  Zn  Zn13  1  0.66666700  0.33333300  0.97637076  1
  Zn  Zn14  1  0.66666700  0.33333300  0.48166385  1
  P  P15  1  0.28649664  0.00311982  0.25113838  1
  P  P16  1  0.71662317  0.71350336  0.25113838  1
  P  P17  1  0.99688018  0.28337683  0.25113838  1
  P  P18  1  0.28605186  0.28457648  0.75244027  1
  P  P19  1  0.99852462  0.71394814  0.75244027  1
  P  P20  1  0.71542352  0.00147538  0.75244027  1
  P  P21  1  0.94814040  0.32805432  0.58115256  1
  P  P22  1  0.37991492  0.05185960  0.58115256  1
  P  P23  1  0.67194568  0.62008508  0.58115256  1
  P  P24  1  0.95404475  0.61908531  0.08062418  1
  P  P25  1  0.66504156  0.04595525  0.08062418  1
  P  P26  1  0.38091469  0.33495844  0.08062418  1
  P  P27  1  0.62679691  0.66676857  0.91572054  1
  P  P28  1  0.03997066  0.37320309  0.91572054  1
  P  P29  1  0.33323143  0.96002934  0.91572054  1
  P  P30  1  0.61585768  0.95568248  0.41719048  1
  P  P31  1  0.33982381  0.38414232  0.41719048  1
  P  P32  1  0.04431752  0.66017619  0.41719048  1
  O  O33  1  0.20044524  0.03257794  0.30561896  1
  O  O34  1  0.83213270  0.79955476  0.30561896  1
  O  O35  1  0.96742206  0.16786730  0.30561896  1
  O  O36  1  0.21732382  0.17250846  0.80611021  1
  O  O37  1  0.95518464  0.78267618  0.80611021  1
  O  O38  1  0.82749154  0.04481536  0.80611021  1
  O  O39  1  0.80162712  0.97455278  0.69603527  1
  O  O40  1  0.17292566  0.19837288  0.69603527  1
  O  O41  1  0.02544722  0.82707434  0.69603527  1
  O  O42  1  0.80116099  0.82682378  0.19622561  1
  O  O43  1  0.02566279  0.19883901  0.19622561  1
  O  O44  1  0.17317622  0.97433721  0.19622561  1
  O  O45  1  0.86695818  0.36392885  0.63633137  1
  O  O46  1  0.49697167  0.13304182  0.63633137  1
  O  O47  1  0.63607115  0.50302833  0.63633137  1
  O  O48  1  0.86318833  0.50578087  0.13845739  1
  O  O49  1  0.64259354  0.13681167  0.13845739  1
  O  O50  1  0.49421913  0.35740646  0.13845739  1
  O  O51  1  0.45152033  0.28841817  0.02840411  1
  O  O52  1  0.83689884  0.54847967  0.02840411  1
  O  O53  1  0.71158183  0.16310116  0.02840411  1
  O  O54  1  0.45008331  0.15770778  0.52613185  1
  O  O55  1  0.70762547  0.54991669  0.52613185  1
  O  O56  1  0.84229222  0.29237453  0.52613185  1
  O  O57  1  0.52354969  0.68190405  0.97212162  1
  O  O58  1  0.15835337  0.47645031  0.97212162  1
  O  O59  1  0.31809595  0.84164663  0.97212162  1
  O  O60  1  0.53218613  0.83817963  0.47118122  1
  O  O61  1  0.30599250  0.46781387  0.47118122  1
  O  O62  1  0.16182037  0.69400750  0.47118122  1
  O  O63  1  0.14223786  0.64683816  0.36113754  1
  O  O64  1  0.50459930  0.85776214  0.36113754  1
  O  O65  1  0.35316184  0.49540070  0.36113754  1
  O  O66  1  0.14333324  0.49146260  0.86118000  1
  O  O67  1  0.34812837  0.85666676  0.86118000  1
  O  O68  1  0.50853740  0.65187163  0.86118000  1
  O  O69  1  0.03592115  0.83374348  0.40656454  1
  O  O70  1  0.79782233  0.96407885  0.40656454  1
  O  O71  1  0.16625652  0.20217767  0.40656454  1
  O  O72  1  0.03792632  0.20104471  0.91483271  1
  O  O73  1  0.16311839  0.96207368  0.91483271  1
  O  O74  1  0.79895529  0.83688161  0.91483271  1
  O  O75  1  0.98090388  0.17478354  0.59566192  1
  O  O76  1  0.19387966  0.01909612  0.59566192  1
  O  O77  1  0.82521646  0.80612034  0.59566192  1
  O  O78  1  0.98018852  0.80726532  0.09552881  1
  O  O79  1  0.82707680  0.01981148  0.09552881  1
  O  O80  1  0.19273468  0.17292320  0.09552881  1
  O  O81  1  0.68614969  0.16123953  0.73844336  1
  O  O82  1  0.47509084  0.31385031  0.73844336  1
  O  O83  1  0.83876047  0.52490916  0.73844336  1
  O  O84  1  0.69444569  0.52838073  0.24323570  1
  O  O85  1  0.83393604  0.30555431  0.24323570  1
  O  O86  1  0.47161927  0.16606396  0.24323570  1
  O  O87  1  0.62849057  0.49632214  0.91884174  1
  O  O88  1  0.86783257  0.37150943  0.91884174  1
  O  O89  1  0.50367786  0.13216743  0.91884174  1
  O  O90  1  0.63832589  0.13604627  0.41856592  1
  O  O91  1  0.49772138  0.36167411  0.41856592  1
  O  O92  1  0.86395373  0.50227862  0.41856592  1
  O  O93  1  0.35914940  0.49610417  0.07712079  1
  O  O94  1  0.13695378  0.64085060  0.07712079  1
  O  O95  1  0.50389583  0.86304622  0.07712079  1
  O  O96  1  0.35949031  0.86333182  0.57372338  1
  O  O97  1  0.50384052  0.64050969  0.57372338  1
  O  O98  1  0.13666818  0.49615948  0.57372338  1
  O  O99  1  0.30627847  0.83946512  0.25970101  1
  O  O100  1  0.53318566  0.69372153  0.25970101  1
  O  O101  1  0.16053488  0.46681434  0.25970101  1
  O  O102  1  0.30849662  0.47022618  0.75779959  1
  O  O103  1  0.16172856  0.69150338  0.75779959  1
  O  O104  1  0.52977382  0.83827144  0.75779959  1
