# generated using pymatgen
data_Na4LaZn(PO4)3
_symmetry_space_group_name_H-M   'P 1'
_cell_length_a   9.57175215
_cell_length_b   9.57175177
_cell_length_c   22.37747123
_cell_angle_alpha   90.00000000
_cell_angle_beta   90.00000000
_cell_angle_gamma   120.00000126
_symmetry_Int_Tables_number   1
_chemical_formula_structural   Na4LaZn(PO4)3
_chemical_formula_sum   'Na24 La6 Zn6 P18 O72'
_cell_volume   1775.51565376
_cell_formula_units_Z   6
loop_
 _symmetry_equiv_pos_site_id
 _symmetry_equiv_pos_as_xyz
  1  'x, y, z'
loop_
 _atom_site_type_symbol
 _atom_site_label
 _atom_site_symmetry_multiplicity
 _atom_site_fract_x
 _atom_site_fract_y
 _atom_site_fract_z
 _atom_site_occupancy
  Na  Na0  1  0.63682848  0.01977643  0.24638327  1
  Na  Na1  1  0.38294795  0.36317152  0.24638327  1
  Na  Na2  1  0.98022357  0.61705205  0.24638327  1
  Na  Na3  1  0.63682848  0.61705205  0.74638327  1
  Na  Na4  1  0.98022357  0.36317152  0.74638327  1
  Na  Na5  1  0.38294795  0.01977643  0.74638327  1
  Na  Na6  1  0.30349548  0.35310943  0.57971627  1
  Na  Na7  1  0.04961495  0.69650452  0.57971627  1
  Na  Na8  1  0.64689057  0.95038505  0.57971627  1
  Na  Na9  1  0.30349548  0.95038505  0.07971627  1
  Na  Na10  1  0.64689057  0.69650452  0.07971627  1
  Na  Na11  1  0.04961495  0.35310943  0.07971627  1
  Na  Na12  1  0.97016148  0.68644343  0.91305027  1
  Na  Na13  1  0.71628095  0.02983852  0.91305027  1
  Na  Na14  1  0.31355657  0.28371905  0.91305027  1
  Na  Na15  1  0.97016148  0.28371905  0.41305027  1
  Na  Na16  1  0.31355657  0.02983852  0.41305027  1
  Na  Na17  1  0.71628095  0.68644343  0.41305027  1
  Na  Na18  1  -0.00000000  -0.00000000  0.49085388  1
  Na  Na19  1  -0.00000000  -0.00000000  0.99085388  1
  Na  Na20  1  0.66666700  0.33333300  0.82418688  1
  Na  Na21  1  0.66666700  0.33333300  0.32418688  1
  Na  Na22  1  0.33333300  0.66666700  0.15752088  1
  Na  Na23  1  0.33333300  0.66666700  0.65752088  1
  La  La24  1  -0.00000000  -0.00000000  0.65511126  1
  La  La25  1  -0.00000000  -0.00000000  0.15511126  1
  La  La26  1  0.66666700  0.33333300  0.98844426  1
  La  La27  1  0.66666700  0.33333300  0.48844426  1
  La  La28  1  0.33333300  0.66666700  0.32177826  1
  La  La29  1  0.33333300  0.66666700  0.82177826  1
  Zn  Zn30  1  -0.00000000  -0.00000000  0.34325981  1
  Zn  Zn31  1  -0.00000000  -0.00000000  0.84325981  1
  Zn  Zn32  1  0.66666700  0.33333300  0.67659281  1
  Zn  Zn33  1  0.66666700  0.33333300  0.17659281  1
  Zn  Zn34  1  0.33333300  0.66666700  0.00992681  1
  Zn  Zn35  1  0.33333300  0.66666700  0.50992681  1
  P  P36  1  0.31367040  0.01361418  0.25221869  1
  P  P37  1  0.69994378  0.68632960  0.25221869  1
  P  P38  1  0.98638582  0.30005622  0.25221869  1
  P  P39  1  0.31367040  0.30005622  0.75221869  1
  P  P40  1  0.98638582  0.68632960  0.75221869  1
  P  P41  1  0.69994378  0.01361418  0.75221869  1
  P  P42  1  0.98033740  0.34694718  0.58555169  1
  P  P43  1  0.36661078  0.01966260  0.58555169  1
  P  P44  1  0.65305282  0.63338922  0.58555169  1
  P  P45  1  0.98033740  0.63338922  0.08555169  1
  P  P46  1  0.65305282  0.01966260  0.08555169  1
  P  P47  1  0.36661078  0.34694718  0.08555169  1
  P  P48  1  0.64700340  0.68028118  0.91888569  1
  P  P49  1  0.03327678  0.35299660  0.91888569  1
  P  P50  1  0.31971882  0.96672322  0.91888569  1
  P  P51  1  0.64700340  0.96672322  0.41888569  1
  P  P52  1  0.31971882  0.35299660  0.41888569  1
  P  P53  1  0.03327678  0.68028118  0.41888569  1
  O  O54  1  0.21559147  0.02289217  0.30608916  1
  O  O55  1  0.80730071  0.78440853  0.30608916  1
  O  O56  1  0.97710783  0.19269929  0.30608916  1
  O  O57  1  0.21559147  0.19269929  0.80608916  1
  O  O58  1  0.97710783  0.78440853  0.80608916  1
  O  O59  1  0.80730071  0.02289217  0.80608916  1
  O  O60  1  0.76987333  0.98959707  0.69351861  1
  O  O61  1  0.21972374  0.23012667  0.69351861  1
  O  O62  1  0.01040293  0.78027626  0.69351861  1
  O  O63  1  0.76987333  0.78027626  0.19351861  1
  O  O64  1  0.01040293  0.23012667  0.19351861  1
  O  O65  1  0.21972374  0.98959707  0.19351861  1
  O  O66  1  0.88225847  0.35622517  0.63942216  1
  O  O67  1  0.47396771  0.11774153  0.63942216  1
  O  O68  1  0.64377483  0.52603229  0.63942216  1
  O  O69  1  0.88225847  0.52603229  0.13942216  1
  O  O70  1  0.64377483  0.11774153  0.13942216  1
  O  O71  1  0.47396771  0.35622517  0.13942216  1
  O  O72  1  0.43654033  0.32293007  0.02685161  1
  O  O73  1  0.88639074  0.56345967  0.02685161  1
  O  O74  1  0.67706993  0.11360926  0.02685161  1
  O  O75  1  0.43654033  0.11360926  0.52685161  1
  O  O76  1  0.67706993  0.56345967  0.52685161  1
  O  O77  1  0.88639074  0.32293007  0.52685161  1
  O  O78  1  0.54892447  0.68955917  0.97275616  1
  O  O79  1  0.14063371  0.45107553  0.97275616  1
  O  O80  1  0.31044083  0.85936629  0.97275616  1
  O  O81  1  0.54892447  0.85936629  0.47275616  1
  O  O82  1  0.31044083  0.45107553  0.47275616  1
  O  O83  1  0.14063371  0.68955917  0.47275616  1
  O  O84  1  0.10320633  0.65626407  0.36018561  1
  O  O85  1  0.55305674  0.89679367  0.36018561  1
  O  O86  1  0.34373593  0.44694326  0.36018561  1
  O  O87  1  0.10320633  0.44694326  0.86018561  1
  O  O88  1  0.34373593  0.89679367  0.86018561  1
  O  O89  1  0.55305674  0.65626407  0.86018561  1
  O  O90  1  0.02461505  0.83830951  0.41711270  1
  O  O91  1  0.81369446  0.97538495  0.41711270  1
  O  O92  1  0.16169049  0.18630554  0.41711270  1
  O  O93  1  0.02461505  0.18630554  0.91711270  1
  O  O94  1  0.16169049  0.97538495  0.91711270  1
  O  O95  1  0.81369446  0.83830951  0.91711270  1
  O  O96  1  0.00870783  0.20017242  0.58826926  1
  O  O97  1  0.19146459  0.99129217  0.58826926  1
  O  O98  1  0.79982758  0.80853541  0.58826926  1
  O  O99  1  0.00870783  0.80853541  0.08826926  1
  O  O100  1  0.79982758  0.99129217  0.08826926  1
  O  O101  1  0.19146459  0.20017242  0.08826926  1
  O  O102  1  0.69128205  0.17164251  0.75044570  1
  O  O103  1  0.48036146  0.30871795  0.75044570  1
  O  O104  1  0.82835749  0.51963854  0.75044570  1
  O  O105  1  0.69128205  0.51963854  0.25044570  1
  O  O106  1  0.82835749  0.30871795  0.25044570  1
  O  O107  1  0.48036146  0.17164251  0.25044570  1
  O  O108  1  0.67537483  0.53350542  0.92160226  1
  O  O109  1  0.85813159  0.32462517  0.92160226  1
  O  O110  1  0.46649458  0.14186841  0.92160226  1
  O  O111  1  0.67537483  0.14186841  0.42160226  1
  O  O112  1  0.46649458  0.32462517  0.42160226  1
  O  O113  1  0.85813159  0.53350542  0.42160226  1
  O  O114  1  0.35794805  0.50497651  0.08377970  1
  O  O115  1  0.14702746  0.64205195  0.08377970  1
  O  O116  1  0.49502349  0.85297254  0.08377970  1
  O  O117  1  0.35794805  0.85297254  0.58377970  1
  O  O118  1  0.49502349  0.64205195  0.58377970  1
  O  O119  1  0.14702746  0.50497651  0.58377970  1
  O  O120  1  0.34204083  0.86683942  0.25493626  1
  O  O121  1  0.52479759  0.65795917  0.25493626  1
  O  O122  1  0.13316058  0.47520241  0.25493626  1
  O  O123  1  0.34204083  0.47520241  0.75493626  1
  O  O124  1  0.13316058  0.65795917  0.75493626  1
  O  O125  1  0.52479759  0.86683942  0.75493626  1
