# generated using pymatgen
data_Bi2WO6
_symmetry_space_group_name_H-M   'P 1'
_cell_length_a   5.46815076
_cell_length_b   5.47499376
_cell_length_c   16.57348400
_cell_angle_alpha   90.00000000
_cell_angle_beta   90.00000000
_cell_angle_gamma   90.00000000
_symmetry_Int_Tables_number   1
_chemical_formula_structural   Bi2WO6
_chemical_formula_sum   'Bi8 W4 O24'
_cell_volume   496.17847698
_cell_formula_units_Z   4
loop_
 _symmetry_equiv_pos_site_id
 _symmetry_equiv_pos_as_xyz
  1  'x, y, z'
loop_
 _atom_site_type_symbol
 _atom_site_label
 _atom_site_symmetry_multiplicity
 _atom_site_fract_x
 _atom_site_fract_y
 _atom_site_fract_z
 _atom_site_occupancy
  Bi  Bi0  1  0.02245232  0.01488243  0.92326773  1
  Bi  Bi1  1  0.97754768  0.51488243  0.07673227  1
  Bi  Bi2  1  0.47754768  0.51488243  0.92326773  1
  Bi  Bi3  1  0.52245232  0.01488243  0.07673227  1
  Bi  Bi4  1  0.97696386  0.02835772  0.57681607  1
  Bi  Bi5  1  0.02303614  0.52835772  0.42318393  1
  Bi  Bi6  1  0.52303614  0.52835772  0.57681607  1
  Bi  Bi7  1  0.47696386  0.02835772  0.42318393  1
  W  W8  1  0.49588165  0.99136620  0.75039105  1
  W  W9  1  0.50411835  0.49136620  0.24960895  1
  W  W10  1  0.00411835  0.49136620  0.75039105  1
  W  W11  1  0.99588165  0.99136620  0.24960895  1
  O  O12  1  0.92124813  0.42808824  0.64252293  1
  O  O13  1  0.07875187  0.92808824  0.35747707  1
  O  O14  1  0.57875187  0.92808824  0.64252293  1
  O  O15  1  0.42124813  0.42808824  0.35747707  1
  O  O16  1  0.27396554  0.67402815  0.73030465  1
  O  O17  1  0.72603446  0.17402815  0.26969535  1
  O  O18  1  0.22603446  0.17402815  0.73030465  1
  O  O19  1  0.77396554  0.67402815  0.26969535  1
  O  O20  1  0.78539865  0.73107683  0.77045777  1
  O  O21  1  0.21460135  0.23107683  0.22954223  1
  O  O22  1  0.71460135  0.23107683  0.77045777  1
  O  O23  1  0.28539865  0.73107683  0.22954223  1
  O  O24  1  0.92606126  0.91446651  0.14156177  1
  O  O25  1  0.07393874  0.41446651  0.85843823  1
  O  O26  1  0.57393874  0.41446651  0.14156177  1
  O  O27  1  0.42606126  0.91446651  0.85843823  1
  O  O28  1  0.73840207  0.73625633  0.99935088  1
  O  O29  1  0.26159793  0.23625633  0.00064912  1
  O  O30  1  0.76159793  0.23625633  0.99935088  1
  O  O31  1  0.23840207  0.73625633  0.00064912  1
  O  O32  1  0.76168038  0.74997760  0.49944268  1
  O  O33  1  0.23831962  0.24997760  0.50055732  1
  O  O34  1  0.73831962  0.24997760  0.49944268  1
  O  O35  1  0.26168038  0.74997760  0.50055732  1
