# generated using pymatgen
data_Na21Ca4Ta8Si15(PO24)3
_symmetry_space_group_name_H-M   'P 1'
_cell_length_a   9.21916125
_cell_length_b   9.23972200
_cell_length_c   22.38400948
_cell_angle_alpha   90.04941776
_cell_angle_beta   90.11805086
_cell_angle_gamma   120.02140141
_symmetry_Int_Tables_number   1
_chemical_formula_structural   Na21Ca4Ta8Si15(PO24)3
_chemical_formula_sum   'Na21 Ca4 Ta8 Si15 P3 O72'
_cell_volume   1650.90913526
_cell_formula_units_Z   1
loop_
 _symmetry_equiv_pos_site_id
 _symmetry_equiv_pos_as_xyz
  1  'x, y, z'
loop_
 _atom_site_type_symbol
 _atom_site_label
 _atom_site_symmetry_multiplicity
 _atom_site_fract_x
 _atom_site_fract_y
 _atom_site_fract_z
 _atom_site_occupancy
  Na  Na0  1  0.64268793  0.01525192  0.23433921  1
  Na  Na1  1  0.37050547  0.34813142  0.24157435  1
  Na  Na2  1  0.99121750  0.63664331  0.23781864  1
  Na  Na3  1  0.64192547  0.62913324  0.73703604  1
  Na  Na4  1  0.97837761  0.34985253  0.74365606  1
  Na  Na5  1  0.37750477  0.02713126  0.74211210  1
  Na  Na6  1  0.32734480  0.34261446  0.59209845  1
  Na  Na7  1  0.65782252  0.98090187  0.59180514  1
  Na  Na8  1  0.32887780  0.98346371  0.08585548  1
  Na  Na9  1  0.96885189  0.68343835  0.91298083  1
  Na  Na10  1  0.71446377  0.03339090  0.90828294  1
  Na  Na11  1  0.31715630  0.28005786  0.90928842  1
  Na  Na12  1  0.96570368  0.28152177  0.41208159  1
  Na  Na13  1  0.31881122  0.03621556  0.40865293  1
  Na  Na14  1  0.71293117  0.68207393  0.41122781  1
  Na  Na15  1  0.00266334  0.98944533  0.49876102  1
  Na  Na16  1  0.98994551  0.00298449  0.99707128  1
  Na  Na17  1  0.65481366  0.32462379  0.82515557  1
  Na  Na18  1  0.65943602  0.32459095  0.32448399  1
  Na  Na19  1  0.33421713  0.64250328  0.16004516  1
  Na  Na20  1  0.30710102  0.66613457  0.66577304  1
  Ca  Ca21  1  0.00161293  0.00102212  0.35373422  1
  Ca  Ca22  1  0.00123399  0.00164885  0.85483997  1
  Ca  Ca23  1  0.67000967  0.33412768  0.67765436  1
  Ca  Ca24  1  0.66686348  0.33689816  0.17546144  1
  Ta  Ta25  1  0.99833679  0.00262249  0.64850976  1
  Ta  Ta26  1  0.00324311  0.99805066  0.14479385  1
  Ta  Ta27  1  0.66811113  0.33201660  0.98301900  1
  Ta  Ta28  1  0.66617597  0.33437029  0.48165716  1
  Ta  Ta29  1  0.33279608  0.66429921  0.02021694  1
  Ta  Ta30  1  0.33128732  0.66600080  0.51944541  1
  Ta  Ta31  1  0.33226608  0.66917332  0.31187106  1
  Ta  Ta32  1  0.33666670  0.66569265  0.81261836  1
  Si  Si33  1  0.29862584  0.99466734  0.25332686  1
  Si  Si34  1  0.29670226  0.30462707  0.75353258  1
  Si  Si35  1  0.69492232  0.99311215  0.75400157  1
  Si  Si36  1  0.97087451  0.33283319  0.58501476  1
  Si  Si37  1  0.36055309  0.02843526  0.58383218  1
  Si  Si38  1  0.67029566  0.63876434  0.58284034  1
  Si  Si39  1  0.96970696  0.63534692  0.08491471  1
  Si  Si40  1  0.66772787  0.02930407  0.08421591  1
  Si  Si41  1  0.36325597  0.33455887  0.08530588  1
  Si  Si42  1  0.61419446  0.64904642  0.91814033  1
  Si  Si43  1  0.03562645  0.38760993  0.91696763  1
  Si  Si44  1  0.34804249  0.96208133  0.91873462  1
  Si  Si45  1  0.61439194  0.96307985  0.41786656  1
  Si  Si46  1  0.34938116  0.38626425  0.41699937  1
  Si  Si47  1  0.03433461  0.64757786  0.41627087  1
  P  P48  1  0.69954386  0.70957707  0.25346293  1
  P  P49  1  0.01070085  0.30017233  0.25291299  1
  P  P50  1  0.01099277  0.71261693  0.75296530  1
  O  O51  1  0.21861472  0.00527122  0.31501038  1
  O  O52  1  0.77666881  0.78134579  0.31393917  1
  O  O53  1  0.99473927  0.21950984  0.31345485  1
  O  O54  1  0.22400136  0.20530287  0.81408521  1
  O  O55  1  0.99482120  0.77859432  0.81263149  1
  O  O56  1  0.78764058  0.00232186  0.81470004  1
  O  O57  1  0.80705887  0.97816394  0.69491571  1
  O  O58  1  0.16818771  0.19161407  0.69498096  1
  O  O59  1  0.02272096  0.83576614  0.70041694  1
  O  O60  1  0.80844975  0.83203681  0.20182359  1
  O  O61  1  0.02355547  0.18960431  0.20180157  1
  O  O62  1  0.16920284  0.97725915  0.19617773  1
  O  O63  1  0.91695944  0.37069305  0.64722407  1
  O  O64  1  0.47524279  0.08075006  0.64216591  1
  O  O65  1  0.60522420  0.52026221  0.63964493  1
  O  O66  1  0.91221696  0.54107254  0.14671958  1
  O  O67  1  0.60663907  0.08582234  0.14174283  1
  O  O68  1  0.45482692  0.37153932  0.14812492  1
  O  O69  1  0.47375667  0.30241946  0.03167713  1
  O  O70  1  0.83769125  0.52501509  0.02887415  1
  O  O71  1  0.69131256  0.16091181  0.02762157  1
  O  O72  1  0.47194177  0.16653692  0.52824842  1
  O  O73  1  0.68902200  0.52961670  0.52523738  1
  O  O74  1  0.83312606  0.30882185  0.52985442  1
  O  O75  1  0.49517096  0.64892392  0.97117281  1
  O  O76  1  0.14756037  0.50981334  0.97118184  1
  O  O77  1  0.35486629  0.85688260  0.97558498  1
  O  O78  1  0.50085205  0.85327163  0.47372983  1
  O  O79  1  0.36053603  0.50288539  0.47353093  1
  O  O80  1  0.15006768  0.64134722  0.47001572  1
  O  O81  1  0.13360341  0.63316747  0.35473608  1
  O  O82  1  0.49689854  0.85983943  0.35732471  1
  O  O83  1  0.36339456  0.50065847  0.35628702  1
  O  O84  1  0.13232624  0.50047453  0.85516492  1
  O  O85  1  0.36287711  0.86035720  0.85794783  1
  O  O86  1  0.49832562  0.63269365  0.85616398  1
  O  O87  1  0.01452460  0.80950153  0.42055402  1
  O  O88  1  0.79642877  0.98190825  0.42094572  1
  O  O89  1  0.18412263  0.20578485  0.42199938  1
  O  O90  1  0.01952565  0.20727038  0.92178842  1
  O  O91  1  0.18307292  0.97805905  0.92271325  1
  O  O92  1  0.79663753  0.81035778  0.92124526  1
  O  O93  1  0.96910213  0.15070232  0.58787013  1
  O  O94  1  0.18693067  0.03657423  0.59042653  1
  O  O95  1  0.84535048  0.81835286  0.59102618  1
  O  O96  1  0.97625140  0.82050986  0.09089406  1
  O  O97  1  0.84430411  0.02742213  0.09447655  1
  O  O98  1  0.18219400  0.15124397  0.09032875  1
  O  O99  1  0.67180065  0.15402524  0.74862040  1
  O  O100  1  0.48452704  0.33876750  0.74547056  1
  O  O101  1  0.86233584  0.53791569  0.74351080  1
  O  O102  1  0.67816048  0.53522143  0.24755215  1
  O  O103  1  0.86334988  0.33024453  0.24492674  1
  O  O104  1  0.48545969  0.15270164  0.24855136  1
  O  O105  1  0.61929886  0.47302867  0.92313349  1
  O  O106  1  0.84961696  0.37507716  0.92111548  1
  O  O107  1  0.52160322  0.14753630  0.92141356  1
  O  O108  1  0.62301898  0.14617831  0.42123701  1
  O  O109  1  0.52227783  0.37248078  0.41969057  1
  O  O110  1  0.85161110  0.47219987  0.42059941  1
  O  O111  1  0.31812749  0.48066816  0.07049850  1
  O  O112  1  0.16677277  0.68771900  0.07304590  1
  O  O113  1  0.51584276  0.83674906  0.07144994  1
  O  O114  1  0.31787020  0.83608563  0.56941913  1
  O  O115  1  0.52144476  0.68808686  0.57104899  1
  O  O116  1  0.16776700  0.47726819  0.57164818  1
  O  O117  1  0.30072294  0.81120734  0.25153889  1
  O  O118  1  0.52213755  0.70080174  0.24974818  1
  O  O119  1  0.18401931  0.47330039  0.25047993  1
  O  O120  1  0.28798345  0.48267715  0.75168812  1
  O  O121  1  0.18321746  0.71405939  0.74952693  1
  O  O122  1  0.51105292  0.81144469  0.75067793  1
