# generated using pymatgen
data_Na5La3Si3Ge(SO8)3
_symmetry_space_group_name_H-M   'P 1'
_cell_length_a   9.57715787
_cell_length_b   9.34512057
_cell_length_c   23.65463334
_cell_angle_alpha   93.50592809
_cell_angle_beta   88.97880292
_cell_angle_gamma   119.58651381
_symmetry_Int_Tables_number   1
_chemical_formula_structural   Na5La3Si3Ge(SO8)3
_chemical_formula_sum   'Na15 La9 Si9 Ge3 S9 O72'
_cell_volume   1837.40637467
_cell_formula_units_Z   3
loop_
 _symmetry_equiv_pos_site_id
 _symmetry_equiv_pos_as_xyz
  1  'x, y, z'
loop_
 _atom_site_type_symbol
 _atom_site_label
 _atom_site_symmetry_multiplicity
 _atom_site_fract_x
 _atom_site_fract_y
 _atom_site_fract_z
 _atom_site_occupancy
  Na  Na0  1  0.65546807  0.01612182  0.26092607  1
  Na  Na1  1  0.99601601  0.62222039  0.25047684  1
  Na  Na2  1  0.65474278  0.66312464  0.74196023  1
  Na  Na3  1  0.35363727  0.99903662  0.76852205  1
  Na  Na4  1  0.66626393  0.94208478  0.57914267  1
  Na  Na5  1  0.98572067  0.68262199  0.91929454  1
  Na  Na6  1  0.69264650  0.02146896  0.91751290  1
  Na  Na7  1  0.96631281  0.32198689  0.40850351  1
  Na  Na8  1  0.69075043  0.67928347  0.43653200  1
  Na  Na9  1  0.00701983  0.96481778  0.50436603  1
  Na  Na10  1  0.00303893  0.97661890  0.99663252  1
  Na  Na11  1  0.64723077  0.31729778  0.83673483  1
  Na  Na12  1  0.66186811  0.31029459  0.34141531  1
  Na  Na13  1  0.27097776  0.61029599  0.16105145  1
  Na  Na14  1  0.31742286  0.61177658  0.68019195  1
  La  La15  1  0.99835236  0.00684370  0.35283551  1
  La  La16  1  0.01568559  0.02305658  0.84923126  1
  La  La17  1  0.00453904  0.01625367  0.65418396  1
  La  La18  1  0.00047242  0.99389746  0.14055612  1
  La  La19  1  0.65888555  0.33599770  0.68713400  1
  La  La20  1  0.67563624  0.33508941  0.17788611  1
  La  La21  1  0.32760049  0.66817123  0.01709335  1
  La  La22  1  0.33167632  0.66979913  0.51671779  1
  La  La23  1  0.31951670  0.66939723  0.32604977  1
  Si  Si24  1  0.99874708  0.30757256  0.25419127  1
  Si  Si25  1  0.30835355  0.33292622  0.75705828  1
  Si  Si26  1  0.68546665  0.99723160  0.75571084  1
  Si  Si27  1  0.67668914  0.63106084  0.58158068  1
  Si  Si28  1  0.94062370  0.61485941  0.07505232  1
  Si  Si29  1  0.64290557  0.66739495  0.91732729  1
  Si  Si30  1  0.35768923  0.97307510  0.91718902  1
  Si  Si31  1  0.64086894  0.99400958  0.42244324  1
  Si  Si32  1  0.00968829  0.65934498  0.41860656  1
  Ge  Ge33  1  0.64462953  0.35811764  0.97335756  1
  Ge  Ge34  1  0.70504446  0.36027689  0.48179607  1
  Ge  Ge35  1  0.41658226  0.70142566  0.81998333  1
  S  S36  1  0.30625099  0.99347079  0.24892826  1
  S  S37  1  0.68904425  0.70162371  0.25131736  1
  S  S38  1  0.02237834  0.70314130  0.75190618  1
  S  S39  1  0.95091890  0.32455549  0.57541852  1
  S  S40  1  0.36919801  0.05083201  0.58049847  1
  S  S41  1  0.67509933  0.02913549  0.07890174  1
  S  S42  1  0.37362557  0.32227894  0.07356434  1
  S  S43  1  0.00874198  0.37266004  0.91653737  1
  S  S44  1  0.35935024  0.36300432  0.41733245  1
  O  O45  1  0.22416946  0.00120954  0.30149074  1
  O  O46  1  0.77578403  0.77686607  0.30618608  1
  O  O47  1  0.99278930  0.22472253  0.31454897  1
  O  O48  1  0.23710533  0.18795869  0.80145885  1
  O  O49  1  0.99761195  0.76948873  0.80759921  1
  O  O50  1  0.78570358  0.01075881  0.81202833  1
  O  O51  1  0.76929923  0.96883791  0.69769962  1
  O  O52  1  0.19871123  0.26150137  0.69859476  1
  O  O53  1  0.02409216  0.81022127  0.70694522  1
  O  O54  1  0.78876859  0.79822915  0.20460098  1
  O  O55  1  0.99789163  0.18617829  0.20111826  1
  O  O56  1  0.21176787  0.98435811  0.19873824  1
  O  O57  1  0.86421671  0.33328359  0.62598721  1
  O  O58  1  0.43542174  0.12643939  0.63786558  1
  O  O59  1  0.67694452  0.54835934  0.63960303  1
  O  O60  1  0.86204111  0.55019217  0.13768603  1
  O  O61  1  0.68027300  0.10975970  0.13596620  1
  O  O62  1  0.45770709  0.31821502  0.12436243  1
  O  O63  1  0.45911478  0.31435073  0.01983539  1
  O  O64  1  0.80467026  0.48854928  0.02129776  1
  O  O65  1  0.66397997  0.11984388  0.03266671  1
  O  O66  1  0.46980915  0.14772781  0.53501839  1
  O  O67  1  0.67884001  0.50879414  0.52270063  1
  O  O68  1  0.86433506  0.32526902  0.52216339  1
  O  O69  1  0.54577049  0.69759213  0.96781552  1
  O  O70  1  0.09276806  0.45071218  0.97066274  1
  O  O71  1  0.31862278  0.86056262  0.96976603  1
  O  O72  1  0.55789248  0.85816451  0.47023693  1
  O  O73  1  0.33811407  0.44091608  0.47037269  1
  O  O74  1  0.13041741  0.66843667  0.46728700  1
  O  O75  1  0.07318914  0.62511039  0.35699775  1
  O  O76  1  0.54397815  0.92688880  0.36130729  1
  O  O77  1  0.36666440  0.46221266  0.36906203  1
  O  O78  1  0.10389636  0.45718598  0.86796925  1
  O  O79  1  0.40065872  0.87266418  0.85936521  1
  O  O80  1  0.54977599  0.65405928  0.85562803  1
  O  O81  1  0.96739867  0.80814554  0.41980278  1
  O  O82  1  0.82946228  0.03756863  0.41756407  1
  O  O83  1  0.21982652  0.19490803  0.41186015  1
  O  O84  1  0.96898523  0.19571247  0.91716972  1
  O  O85  1  0.20490079  0.99253171  0.90330759  1
  O  O86  1  0.82940645  0.81217439  0.91439539  1
  O  O87  1  0.94931138  0.16406909  0.57220288  1
  O  O88  1  0.20313151  0.02469144  0.57654376  1
  O  O89  1  0.83495913  0.81507093  0.57656583  1
  O  O90  1  0.96258350  0.79768901  0.06796704  1
  O  O91  1  0.82593815  0.01888760  0.07334743  1
  O  O92  1  0.21094488  0.17496711  0.06959935  1
  O  O93  1  0.63138426  0.13742273  0.75360702  1
  O  O94  1  0.49872749  0.38429564  0.74927105  1
  O  O95  1  0.88335614  0.53473362  0.74377533  1
  O  O96  1  0.66162224  0.53103890  0.24745500  1
  O  O97  1  0.83154189  0.32279144  0.25262894  1
  O  O98  1  0.47201052  0.13708565  0.24922078  1
  O  O99  1  0.63923230  0.48480956  0.91992816  1
  O  O100  1  0.85145755  0.37427148  0.91438994  1
  O  O101  1  0.53509011  0.15926478  0.92824252  1
  O  O102  1  0.64557957  0.17596861  0.43845773  1
  O  O103  1  0.51249010  0.36040252  0.41837254  1
  O  O104  1  0.83173362  0.48267295  0.42580311  1
  O  O105  1  0.36252218  0.47417982  0.07768922  1
  O  O106  1  0.11081425  0.61834306  0.07566397  1
  O  O107  1  0.53430759  0.86112029  0.08184042  1
  O  O108  1  0.36356590  0.88727391  0.58017735  1
  O  O109  1  0.51696636  0.65189636  0.57633447  1
  O  O110  1  0.11621080  0.46334122  0.57701719  1
  O  O111  1  0.31898239  0.83956972  0.24683896  1
  O  O112  1  0.53530660  0.70391444  0.25141767  1
  O  O113  1  0.15471569  0.49475421  0.25041179  1
  O  O114  1  0.30723592  0.51119926  0.77639395  1
  O  O115  1  0.17611012  0.70422636  0.75075989  1
  O  O116  1  0.51071368  0.81193369  0.75769360  1
