# generated using pymatgen
data_CaH2
_symmetry_space_group_name_H-M   'P 1'
_cell_length_a   3.56828652
_cell_length_b   5.89884487
_cell_length_c   6.77455253
_cell_angle_alpha   90.00000000
_cell_angle_beta   90.00000000
_cell_angle_gamma   90.00000000
_symmetry_Int_Tables_number   1
_chemical_formula_structural   CaH2
_chemical_formula_sum   'Ca4 H8'
_cell_volume   142.59598880
_cell_formula_units_Z   4
loop_
 _symmetry_equiv_pos_site_id
 _symmetry_equiv_pos_as_xyz
  1  'x, y, z'
loop_
 _atom_site_type_symbol
 _atom_site_label
 _atom_site_symmetry_multiplicity
 _atom_site_fract_x
 _atom_site_fract_y
 _atom_site_fract_z
 _atom_site_occupancy
  Ca  Ca0  1  0.25000000  0.73948903  0.38921790  1
  Ca  Ca1  1  0.75000000  0.26051097  0.61078210  1
  Ca  Ca2  1  0.25000000  0.23948903  0.11078210  1
  Ca  Ca3  1  0.75000000  0.76051097  0.88921790  1
  H  H4  1  0.25000000  0.47414221  0.82285509  1
  H  H5  1  0.75000000  0.52585779  0.17714491  1
  H  H6  1  0.25000000  0.97414221  0.67714491  1
  H  H7  1  0.75000000  0.02585779  0.32285509  1
  H  H8  1  0.75000000  0.64452886  0.57248197  1
  H  H9  1  0.25000000  0.35547114  0.42751803  1
  H  H10  1  0.75000000  0.14452886  0.92751803  1
  H  H11  1  0.25000000  0.85547114  0.07248197  1
