# generated using pymatgen
data_Na3LaZrSi(PO6)2
_symmetry_space_group_name_H-M   'P 1'
_cell_length_a   9.45169852
_cell_length_b   9.45169816
_cell_length_c   23.15414298
_cell_angle_alpha   89.89087736
_cell_angle_beta   90.10912264
_cell_angle_gamma   119.74602351
_symmetry_Int_Tables_number   1
_chemical_formula_structural   Na3LaZrSi(PO6)2
_chemical_formula_sum   'Na18 La6 Zr6 Si6 P12 O72'
_cell_volume   1795.90672500
_cell_formula_units_Z   6
loop_
 _symmetry_equiv_pos_site_id
 _symmetry_equiv_pos_as_xyz
  1  'x, y, z'
loop_
 _atom_site_type_symbol
 _atom_site_label
 _atom_site_symmetry_multiplicity
 _atom_site_fract_x
 _atom_site_fract_y
 _atom_site_fract_z
 _atom_site_occupancy
  Na  Na0  1  0.00249120  0.98966075  0.50002687  1
  Na  Na1  1  0.01033925  0.99750880  0.00002687  1
  Na  Na2  1  0.66654946  0.31879284  0.83369946  1
  Na  Na3  1  0.68120716  0.33345054  0.33369946  1
  Na  Na4  1  0.34803085  0.67633877  0.16685525  1
  Na  Na5  1  0.32366123  0.65196915  0.66685525  1
  Na  Na6  1  0.36198383  0.35977114  0.24686585  1
  Na  Na7  1  0.99741528  0.63622620  0.24563330  1
  Na  Na8  1  0.64022886  0.63801617  0.74686585  1
  Na  Na9  1  0.36377380  0.00258472  0.74563330  1
  Na  Na10  1  0.04243082  0.70361030  0.57791869  1
  Na  Na11  1  0.65232049  0.96933019  0.58471206  1
  Na  Na12  1  0.29638970  0.95756918  0.07791869  1
  Na  Na13  1  0.03066981  0.34767951  0.08471206  1
  Na  Na14  1  0.98066715  0.68057030  0.91856325  1
  Na  Na15  1  0.69211028  0.02553793  0.91039788  1
  Na  Na16  1  0.97446207  0.30788972  0.41039788  1
  Na  Na17  1  0.31942970  0.01933285  0.41856325  1
  La  La18  1  0.98018587  0.98795203  0.34826677  1
  La  La19  1  0.01204797  0.01981413  0.84826677  1
  La  La20  1  0.67100928  0.32651102  0.68231904  1
  La  La21  1  0.67348898  0.32899072  0.18231904  1
  La  La22  1  0.33829794  0.66195346  0.01442025  1
  La  La23  1  0.33804654  0.66170206  0.51442025  1
  Zr  Zr24  1  0.00638476  0.00986910  0.64929344  1
  Zr  Zr25  1  0.99013090  0.99361524  0.14929344  1
  Zr  Zr26  1  0.66180452  0.33895235  0.98268262  1
  Zr  Zr27  1  0.66104765  0.33819548  0.48268262  1
  Zr  Zr28  1  0.33050891  0.66487695  0.31615602  1
  Zr  Zr29  1  0.33512305  0.66949109  0.81615602  1
  Si  Si30  1  0.01396792  0.31078610  0.25214926  1
  Si  Si31  1  0.68921390  0.98603208  0.75214926  1
  Si  Si32  1  0.35837491  0.03549090  0.58368579  1
  Si  Si33  1  0.96450910  0.64162509  0.08368579  1
  Si  Si34  1  0.34409013  0.97337874  0.91894398  1
  Si  Si35  1  0.02662126  0.65590987  0.41894398  1
  P  P36  1  0.28830800  0.98700895  0.25088977  1
  P  P37  1  0.68847659  0.70178469  0.24759983  1
  P  P38  1  0.29821531  0.31152341  0.74759983  1
  P  P39  1  0.01299105  0.71169200  0.75088977  1
  P  P40  1  0.95906563  0.31932876  0.57983072  1
  P  P41  1  0.68468541  0.64356845  0.58651797  1
  P  P42  1  0.68067124  0.04093437  0.07983072  1
  P  P43  1  0.35643155  0.31531459  0.08651797  1
  P  P44  1  0.63132537  0.65489665  0.91279353  1
  P  P45  1  0.02198681  0.37511190  0.91900785  1
  P  P46  1  0.62488810  0.97801319  0.41900785  1
  P  P47  1  0.34510335  0.36867463  0.41279353  1
  O  O48  1  0.21513026  0.00788074  0.30694917  1
  O  O49  1  0.79251115  0.76160435  0.30214149  1
  O  O50  1  0.99947914  0.21961747  0.31262278  1
  O  O51  1  0.23839565  0.20748885  0.80214149  1
  O  O52  1  0.99211926  0.78486974  0.80694917  1
  O  O53  1  0.78038253  0.00052086  0.81262278  1
  O  O54  1  0.79873416  0.97392066  0.69631740  1
  O  O55  1  0.18345310  0.20898746  0.69592200  1
  O  O56  1  0.03516132  0.82997074  0.69853520  1
  O  O57  1  0.79101254  0.81654690  0.19592200  1
  O  O58  1  0.02607934  0.20126584  0.19631740  1
  O  O59  1  0.17002926  0.96483868  0.19853520  1
  O  O60  1  0.88878265  0.35208913  0.63414070  1
  O  O61  1  0.46123834  0.10656365  0.64280960  1
  O  O62  1  0.66381691  0.55650802  0.64393475  1
  O  O63  1  0.89343635  0.53876166  0.14280960  1
  O  O64  1  0.64791087  0.11121735  0.13414070  1
  O  O65  1  0.44349198  0.33618309  0.14393475  1
  O  O66  1  0.46302466  0.30530765  0.03532992  1
  O  O67  1  0.84322099  0.53430313  0.02784520  1
  O  O68  1  0.69906440  0.15522878  0.02701134  1
  O  O69  1  0.46569687  0.15677901  0.52784520  1
  O  O70  1  0.69469235  0.53697534  0.53532992  1
  O  O71  1  0.84477122  0.30093560  0.52701134  1
  O  O72  1  0.55966798  0.68851632  0.96664010  1
  O  O73  1  0.10664699  0.43617915  0.97708520  1
  O  O74  1  0.32196002  0.87394372  0.97837754  1
  O  O75  1  0.56382085  0.89335301  0.47708520  1
  O  O76  1  0.31148368  0.44033202  0.46664010  1
  O  O77  1  0.12605628  0.67803998  0.47837754  1
  O  O78  1  0.13622656  0.63657362  0.36369666  1
  O  O79  1  0.51065031  0.86927800  0.36862994  1
  O  O80  1  0.36297173  0.47952110  0.35918945  1
  O  O81  1  0.13072200  0.48934969  0.86862994  1
  O  O82  1  0.36342638  0.86377344  0.86369666  1
  O  O83  1  0.52047890  0.63702827  0.85918945  1
  O  O84  1  0.01661909  0.82223379  0.41395990  1
  O  O85  1  0.80508812  0.02145822  0.41348405  1
  O  O86  1  0.20083423  0.19281286  0.40793394  1
  O  O87  1  0.97854178  0.19491188  0.91348405  1
  O  O88  1  0.17776621  0.98338091  0.91395990  1
  O  O89  1  0.80718713  0.79916577  0.90793394  1
  O  O90  1  0.95530670  0.15145179  0.58569136  1
  O  O91  1  0.17512171  0.01967361  0.58788430  1
  O  O92  1  0.85173260  0.80930749  0.58632483  1
  O  O93  1  0.98032639  0.82487829  0.08788430  1
  O  O94  1  0.84854821  0.04469330  0.08569136  1
  O  O95  1  0.19069251  0.14826740  0.08632483  1
  O  O96  1  0.64600685  0.13302110  0.75017019  1
  O  O97  1  0.47547661  0.34794574  0.74056847  1
  O  O98  1  0.86027204  0.54363203  0.74414738  1
  O  O99  1  0.65205426  0.52452339  0.24056847  1
  O  O100  1  0.86697890  0.35399315  0.25017019  1
  O  O101  1  0.45636797  0.13972796  0.24414738  1
  O  O102  1  0.63946998  0.49402440  0.91932676  1
  O  O103  1  0.85720195  0.37968067  0.91831911  1
  O  O104  1  0.51869901  0.14982482  0.92144475  1
  O  O105  1  0.62031933  0.14279805  0.41831911  1
  O  O106  1  0.50597560  0.36053002  0.41932676  1
  O  O107  1  0.85017518  0.48130099  0.42144475  1
  O  O108  1  0.31665978  0.45359101  0.07993812  1
  O  O109  1  0.14933188  0.66696915  0.07976634  1
  O  O110  1  0.53666163  0.86741366  0.07485180  1
  O  O111  1  0.33303085  0.85066812  0.57976634  1
  O  O112  1  0.54640899  0.68334022  0.57993812  1
  O  O113  1  0.13258634  0.46333837  0.57485180  1
  O  O114  1  0.29719238  0.82544325  0.25386499  1
  O  O115  1  0.52407211  0.70086621  0.25264409  1
  O  O116  1  0.19178650  0.48979328  0.25327172  1
  O  O117  1  0.29913379  0.47592789  0.75264409  1
  O  O118  1  0.17455675  0.70280762  0.75386499  1
  O  O119  1  0.51020672  0.80821350  0.75327172  1
