# generated using pymatgen
data_Na6Zr4Al4Si5S7O48
_symmetry_space_group_name_H-M   'P 1'
_cell_length_a   17.61787733
_cell_length_b   8.83029877
_cell_length_c   22.58351568
_cell_angle_alpha   90.10600188
_cell_angle_beta   89.51911702
_cell_angle_gamma   120.28769640
_symmetry_Int_Tables_number   1
_chemical_formula_structural   Na6Zr4Al4Si5S7O48
_chemical_formula_sum   'Na18 Zr12 Al12 Si15 S21 O144'
_cell_volume   3033.66674071
_cell_formula_units_Z   3
loop_
 _symmetry_equiv_pos_site_id
 _symmetry_equiv_pos_as_xyz
  1  'x, y, z'
loop_
 _atom_site_type_symbol
 _atom_site_label
 _atom_site_symmetry_multiplicity
 _atom_site_fract_x
 _atom_site_fract_y
 _atom_site_fract_z
 _atom_site_occupancy
  Na  Na0  1  0.00138095  0.62625112  0.25901594  1
  Na  Na1  1  0.49550638  0.65366472  0.25221495  1
  Na  Na2  1  0.99459343  0.34275095  0.74870262  1
  Na  Na3  1  0.50262128  0.36319360  0.75320918  1
  Na  Na4  1  0.66363115  0.29926139  0.91689701  1
  Na  Na5  1  0.16433065  0.02772698  0.43346716  1
  Na  Na6  1  -0.00020418  0.99201158  0.50251327  1
  Na  Na7  1  0.50940617  0.98978694  0.50173488  1
  Na  Na8  1  0.01032469  0.02545112  0.99662284  1
  Na  Na9  1  0.50418269  0.01855126  0.99643419  1
  Na  Na10  1  0.33025817  0.31879790  0.83075273  1
  Na  Na11  1  0.82588762  0.32386413  0.82574228  1
  Na  Na12  1  0.33527011  0.34248675  0.32939744  1
  Na  Na13  1  0.82608833  0.33648796  0.33208521  1
  Na  Na14  1  0.19279671  0.66089961  0.17287602  1
  Na  Na15  1  0.68034961  0.65418229  0.16617915  1
  Na  Na16  1  0.18226939  0.70917729  0.66771548  1
  Na  Na17  1  0.69060510  0.70220982  0.67742035  1
  Zr  Zr18  1  0.50087330  0.01907926  0.34892587  1
  Zr  Zr19  1  0.00105998  0.98097566  0.84871202  1
  Zr  Zr20  1  0.00208056  0.98654525  0.64996157  1
  Zr  Zr21  1  0.50347130  0.99866920  0.64432305  1
  Zr  Zr22  1  0.99649296  0.00623321  0.13956154  1
  Zr  Zr23  1  0.50097273  0.01848501  0.14903563  1
  Zr  Zr24  1  0.32933329  0.32981348  0.97112944  1
  Zr  Zr25  1  0.83094726  0.33303861  0.47183078  1
  Zr  Zr26  1  0.16605060  0.66467727  0.02171564  1
  Zr  Zr27  1  0.66286220  0.65166561  0.02421988  1
  Zr  Zr28  1  0.16222154  0.67337130  0.52542957  1
  Zr  Zr29  1  0.66643507  0.66618560  0.52326535  1
  Al  Al30  1  0.00094363  0.99448877  0.35166683  1
  Al  Al31  1  0.50277611  0.01552349  0.84977596  1
  Al  Al32  1  0.32222739  0.34298381  0.67621902  1
  Al  Al33  1  0.82143081  0.30899816  0.69909501  1
  Al  Al34  1  0.33168931  0.35146446  0.19253166  1
  Al  Al35  1  0.81895303  0.30465963  0.17399870  1
  Al  Al36  1  0.82567803  0.31156685  0.98306964  1
  Al  Al37  1  0.33533915  0.34752704  0.48996543  1
  Al  Al38  1  0.17243709  0.66564421  0.31863349  1
  Al  Al39  1  0.66337492  0.64385704  0.31460168  1
  Al  Al40  1  0.16498116  0.68580973  0.81345850  1
  Al  Al41  1  0.66818026  0.65248906  0.81073771  1
  Si  Si42  1  0.34600889  0.70459986  0.25305609  1
  Si  Si43  1  0.50111747  0.32006479  0.24746883  1
  Si  Si44  1  0.64545228  0.29418168  0.75326002  1
  Si  Si45  1  0.00313406  0.68439212  0.74634596  1
  Si  Si46  1  0.84716985  0.98934852  0.75397062  1
  Si  Si47  1  0.19120010  0.06124999  0.58151665  1
  Si  Si48  1  0.69882850  0.05663424  0.58745077  1
  Si  Si49  1  0.33431230  0.62335695  0.58082911  1
  Si  Si50  1  0.83030840  0.04877859  0.08045248  1
  Si  Si51  1  0.19801570  0.34227554  0.08728947  1
  Si  Si52  1  0.68963775  0.32343858  0.08021042  1
  Si  Si53  1  0.52390430  0.37472860  0.90867432  1
  Si  Si54  1  0.16148023  0.95079618  0.91599292  1
  Si  Si55  1  0.66253993  0.37246475  0.41522704  1
  Si  Si56  1  0.02625272  0.67468602  0.40632296  1
  S  S57  1  0.14557428  0.00217435  0.25164807  1
  S  S58  1  0.65914565  0.01184100  0.25120432  1
  S  S59  1  0.85288495  0.70799729  0.25376256  1
  S  S60  1  0.99879935  0.28443323  0.25571044  1
  S  S61  1  0.15913482  0.30795292  0.75187453  1
  S  S62  1  0.49528230  0.70503787  0.75517885  1
  S  S63  1  0.35070860  0.99549414  0.75295250  1
  S  S64  1  0.46946854  0.33412517  0.58612938  1
  S  S65  1  0.97294012  0.32432291  0.58578635  1
  S  S66  1  0.83430546  0.61808357  0.58474942  1
  S  S67  1  0.47277774  0.61774986  0.08770942  1
  S  S68  1  0.96911099  0.60076478  0.08747454  1
  S  S69  1  0.33203282  0.05207548  0.08618218  1
  S  S70  1  0.31306368  0.68207926  0.90753942  1
  S  S71  1  0.81268986  0.65735547  0.91777907  1
  S  S72  1  0.01318463  0.37381833  0.91576079  1
  S  S73  1  0.66625848  0.95746969  0.91437637  1
  S  S74  1  0.31160911  0.96102066  0.41611232  1
  S  S75  1  0.81282060  0.94470188  0.40758527  1
  S  S76  1  0.16430301  0.37076823  0.41146936  1
  S  S77  1  0.51547028  0.65389878  0.41526400  1
  O  O78  1  0.10375229  0.02774429  0.30594743  1
  O  O79  1  0.61926046  0.04404374  0.30477315  1
  O  O80  1  0.41654081  0.79347130  0.30782322  1
  O  O81  1  0.91341911  0.80653179  0.30324412  1
  O  O82  1  0.48560637  0.19004766  0.30413421  1
  O  O83  1  0.98962093  0.17033880  0.30661148  1
  O  O84  1  0.11922815  0.19559042  0.80525812  1
  O  O85  1  0.59853793  0.17031378  0.81173801  1
  O  O86  1  0.48073346  0.79116151  0.80698916  1
  O  O87  1  0.98841764  0.78220251  0.80390401  1
  O  O88  1  0.41004058  0.01784804  0.80290075  1
  O  O89  1  0.91852745  0.03754067  0.80820885  1
  O  O90  1  0.38326336  0.96518373  0.69634831  1
  O  O91  1  0.89845220  0.96158039  0.69632312  1
  O  O92  1  0.09938668  0.23095060  0.70015866  1
  O  O93  1  0.57333914  0.19892623  0.69906134  1
  O  O94  1  0.02951328  0.82597472  0.69146304  1
  O  O95  1  0.50084733  0.80161391  0.69959208  1
  O  O96  1  0.39679700  0.83060450  0.19535391  1
  O  O97  1  0.88926070  0.80392334  0.19746183  1
  O  O98  1  0.00383428  0.19893292  0.19996304  1
  O  O99  1  0.52590508  0.23200068  0.19186226  1
  O  O100  1  0.08627595  0.97020498  0.20072981  1
  O  O101  1  0.59904805  0.96905197  0.19984325  1
  O  O102  1  0.42831251  0.34845261  0.64202661  1
  O  O103  1  0.93434840  0.34125269  0.64081827  1
  O  O104  1  0.24766424  0.15025656  0.64061468  1
  O  O105  1  0.75587381  0.16062926  0.64319042  1
  O  O106  1  0.32966602  0.52297669  0.64203611  1
  O  O107  1  0.83164108  0.52393294  0.63751547  1
  O  O108  1  0.43260210  0.52180457  0.14338669  1
  O  O109  1  0.92802666  0.50570208  0.14431786  1
  O  O110  1  0.32993596  0.14311028  0.13942259  1
  O  O111  1  0.83083863  0.14044832  0.14300041  1
  O  O112  1  0.25267089  0.34764593  0.14412462  1
  O  O113  1  0.74499601  0.34804034  0.14016363  1
  O  O114  1  0.23799045  0.32948971  0.02367043  1
  O  O115  1  0.73645161  0.31705160  0.01849312  1
  O  O116  1  0.42376548  0.52707359  0.03428074  1
  O  O117  1  0.91766707  0.51794169  0.03430028  1
  O  O118  1  0.33830916  0.14431752  0.03021554  1
  O  O119  1  0.84613534  0.16435792  0.02157375  1
  O  O120  1  0.23950765  0.16058336  0.51880074  1
  O  O121  1  0.74046919  0.14993831  0.52346901  1
  O  O122  1  0.34890145  0.53729662  0.52109828  1
  O  O123  1  0.84068183  0.53889914  0.52819248  1
  O  O124  1  0.41933773  0.32032069  0.53218338  1
  O  O125  1  0.92572331  0.31970545  0.53128057  1
  O  O126  1  0.27430535  0.70051165  0.96468818  1
  O  O127  1  0.77460221  0.68053440  0.97335162  1
  O  O128  1  0.07055754  0.46467509  0.96857814  1
  O  O129  1  0.58554676  0.46038319  0.96748334  1
  O  O130  1  0.15971688  0.85043332  0.97788521  1
  O  O131  1  0.65783297  0.86006559  0.96945618  1
  O  O132  1  0.27363576  0.86438241  0.47193874  1
  O  O133  1  0.77519269  0.84927638  0.46428726  1
  O  O134  1  0.15109052  0.44550205  0.46601949  1
  O  O135  1  0.65942549  0.47054535  0.47613894  1
  O  O136  1  0.08959388  0.71678187  0.46400804  1
  O  O137  1  0.57197934  0.67823513  0.46754316  1
  O  O138  1  0.07541030  0.65155247  0.34813278  1
  O  O139  1  0.55970665  0.64737989  0.35935554  1
  O  O140  1  0.25553349  0.86670952  0.36470101  1
  O  O141  1  0.75441299  0.85106512  0.35752564  1
  O  O142  1  0.17836254  0.48515255  0.35953301  1
  O  O143  1  0.66560396  0.48321653  0.35757111  1
  O  O144  1  0.05778777  0.46859188  0.86036784  1
  O  O145  1  0.57432238  0.49995690  0.85256149  1
  O  O146  1  0.16446881  0.84302777  0.85954325  1
  O  O147  1  0.68016625  0.87634102  0.86213641  1
  O  O148  1  0.25411196  0.65753652  0.85789446  1
  O  O149  1  0.75649092  0.63235977  0.86627836  1
  O  O150  1  0.01621194  0.85188518  0.40039002  1
  O  O151  1  0.50208188  0.80574622  0.41337545  1
  O  O152  1  0.39923446  0.97696530  0.41114782  1
  O  O153  1  0.90123180  0.96327743  0.40059648  1
  O  O154  1  0.08341430  0.19267565  0.40336641  1
  O  O155  1  0.57753000  0.17312783  0.41645282  1
  O  O156  1  0.00016266  0.19511593  0.91516452  1
  O  O157  1  0.50949564  0.17450974  0.90511307  1
  O  O158  1  0.07731372  0.98057095  0.91732030  1
  O  O159  1  0.58521508  0.97384468  0.91029400  1
  O  O160  1  0.40111149  0.83878190  0.90107927  1
  O  O161  1  0.90054879  0.81688316  0.91258013  1
  O  O162  1  0.47873473  0.17739126  0.58736671  1
  O  O163  1  0.98147269  0.16521316  0.58534000  1
  O  O164  1  0.09425930  0.04539868  0.58328595  1
  O  O165  1  0.59922788  0.03167971  0.58992350  1
  O  O166  1  0.41541107  0.82656403  0.58509279  1
  O  O167  1  0.91304649  0.80051228  0.58377866  1
  O  O168  1  0.48127290  0.79319788  0.08863360  1
  O  O169  1  0.98136474  0.78018710  0.09170588  1
  O  O170  1  0.41101762  0.02848428  0.08571301  1
  O  O171  1  0.91432447  0.01314177  0.08454495  1
  O  O172  1  0.09827653  0.16556347  0.09129834  1
  O  O173  1  0.59283055  0.14305592  0.08373732  1
  O  O174  1  0.34653159  0.15970878  0.75017725  1
  O  O175  1  0.84241414  0.16569889  0.74571032  1
  O  O176  1  0.24519560  0.31731497  0.74222881  1
  O  O177  1  0.74131316  0.31937341  0.74497702  1
  O  O178  1  0.41932089  0.51993051  0.75036548  1
  O  O179  1  0.91673918  0.49824331  0.73531185  1
  O  O180  1  0.33699625  0.51265909  0.24539362  1
  O  O181  1  0.84783779  0.53487471  0.25158480  1
  O  O182  1  0.41256235  0.33013772  0.23834378  1
  O  O183  1  0.92229105  0.31119102  0.25451565  1
  O  O184  1  0.23335364  0.15962438  0.24536090  1
  O  O185  1  0.74542477  0.17590876  0.24150587  1
  O  O186  1  0.32223147  0.52322386  0.91069434  1
  O  O187  1  0.82246232  0.49847900  0.92105949  1
  O  O188  1  0.43032267  0.36737946  0.91726413  1
  O  O189  1  0.92857016  0.37242762  0.92257078  1
  O  O190  1  0.25024391  0.14599506  0.91509830  1
  O  O191  1  0.74474037  0.14483268  0.91906713  1
  O  O192  1  0.32034604  0.13752352  0.41725193  1
  O  O193  1  0.82379877  0.12292364  0.41012850  1
  O  O194  1  0.24126358  0.34372092  0.41496285  1
  O  O195  1  0.75104797  0.35522181  0.41501920  1
  O  O196  1  0.43004033  0.48436069  0.42149491  1
  O  O197  1  0.93169869  0.49684259  0.41442324  1
  O  O198  1  0.18556427  0.51518585  0.08311584  1
  O  O199  1  0.67448617  0.49306387  0.08015484  1
  O  O200  1  0.05760939  0.61715819  0.08382864  1
  O  O201  1  0.56175052  0.63595927  0.08447660  1
  O  O202  1  0.25154653  0.87226018  0.08557546  1
  O  O203  1  0.74166595  0.85737534  0.07755697  1
  O  O204  1  0.17491380  0.85962762  0.57964884  1
  O  O205  1  0.68636879  0.85806887  0.58139417  1
  O  O206  1  0.24238528  0.62692697  0.57463942  1
  O  O207  1  0.75369715  0.63657061  0.58331086  1
  O  O208  1  0.06331527  0.48376007  0.58128707  1
  O  O209  1  0.55823352  0.49544697  0.58216765  1
  O  O210  1  0.15356047  0.84299556  0.25590035  1
  O  O211  1  0.67154029  0.86072815  0.26095552  1
  O  O212  1  0.25172749  0.69303591  0.26400756  1
  O  O213  1  0.76446219  0.68746719  0.26138839  1
  O  O214  1  0.08049375  0.45768243  0.25833129  1
  O  O215  1  0.58470457  0.52031298  0.25700394  1
  O  O216  1  0.17166010  0.48441685  0.76163496  1
  O  O217  1  0.65233623  0.48709676  0.75696504  1
  O  O218  1  0.08655037  0.65199688  0.75637739  1
  O  O219  1  0.57710240  0.69822879  0.75917334  1
  O  O220  1  0.26128894  0.84051201  0.76202415  1
  O  O221  1  0.75281323  0.82019169  0.76659497  1
