# generated using pymatgen
data_Sr2MgZnWO6
_symmetry_space_group_name_H-M   'P 1'
_cell_length_a   6.41398287
_cell_length_b   6.41398274
_cell_length_c   6.41398298
_cell_angle_alpha   55.50233064
_cell_angle_beta   55.50233124
_cell_angle_gamma   55.50232744
_symmetry_Int_Tables_number   1
_chemical_formula_structural   Sr2MgZnWO6
_chemical_formula_sum   'Sr2 Mg1 Zn1 W1 O6'
_cell_volume   167.09732160
_cell_formula_units_Z   1
loop_
 _symmetry_equiv_pos_site_id
 _symmetry_equiv_pos_as_xyz
  1  'x, y, z'
loop_
 _atom_site_type_symbol
 _atom_site_label
 _atom_site_symmetry_multiplicity
 _atom_site_fract_x
 _atom_site_fract_y
 _atom_site_fract_z
 _atom_site_occupancy
  Sr  Sr0  1  0.21869218  0.21869218  0.21869218  1
  Sr  Sr1  1  0.80764547  0.80764547  0.80764547  1
  Mg  Mg2  1  0.58567837  0.58567837  0.58567837  1
  Zn  Zn3  1  0.41488874  0.41488874  0.41488874  1
  W  W4  1  0.01259331  0.01259331  0.01259331  1
  O  O5  1  0.23892611  0.77833597  0.77833597  1
  O  O6  1  0.25247256  0.79091076  0.25247256  1
  O  O7  1  0.77833597  0.23892611  0.77833597  1
  O  O8  1  0.25247256  0.25247256  0.79091076  1
  O  O9  1  0.79091076  0.25247256  0.25247256  1
  O  O10  1  0.77833597  0.77833597  0.23892611  1
