# generated using pymatgen
data_Na3YBr6
_symmetry_space_group_name_H-M   'P 1'
_cell_length_a   7.66833998
_cell_length_b   7.17185549
_cell_length_c   12.84159720
_cell_angle_alpha   56.83916228
_cell_angle_beta   90.00000000
_cell_angle_gamma   90.00000000
_symmetry_Int_Tables_number   1
_chemical_formula_structural   Na3YBr6
_chemical_formula_sum   'Na6 Y2 Br12'
_cell_volume   591.22009660
_cell_formula_units_Z   2
loop_
 _symmetry_equiv_pos_site_id
 _symmetry_equiv_pos_as_xyz
  1  'x, y, z'
loop_
 _atom_site_type_symbol
 _atom_site_label
 _atom_site_symmetry_multiplicity
 _atom_site_fract_x
 _atom_site_fract_y
 _atom_site_fract_z
 _atom_site_occupancy
  Na  Na0  1  0.50000000  0.50000000  0.00000000  1
  Na  Na1  1  0.58565120  0.70649800  0.26370126  1
  Na  Na2  1  0.08565120  0.29350200  0.23629874  1
  Na  Na3  1  0.00000000  0.50000000  0.50000000  1
  Na  Na4  1  0.91434880  0.70649800  0.76370126  1
  Na  Na5  1  0.41434880  0.29350200  0.73629874  1
  Y  Y6  1  0.50000000  -0.00000000  0.50000000  1
  Y  Y7  1  0.00000000  -0.00000000  0.00000000  1
  Br  Br8  1  0.68059240  0.61552170  0.56541546  1
  Br  Br9  1  0.18059240  0.38447830  0.93458454  1
  Br  Br10  1  0.30763888  0.74991624  0.08097651  1
  Br  Br11  1  0.80763888  0.25008376  0.41902349  1
  Br  Br12  1  0.69236112  0.25008376  0.91902349  1
  Br  Br13  1  0.19236112  0.74991624  0.58097651  1
  Br  Br14  1  0.06293679  0.09651082  0.75937395  1
  Br  Br15  1  0.56293679  0.90348918  0.74062605  1
  Br  Br16  1  0.93706321  0.90348918  0.24062605  1
  Br  Br17  1  0.43706321  0.09651082  0.25937395  1
  Br  Br18  1  0.81940760  0.61552170  0.06541546  1
  Br  Br19  1  0.31940760  0.38447830  0.43458454  1
