# generated using pymatgen
data_MgCd2(WO4)2
_symmetry_space_group_name_H-M   'P 1'
_cell_length_a   5.29990852
_cell_length_b   5.15289421
_cell_length_c   6.36569861
_cell_angle_alpha   90.00000000
_cell_angle_beta   90.00000000
_cell_angle_gamma   93.19185922
_symmetry_Int_Tables_number   1
_chemical_formula_structural   MgCd2(WO4)2
_chemical_formula_sum   'Mg1 Cd2 W2 O8'
_cell_volume   173.57669785
_cell_formula_units_Z   1
loop_
 _symmetry_equiv_pos_site_id
 _symmetry_equiv_pos_as_xyz
  1  'x, y, z'
loop_
 _atom_site_type_symbol
 _atom_site_label
 _atom_site_symmetry_multiplicity
 _atom_site_fract_x
 _atom_site_fract_y
 _atom_site_fract_z
 _atom_site_occupancy
  Mg  Mg0  1  0.50000000  0.75000000  0.91594314  1
  Cd  Cd1  1  0.50000000  0.25000000  0.63313761  1
  Cd  Cd2  1  0.50000000  0.75000000  0.35617493  1
  W  W3  1  0.00000000  0.25000000  0.15652778  1
  W  W4  1  0.00000000  0.75000000  0.83794656  1
  O  O5  1  0.75411124  0.11338464  0.35415979  1
  O  O6  1  0.24588876  0.38661536  0.35415979  1
  O  O7  1  0.27639510  0.87387756  0.65861566  1
  O  O8  1  0.72360490  0.62612244  0.65861566  1
  O  O9  1  0.78308969  0.04271064  0.90771175  1
  O  O10  1  0.21691031  0.45728936  0.90771175  1
  O  O11  1  0.21439169  0.94356711  0.08277278  1
  O  O12  1  0.78560831  0.55643289  0.08277278  1
