# generated using pymatgen
data_Na2InGaSi(SO6)2
_symmetry_space_group_name_H-M   'P 1'
_cell_length_a   8.87720943
_cell_length_b   8.90688388
_cell_length_c   22.67839073
_cell_angle_alpha   89.75543407
_cell_angle_beta   89.45505113
_cell_angle_gamma   119.95268818
_symmetry_Int_Tables_number   1
_chemical_formula_structural   Na2InGaSi(SO6)2
_chemical_formula_sum   'Na12 In6 Ga6 Si6 S12 O72'
_cell_volume   1553.49122963
_cell_formula_units_Z   6
loop_
 _symmetry_equiv_pos_site_id
 _symmetry_equiv_pos_as_xyz
  1  'x, y, z'
loop_
 _atom_site_type_symbol
 _atom_site_label
 _atom_site_symmetry_multiplicity
 _atom_site_fract_x
 _atom_site_fract_y
 _atom_site_fract_z
 _atom_site_occupancy
  Na  Na0  1  0.00053452  0.62854471  0.25091111  1
  Na  Na1  1  0.37600684  0.00223809  0.74978871  1
  Na  Na2  1  0.66236239  0.96646857  0.59016387  1
  Na  Na3  1  0.03103075  0.33715508  0.09163839  1
  Na  Na4  1  0.98235297  0.67604274  0.92424712  1
  Na  Na5  1  0.32495846  0.02152395  0.42128847  1
  Na  Na6  1  0.00765398  0.99013162  0.50038700  1
  Na  Na7  1  0.01184904  0.98796394  0.00114949  1
  Na  Na8  1  0.66128565  0.31083918  0.83228842  1
  Na  Na9  1  0.68170399  0.33655573  0.33501822  1
  Na  Na10  1  0.33469370  0.66364366  0.16936932  1
  Na  Na11  1  0.33491855  0.66633297  0.66594297  1
  In  In12  1  0.99849626  0.00589808  0.84795136  1
  In  In13  1  0.00117849  0.99355582  0.15279643  1
  In  In14  1  0.66022240  0.32950888  0.98285725  1
  In  In15  1  0.32788943  0.68132889  0.01960627  1
  In  In16  1  0.31758955  0.67527635  0.51639826  1
  In  In17  1  0.35375530  0.68494598  0.81284586  1
  Ga  Ga18  1  0.98328827  0.99223197  0.34936631  1
  Ga  Ga19  1  0.01041744  0.00113377  0.64875443  1
  Ga  Ga20  1  0.66652621  0.31675050  0.68236837  1
  Ga  Ga21  1  0.68737604  0.32869112  0.18745498  1
  Ga  Ga22  1  0.66866586  0.34590621  0.48411907  1
  Ga  Ga23  1  0.30022111  0.63329701  0.31831428  1
  Si  Si24  1  0.00026518  0.28768672  0.25107182  1
  Si  Si25  1  0.71782156  0.00774338  0.74348929  1
  Si  Si26  1  0.37343329  0.05182359  0.58304052  1
  Si  Si27  1  0.95508797  0.62782413  0.08433662  1
  Si  Si28  1  0.33389311  0.97320662  0.91302360  1
  Si  Si29  1  0.02276639  0.66609472  0.41397387  1
  S  S30  1  0.30653626  0.00336052  0.25233832  1
  S  S31  1  0.69311808  0.69950079  0.25307524  1
  S  S32  1  0.30020547  0.29867484  0.74636986  1
  S  S33  1  0.98944250  0.69585665  0.74678688  1
  S  S34  1  0.95514501  0.33227198  0.58335315  1
  S  S35  1  0.66927028  0.62092471  0.58459866  1
  S  S36  1  0.66552197  0.03936079  0.08628484  1
  S  S37  1  0.37718598  0.33563816  0.08647012  1
  S  S38  1  0.62665029  0.66509563  0.91763195  1
  S  S39  1  0.04359219  0.37226643  0.91699204  1
  S  S40  1  0.62726218  0.95683051  0.41497918  1
  S  S41  1  0.33292251  0.37396185  0.41652176  1
  O  O42  1  0.22620388  0.03166298  0.30561408  1
  O  O43  1  0.81715194  0.78032639  0.30290139  1
  O  O44  1  0.97422107  0.16113909  0.30688445  1
  O  O45  1  0.23328666  0.19032359  0.80088057  1
  O  O46  1  0.96335429  0.76342374  0.80356280  1
  O  O47  1  0.82096404  0.03444176  0.80430893  1
  O  O48  1  0.81372140  0.98279502  0.68472251  1
  O  O49  1  0.18917948  0.21246077  0.69514266  1
  O  O50  1  0.03063553  0.82220622  0.69742386  1
  O  O51  1  0.76402636  0.80255308  0.19812873  1
  O  O52  1  0.03012654  0.21776439  0.18829236  1
  O  O53  1  0.19039647  0.95864600  0.20041318  1
  O  O54  1  0.87912141  0.36397158  0.63724240  1
  O  O55  1  0.49477972  0.13558283  0.64104730  1
  O  O56  1  0.64942669  0.51581917  0.63765514  1
  O  O57  1  0.86071217  0.50240593  0.14291119  1
  O  O58  1  0.63590400  0.12152617  0.13880231  1
  O  O59  1  0.48087686  0.34780352  0.13875618  1
  O  O60  1  0.44650688  0.30849360  0.03087881  1
  O  O61  1  0.85601490  0.54745007  0.02206070  1
  O  O62  1  0.69090040  0.13980253  0.03151680  1
  O  O63  1  0.46702484  0.16574566  0.52156246  1
  O  O64  1  0.69650230  0.54570369  0.52988278  1
  O  O65  1  0.84763982  0.30852749  0.53057703  1
  O  O66  1  0.54081501  0.67865366  0.97163298  1
  O  O67  1  0.14131038  0.44605223  0.97220844  1
  O  O68  1  0.28667271  0.84368292  0.96977175  1
  O  O69  1  0.56149503  0.85803771  0.47191802  1
  O  O70  1  0.30859675  0.45268366  0.47045082  1
  O  O71  1  0.15520836  0.72749228  0.46950222  1
  O  O72  1  0.11176414  0.63290801  0.35484133  1
  O  O73  1  0.50985330  0.86500399  0.36527843  1
  O  O74  1  0.36447418  0.48615615  0.36343222  1
  O  O75  1  0.13282572  0.48084223  0.86424085  1
  O  O76  1  0.35800525  0.89335515  0.85096552  1
  O  O77  1  0.52366031  0.63733778  0.86405499  1
  O  O78  1  0.01530279  0.84875338  0.40273229  1
  O  O79  1  0.80424729  0.98092190  0.40837302  1
  O  O80  1  0.17790867  0.19887081  0.41051757  1
  O  O81  1  0.01729115  0.19656055  0.91397970  1
  O  O82  1  0.14967484  0.97739519  0.90995637  1
  O  O83  1  0.79965956  0.82448635  0.91419272  1
  O  O84  1  0.96493931  0.17097699  0.58765254  1
  O  O85  1  0.17655712  0.02741730  0.59158718  1
  O  O86  1  0.82317973  0.79978534  0.58787272  1
  O  O87  1  0.97969640  0.82110644  0.08901312  1
  O  O88  1  0.82776498  0.03196373  0.09045306  1
  O  O89  1  0.19612311  0.18561621  0.08942127  1
  O  O90  1  0.68721492  0.17799868  0.74090239  1
  O  O91  1  0.47785827  0.32226271  0.73922290  1
  O  O92  1  0.83171731  0.52728266  0.73725189  1
  O  O93  1  0.67814428  0.52529918  0.24699578  1
  O  O94  1  0.82729277  0.31632844  0.24793109  1
  O  O95  1  0.47637108  0.16450328  0.24186690  1
  O  O96  1  0.65694276  0.51565567  0.91922303  1
  O  O97  1  0.87287211  0.36696901  0.91902603  1
  O  O98  1  0.50749943  0.16153579  0.91914627  1
  O  O99  1  0.63604148  0.12841459  0.41948886  1
  O  O100  1  0.48904937  0.35218061  0.41994990  1
  O  O101  1  0.83392013  0.48918111  0.42647660  1
  O  O102  1  0.36408287  0.49646521  0.08283428  1
  O  O103  1  0.14327488  0.62971937  0.08520052  1
  O  O104  1  0.51366377  0.86296056  0.08382301  1
  O  O105  1  0.36709749  0.86202462  0.58060610  1
  O  O106  1  0.51040702  0.63842115  0.58000469  1
  O  O107  1  0.13375884  0.48359799  0.57903824  1
  O  O108  1  0.32975351  0.84950752  0.25937490  1
  O  O109  1  0.52254691  0.68613791  0.26385960  1
  O  O110  1  0.17082048  0.48804816  0.25652242  1
  O  O111  1  0.30828000  0.46777982  0.75271684  1
  O  O112  1  0.14685881  0.67604485  0.74999540  1
  O  O113  1  0.51903034  0.83565907  0.74396090  1
