# generated using pymatgen
data_Na3Ti2Ga2P5SO24
_symmetry_space_group_name_H-M   'P 1'
_cell_length_a   8.61693536
_cell_length_b   8.60127704
_cell_length_c   22.16252990
_cell_angle_alpha   90.20007072
_cell_angle_beta   89.92068234
_cell_angle_gamma   119.98388994
_symmetry_Int_Tables_number   1
_chemical_formula_structural   Na3Ti2Ga2P5SO24
_chemical_formula_sum   'Na9 Ti6 Ga6 P15 S3 O72'
_cell_volume   1422.76617159
_cell_formula_units_Z   3
loop_
 _symmetry_equiv_pos_site_id
 _symmetry_equiv_pos_as_xyz
  1  'x, y, z'
loop_
 _atom_site_type_symbol
 _atom_site_label
 _atom_site_symmetry_multiplicity
 _atom_site_fract_x
 _atom_site_fract_y
 _atom_site_fract_z
 _atom_site_occupancy
  Na  Na0  1  0.00127504  0.36525624  0.75048737  1
  Na  Na1  1  0.66704527  0.96702996  0.58347252  1
  Na  Na2  1  0.03364019  0.33337810  0.08340966  1
  Na  Na3  1  0.00457005  0.99828098  0.50056778  1
  Na  Na4  1  0.00181265  0.99621583  0.00023876  1
  Na  Na5  1  0.66208015  0.33098007  0.83397811  1
  Na  Na6  1  0.67008750  0.33425397  0.33327402  1
  Na  Na7  1  0.33850340  0.66981718  0.16734289  1
  Na  Na8  1  0.33345908  0.66722211  0.66679297  1
  Ti  Ti9  1  0.98327291  0.98960737  0.35342448  1
  Ti  Ti10  1  0.00878411  0.00557660  0.85273374  1
  Ti  Ti11  1  0.66169234  0.33417551  0.68596652  1
  Ti  Ti12  1  0.67265949  0.33926939  0.18587889  1
  Ti  Ti13  1  0.66531972  0.32623893  0.98087635  1
  Ti  Ti14  1  0.67339120  0.33435630  0.48067883  1
  Ga  Ga15  1  0.00438443  0.99827767  0.64862607  1
  Ga  Ga16  1  0.99501053  0.99675131  0.14817908  1
  Ga  Ga17  1  0.33143231  0.67086759  0.01872797  1
  Ga  Ga18  1  0.32855315  0.66898501  0.51861055  1
  Ga  Ga19  1  0.33070475  0.66542602  0.31470069  1
  Ga  Ga20  1  0.33390331  0.67461545  0.81460062  1
  P  P21  1  0.70604254  0.71066361  0.24878480  1
  P  P22  1  0.00341587  0.29106848  0.24956253  1
  P  P23  1  0.29116423  0.29092526  0.74942571  1
  P  P24  1  0.00172584  0.71440092  0.74959258  1
  P  P25  1  0.70706174  0.99346446  0.74964403  1
  P  P26  1  0.96289180  0.33743911  0.58383736  1
  P  P27  1  0.37224632  0.04390868  0.58272978  1
  P  P28  1  0.66587302  0.62295650  0.58279261  1
  P  P29  1  0.95703800  0.62891101  0.08269512  1
  P  P30  1  0.66160485  0.03757507  0.08386458  1
  P  P31  1  0.37761246  0.33345640  0.08344122  1
  P  P32  1  0.04630355  0.38010038  0.91678354  1
  P  P33  1  0.33297704  0.95253568  0.91696761  1
  P  P34  1  0.61624744  0.95215927  0.41673648  1
  P  P35  1  0.04827359  0.66749540  0.41627617  1
  S  S36  1  0.28789182  0.99920234  0.24987643  1
  S  S37  1  0.62158999  0.66686240  0.91681342  1
  S  S38  1  0.33306143  0.37750585  0.41677462  1
  O  O39  1  0.20776559  0.03139292  0.30449805  1
  O  O40  1  0.82904102  0.79672404  0.30584100  1
  O  O41  1  0.97068172  0.16852676  0.30554934  1
  O  O42  1  0.20403462  0.17109397  0.80595795  1
  O  O43  1  0.96769281  0.79854919  0.80633107  1
  O  O44  1  0.83271109  0.03487292  0.80516744  1
  O  O45  1  0.78961616  0.96653346  0.69163232  1
  O  O46  1  0.16977226  0.21031433  0.69412993  1
  O  O47  1  0.03483590  0.82724244  0.69331664  1
  O  O48  1  0.79271850  0.82668739  0.19376640  1
  O  O49  1  0.03494322  0.21023771  0.19195519  1
  O  O50  1  0.17896720  0.96726963  0.19525090  1
  O  O51  1  0.87279749  0.36551954  0.64048806  1
  O  O52  1  0.49812274  0.13137450  0.63865908  1
  O  O53  1  0.63564999  0.50335339  0.63908357  1
  O  O54  1  0.86972996  0.50253812  0.13870281  1
  O  O55  1  0.63479273  0.13134320  0.13940267  1
  O  O56  1  0.49751827  0.36401997  0.13958603  1
  O  O57  1  0.46658256  0.30274884  0.02725000  1
  O  O58  1  0.83699709  0.53546893  0.02729946  1
  O  O59  1  0.70067896  0.16371516  0.02800553  1
  O  O60  1  0.46594661  0.16327187  0.52716962  1
  O  O61  1  0.69679053  0.53318401  0.52711898  1
  O  O62  1  0.83603575  0.29942117  0.52834546  1
  O  O63  1  0.54542748  0.70045488  0.97140750  1
  O  O64  1  0.15915049  0.45647597  0.97434523  1
  O  O65  1  0.29767368  0.83972231  0.97350439  1
  O  O66  1  0.54499396  0.84113615  0.47483557  1
  O  O67  1  0.29940333  0.45416689  0.47145031  1
  O  O68  1  0.16036539  0.70252791  0.47328935  1
  O  O69  1  0.12516148  0.62993160  0.35953841  1
  O  O70  1  0.50428116  0.87190643  0.36004149  1
  O  O71  1  0.36786246  0.48794981  0.36207695  1
  O  O72  1  0.12479654  0.49131695  0.85898143  1
  O  O73  1  0.37132199  0.87702256  0.86000122  1
  O  O74  1  0.51103595  0.63232881  0.86184505  1
  O  O75  1  0.02527507  0.83581847  0.40797978  1
  O  O76  1  0.80972274  0.97774263  0.40900915  1
  O  O77  1  0.17282516  0.19603402  0.40942910  1
  O  O78  1  0.02150094  0.18838643  0.90889859  1
  O  O79  1  0.16556642  0.97601238  0.90884652  1
  O  O80  1  0.80268054  0.82791159  0.90992579  1
  O  O81  1  0.97018471  0.16263697  0.58964308  1
  O  O82  1  0.18887559  0.02719847  0.58976373  1
  O  O83  1  0.83258364  0.81080900  0.58958772  1
  O  O84  1  0.97498197  0.81275847  0.09072046  1
  O  O85  1  0.83639040  0.03008901  0.08932378  1
  O  O86  1  0.18943036  0.16640814  0.09028077  1
  O  O87  1  0.69493810  0.16866344  0.74301079  1
  O  O88  1  0.47660927  0.30739033  0.74295468  1
  O  O89  1  0.83358826  0.52244400  0.74315064  1
  O  O90  1  0.69123762  0.52333215  0.24269899  1
  O  O91  1  0.83117807  0.30643369  0.24266626  1
  O  O92  1  0.46861923  0.16195120  0.24378457  1
  O  O93  1  0.64201182  0.50568400  0.92324195  1
  O  O94  1  0.85624240  0.35780221  0.92450117  1
  O  O95  1  0.49962297  0.14479887  0.92489340  1
  O  O96  1  0.64281427  0.14378389  0.42446024  1
  O  O97  1  0.49428430  0.35767973  0.42342536  1
  O  O98  1  0.85604274  0.50088932  0.42478033  1
  O  O99  1  0.35631662  0.50048422  0.07643379  1
  O  O100  1  0.13932467  0.63623947  0.07737900  1
  O  O101  1  0.49578812  0.85405021  0.07606828  1
  O  O102  1  0.36418482  0.86067096  0.57725409  1
  O  O103  1  0.49862987  0.64311390  0.57640290  1
  O  O104  1  0.14613292  0.50419421  0.57607928  1
  O  O105  1  0.30866660  0.83861450  0.25622946  1
  O  O106  1  0.52058834  0.68999603  0.25846077  1
  O  O107  1  0.16863436  0.47872175  0.25775807  1
  O  O108  1  0.30792808  0.47665005  0.75841971  1
  O  O109  1  0.16361287  0.68458234  0.75667678  1
  O  O110  1  0.52112040  0.82913380  0.75753617  1
