# generated using pymatgen
data_Na6In8Si3(S3O16)3
_symmetry_space_group_name_H-M   'P 1'
_cell_length_a   17.98413393
_cell_length_b   8.96850913
_cell_length_c   23.42223631
_cell_angle_alpha   90.04737936
_cell_angle_beta   89.50516288
_cell_angle_gamma   119.86940685
_symmetry_Int_Tables_number   1
_chemical_formula_structural   Na6In8Si3(S3O16)3
_chemical_formula_sum   'Na18 In24 Si9 S27 O144'
_cell_volume   3275.81293651
_cell_formula_units_Z   3
loop_
 _symmetry_equiv_pos_site_id
 _symmetry_equiv_pos_as_xyz
  1  'x, y, z'
loop_
 _atom_site_type_symbol
 _atom_site_label
 _atom_site_symmetry_multiplicity
 _atom_site_fract_x
 _atom_site_fract_y
 _atom_site_fract_z
 _atom_site_occupancy
  Na  Na0  1  0.00567048  0.64808934  0.25502356  1
  Na  Na1  1  0.50405121  0.36405814  0.74320356  1
  Na  Na2  1  0.16137773  0.30325265  0.91037905  1
  Na  Na3  1  0.66123986  0.30309299  0.91054067  1
  Na  Na4  1  0.16277613  0.02195649  0.41628710  1
  Na  Na5  1  0.65985118  0.01537100  0.41595780  1
  Na  Na6  1  0.99560074  0.98588011  0.49967767  1
  Na  Na7  1  0.49401439  0.00058401  0.50287274  1
  Na  Na8  1  0.99629019  0.00614913  0.99566871  1
  Na  Na9  1  0.49511170  0.00441507  0.99683626  1
  Na  Na10  1  0.33231538  0.33226460  0.82876106  1
  Na  Na11  1  0.83970485  0.33503699  0.82897011  1
  Na  Na12  1  0.34219175  0.34806803  0.33470595  1
  Na  Na13  1  0.83029067  0.32949456  0.33524389  1
  Na  Na14  1  0.17314178  0.68225807  0.17033867  1
  Na  Na15  1  0.66312901  0.67828266  0.17251400  1
  Na  Na16  1  0.16703707  0.65139129  0.67012322  1
  Na  Na17  1  0.66304339  0.64940100  0.66356945  1
  In  In18  1  0.00190214  0.99440573  0.35123071  1
  In  In19  1  0.50242442  0.99226284  0.34913340  1
  In  In20  1  0.00372065  0.01682066  0.84640577  1
  In  In21  1  0.50273808  0.01262810  0.84789585  1
  In  In22  1  0.00466690  0.00936230  0.65152692  1
  In  In23  1  0.50385974  0.01718404  0.64849574  1
  In  In24  1  0.00449247  0.00083173  0.15140663  1
  In  In25  1  0.50366864  0.99697797  0.15328577  1
  In  In26  1  0.33046992  0.33523329  0.68122203  1
  In  In27  1  0.83035328  0.33619108  0.68528890  1
  In  In28  1  0.33148606  0.32634396  0.18629712  1
  In  In29  1  0.82495885  0.31753884  0.18481172  1
  In  In30  1  0.33949470  0.33230038  0.98209546  1
  In  In31  1  0.83922819  0.33260077  0.98238950  1
  In  In32  1  0.34709328  0.34968887  0.48518427  1
  In  In33  1  0.83901079  0.34674546  0.48306373  1
  In  In34  1  0.16268262  0.65848141  0.01467228  1
  In  In35  1  0.66188417  0.65782606  0.01511103  1
  In  In36  1  0.16401853  0.66770048  0.51657122  1
  In  In37  1  0.65089921  0.65088260  0.51932066  1
  In  In38  1  0.16563843  0.67290147  0.31748925  1
  In  In39  1  0.65945757  0.67218896  0.31578156  1
  In  In40  1  0.15913555  0.64560540  0.81310737  1
  In  In41  1  0.66396747  0.65790737  0.81474728  1
  Si  Si42  1  0.15009810  0.00198628  0.25041015  1
  Si  Si43  1  0.65014209  -0.00027778  0.25022689  1
  Si  Si44  1  0.15256767  0.29884341  0.74923168  1
  Si  Si45  1  0.65211175  0.29872582  0.75225702  1
  Si  Si46  1  0.48038769  0.32843848  0.58719806  1
  Si  Si47  1  0.01700510  0.36799290  0.91788771  1
  Si  Si48  1  0.51697931  0.36803031  0.91595203  1
  Si  Si49  1  0.01675520  0.66287323  0.41588498  1
  Si  Si50  1  0.51542656  0.66674266  0.41612458  1
  S  S51  1  0.35013063  0.70326185  0.24919762  1
  S  S52  1  0.85097013  0.70522855  0.24870483  1
  S  S53  1  0.00013020  0.29377356  0.24937393  1
  S  S54  1  0.50034472  0.29289090  0.24937198  1
  S  S55  1  0.99968386  0.70736474  0.74990515  1
  S  S56  1  0.50010717  0.71185149  0.75018539  1
  S  S57  1  0.34936914  0.99426032  0.75106838  1
  S  S58  1  0.85068967  0.99786925  0.74934650  1
  S  S59  1  0.97955805  0.33054408  0.58451208  1
  S  S60  1  0.18386252  0.03470235  0.58070157  1
  S  S61  1  0.68982197  0.04132123  0.58157076  1
  S  S62  1  0.33041307  0.63358143  0.58278140  1
  S  S63  1  0.83555026  0.63754407  0.58397267  1
  S  S64  1  0.47961513  0.62897366  0.08452115  1
  S  S65  1  0.97960867  0.62842422  0.08555729  1
  S  S66  1  0.33327036  0.03111074  0.08376072  1
  S  S67  1  0.83336396  0.02993647  0.08325827  1
  S  S68  1  0.18741917  0.33597742  0.08191463  1
  S  S69  1  0.68649013  0.33575555  0.08103632  1
  S  S70  1  0.31555966  0.66994643  0.91770205  1
  S  S71  1  0.81591967  0.67075606  0.91794843  1
  S  S72  1  0.16623763  0.95926290  0.91701938  1
  S  S73  1  0.66648000  0.96014062  0.91752367  1
  S  S74  1  0.31569561  0.96270283  0.41674961  1
  S  S75  1  0.81389187  0.95794971  0.41808032  1
  S  S76  1  0.16699615  0.37296487  0.41717126  1
  S  S77  1  0.66745147  0.37493587  0.41574572  1
  O  O78  1  0.10979444  0.03205360  0.30915496  1
  O  O79  1  0.61153035  0.03279629  0.30906279  1
  O  O80  1  0.40064570  0.78442039  0.30024623  1
  O  O81  1  0.90494745  0.78542952  0.29947196  1
  O  O82  1  0.48467514  0.18427355  0.30025798  1
  O  O83  1  0.98408365  0.18634766  0.30030569  1
  O  O84  1  0.11661807  0.19518673  0.81060390  1
  O  O85  1  0.61638515  0.19656964  0.81351002  1
  O  O86  1  0.48730163  0.78886850  0.80293327  1
  O  O87  1  0.98397645  0.78376326  0.80167647  1
  O  O88  1  0.40181843  0.01891914  0.80304777  1
  O  O89  1  0.90051258  0.01924005  0.80175689  1
  O  O90  1  0.38626654  0.96072901  0.69984902  1
  O  O91  1  0.88805803  0.96447385  0.69776566  1
  O  O92  1  0.09050072  0.21137208  0.69471711  1
  O  O93  1  0.58591388  0.20831089  0.70007287  1
  O  O94  1  0.00772852  0.80475623  0.69712163  1
  O  O95  1  0.50717798  0.81008175  0.69830028  1
  O  O96  1  0.38613596  0.80922502  0.19641187  1
  O  O97  1  0.88720431  0.81213813  0.19637794  1
  O  O98  1  0.00861184  0.21366608  0.19607515  1
  O  O99  1  0.50840311  0.21235156  0.19562481  1
  O  O100  1  0.08529827  0.95353265  0.19559306  1
  O  O101  1  0.59372616  0.96927540  0.19250464  1
  O  O102  1  0.43909778  0.35682595  0.64665134  1
  O  O103  1  0.93867194  0.35507507  0.63612835  1
  O  O104  1  0.23401924  0.11672271  0.63180352  1
  O  O105  1  0.74219283  0.12795177  0.63213301  1
  O  O106  1  0.31376860  0.52643976  0.63413142  1
  O  O107  1  0.82243938  0.53040779  0.63521056  1
  O  O108  1  0.43874477  0.52225947  0.13599633  1
  O  O109  1  0.93929090  0.52472703  0.13831306  1
  O  O110  1  0.31965281  0.11114827  0.13479015  1
  O  O111  1  0.82058427  0.10975319  0.13489919  1
  O  O112  1  0.23934277  0.35494670  0.13243664  1
  O  O113  1  0.73948538  0.35880283  0.13164556  1
  O  O114  1  0.22679101  0.31249840  0.02851309  1
  O  O115  1  0.72675709  0.31208829  0.02807738  1
  O  O116  1  0.42882880  0.54964591  0.03250499  1
  O  O117  1  0.92756394  0.54595089  0.03455430  1
  O  O118  1  0.34664072  0.13579414  0.03155464  1
  O  O119  1  0.84694067  0.13602941  0.03161115  1
  O  O120  1  0.22256489  0.13616327  0.52741965  1
  O  O121  1  0.72856118  0.14656006  0.52816412  1
  O  O122  1  0.34045671  0.55404846  0.53016597  1
  O  O123  1  0.85024183  0.55981994  0.53196201  1
  O  O124  1  0.42344769  0.29766316  0.53065334  1
  O  O125  1  0.92898817  0.30842018  0.53242640  1
  O  O126  1  0.28022379  0.70453692  0.97071458  1
  O  O127  1  0.77991363  0.70501515  0.97054925  1
  O  O128  1  0.07842625  0.44265680  0.97468583  1
  O  O129  1  0.58038631  0.44775255  0.97147481  1
  O  O130  1  0.15791206  0.86366008  0.97100069  1
  O  O131  1  0.65844632  0.86329838  0.97083214  1
  O  O132  1  0.27903073  0.85541246  0.46842872  1
  O  O133  1  0.77650858  0.85134293  0.46936624  1
  O  O134  1  0.15703557  0.45469958  0.46913038  1
  O  O135  1  0.66093690  0.45725469  0.46825233  1
  O  O136  1  0.08232068  0.70783819  0.46941357  1
  O  O137  1  0.58215228  0.72045509  0.46969902  1
  O  O138  1  0.05428660  0.63272070  0.35541181  1
  O  O139  1  0.55496573  0.62723040  0.35947809  1
  O  O140  1  0.26289795  0.88102094  0.36522152  1
  O  O141  1  0.76365185  0.88141804  0.36563556  1
  O  O142  1  0.18224225  0.47832866  0.36511924  1
  O  O143  1  0.68382315  0.48091519  0.36402896  1
  O  O144  1  0.05974097  0.48889536  0.86277144  1
  O  O145  1  0.55768253  0.48048422  0.85802581  1
  O  O146  1  0.18248820  0.88357690  0.86667973  1
  O  O147  1  0.68282921  0.88507094  0.86660219  1
  O  O148  1  0.26220325  0.64454237  0.86739087  1
  O  O149  1  0.76209273  0.64348514  0.86739265  1
  O  O150  1  0.01151001  0.84294312  0.41468277  1
  O  O151  1  0.50996171  0.84613450  0.41393880  1
  O  O152  1  0.40340437  0.99260372  0.40920350  1
  O  O153  1  0.90324428  0.98994744  0.41108475  1
  O  O154  1  0.08635703  0.20237895  0.41286789  1
  O  O155  1  0.58754384  0.20414478  0.41165326  1
  O  O156  1  0.01057592  0.17685301  0.91405855  1
  O  O157  1  0.51032062  0.17656161  0.91419002  1
  O  O158  1  0.08675855  0.97148067  0.91329008  1
  O  O159  1  0.58667952  0.97057411  0.91376161  1
  O  O160  1  0.40389303  0.81477508  0.91097101  1
  O  O161  1  0.90376758  0.81581773  0.91055568  1
  O  O162  1  0.48860310  0.15426470  0.58590659  1
  O  O163  1  0.98625703  0.17182525  0.58824720  1
  O  O164  1  0.09555164  0.01216783  0.58495682  1
  O  O165  1  0.60259709  0.01735939  0.58648195  1
  O  O166  1  0.40948284  0.80225363  0.58894755  1
  O  O167  1  0.91497283  0.81012474  0.58990544  1
  O  O168  1  0.48643539  0.80117888  0.08841133  1
  O  O169  1  0.98640314  0.80080304  0.08853277  1
  O  O170  1  0.41134393  0.01367021  0.08952118  1
  O  O171  1  0.91185862  0.01331785  0.08892252  1
  O  O172  1  0.09983874  0.18107080  0.08627051  1
  O  O173  1  0.59962880  0.18134660  0.08579910  1
  O  O174  1  0.34755375  0.15814891  0.74635118  1
  O  O175  1  0.84671046  0.15890635  0.74337754  1
  O  O176  1  0.24719218  0.31309559  0.74424440  1
  O  O177  1  0.74721773  0.31817296  0.74718587  1
  O  O178  1  0.42590699  0.53305808  0.74796408  1
  O  O179  1  0.92509136  0.52977818  0.74564309  1
  O  O180  1  0.34612403  0.53429667  0.24303374  1
  O  O181  1  0.85222952  0.53938675  0.24196373  1
  O  O182  1  0.42501221  0.31977323  0.24493427  1
  O  O183  1  0.92674311  0.32783146  0.24416854  1
  O  O184  1  0.24437474  0.17336212  0.24508681  1
  O  O185  1  0.74543848  0.17686945  0.24777331  1
  O  O186  1  0.31537432  0.50246826  0.92441267  1
  O  O187  1  0.81571007  0.50339871  0.92467603  1
  O  O188  1  0.42208663  0.35061593  0.92052675  1
  O  O189  1  0.92156626  0.34866468  0.92124922  1
  O  O190  1  0.24011004  0.14111537  0.92265131  1
  O  O191  1  0.74016468  0.14098528  0.92274066  1
  O  O192  1  0.31469105  0.12803351  0.42209333  1
  O  O193  1  0.81594393  0.12770902  0.42385640  1
  O  O194  1  0.23987772  0.33944725  0.42257560  1
  O  O195  1  0.74102627  0.33906267  0.42057279  1
  O  O196  1  0.41903214  0.49935908  0.41883420  1
  O  O197  1  0.92178672  0.49163507  0.42058458  1
  O  O198  1  0.18061516  0.49486317  0.07902638  1
  O  O199  1  0.68018583  0.49483237  0.07782431  1
  O  O200  1  0.06680598  0.64792197  0.08084628  1
  O  O201  1  0.56699258  0.64881577  0.08004653  1
  O  O202  1  0.25468082  0.85747355  0.07788422  1
  O  O203  1  0.75526822  0.85717407  0.07736218  1
  O  O204  1  0.17709099  0.86177758  0.57810678  1
  O  O205  1  0.68714399  0.87414956  0.57769248  1
  O  O206  1  0.25283782  0.65573910  0.57734546  1
  O  O207  1  0.75937882  0.65711464  0.57763952  1
  O  O208  1  0.06668316  0.48512127  0.58006861  1
  O  O209  1  0.57640990  0.50188890  0.58529255  1
  O  O210  1  0.15569944  0.82260561  0.25240788  1
  O  O211  1  0.66346482  0.83147388  0.25089120  1
  O  O212  1  0.26181425  0.67671578  0.25531175  1
  O  O213  1  0.76333196  0.67342112  0.25623045  1
  O  O214  1  0.08004816  0.46396786  0.25339974  1
  O  O215  1  0.58079935  0.45995457  0.25322411  1
  O  O216  1  0.16333681  0.49204341  0.75022855  1
  O  O217  1  0.65625674  0.48805166  0.75254751  1
  O  O218  1  0.08050495  0.70177500  0.75404454  1
  O  O219  1  0.58030777  0.70056091  0.75351992  1
  O  O220  1  0.26145672  0.84711280  0.75842226  1
  O  O221  1  0.76282098  0.84816355  0.75608840  1
