# generated using pymatgen
data_Na2MgZr3P4(SO12)2
_symmetry_space_group_name_H-M   'P 1'
_cell_length_a   8.85557368
_cell_length_b   8.86084732
_cell_length_c   23.36075805
_cell_angle_alpha   90.00266268
_cell_angle_beta   89.96720690
_cell_angle_gamma   120.02341893
_symmetry_Int_Tables_number   1
_chemical_formula_structural   Na2MgZr3P4(SO12)2
_chemical_formula_sum   'Na6 Mg3 Zr9 P12 S6 O72'
_cell_volume   1587.10951113
_cell_formula_units_Z   3
loop_
 _symmetry_equiv_pos_site_id
 _symmetry_equiv_pos_as_xyz
  1  'x, y, z'
loop_
 _atom_site_type_symbol
 _atom_site_label
 _atom_site_symmetry_multiplicity
 _atom_site_fract_x
 _atom_site_fract_y
 _atom_site_fract_z
 _atom_site_occupancy
  Na  Na0  1  0.00052105  0.99293305  0.50870789  1
  Na  Na1  1  0.00680579  0.99806765  0.00454558  1
  Na  Na2  1  0.66213976  0.32574670  0.83152254  1
  Na  Na3  1  0.66794346  0.33234675  0.33899090  1
  Na  Na4  1  0.32805836  0.66121665  0.17154396  1
  Na  Na5  1  0.34434682  0.66986929  0.66381486  1
  Mg  Mg6  1  0.99764740  0.00068027  0.64698296  1
  Mg  Mg7  1  0.00831327  -0.00001850  0.14734069  1
  Mg  Mg8  1  0.33250503  0.66724546  0.32012548  1
  Zr  Zr9  1  0.00150665  0.00002383  0.35681185  1
  Zr  Zr10  1  0.00193313  0.00778890  0.85233401  1
  Zr  Zr11  1  0.65256051  0.32477876  0.68503890  1
  Zr  Zr12  1  0.66848822  0.34111977  0.18604869  1
  Zr  Zr13  1  0.66368171  0.33875181  0.98010461  1
  Zr  Zr14  1  0.66017223  0.33591246  0.48027938  1
  Zr  Zr15  1  0.32769745  0.66124986  0.01983999  1
  Zr  Zr16  1  0.34030851  0.67213653  0.51772455  1
  Zr  Zr17  1  0.34007610  0.66846306  0.81261208  1
  P  P18  1  0.28537617  0.28788015  0.74737344  1
  P  P19  1  0.71436129  0.00235151  0.74716948  1
  P  P20  1  0.36523580  0.03762501  0.58303999  1
  P  P21  1  0.67256593  0.63192113  0.58412613  1
  P  P22  1  0.95836361  0.63164146  0.08387252  1
  P  P23  1  0.36818263  0.32801571  0.08417931  1
  P  P24  1  0.62594216  0.66984384  0.91704680  1
  P  P25  1  0.04121812  0.37660557  0.91620970  1
  P  P26  1  0.33247066  0.95613522  0.91684488  1
  P  P27  1  0.62082616  0.95838537  0.41374320  1
  P  P28  1  0.33486351  0.38215819  0.41406896  1
  P  P29  1  0.04471739  0.66233248  0.41463600  1
  S  S30  1  0.28912921  0.99403254  0.24856592  1
  S  S31  1  0.70706786  0.71506699  0.24852988  1
  S  S32  1  0.00481839  0.29183994  0.24817149  1
  S  S33  1  0.99975142  0.71053330  0.74855009  1
  S  S34  1  0.95799862  0.33097311  0.58371557  1
  S  S35  1  0.67096853  0.04257852  0.08421933  1
  O  O36  1  0.20943282  0.02353466  0.30055139  1
  O  O37  1  0.81524045  0.79378980  0.30056186  1
  O  O38  1  0.97715953  0.18427286  0.30039811  1
  O  O39  1  0.20437431  0.17966475  0.80318974  1
  O  O40  1  0.97615074  0.79008074  0.80174404  1
  O  O41  1  0.82048372  0.02257707  0.80307288  1
  O  O42  1  0.79530662  0.97350580  0.69518267  1
  O  O43  1  0.17912273  0.20314614  0.69513890  1
  O  O44  1  0.02451271  0.81436732  0.69807559  1
  O  O45  1  0.79379541  0.81645572  0.19740040  1
  O  O46  1  0.02056082  0.20476561  0.19722481  1
  O  O47  1  0.18574834  0.97705616  0.19774533  1
  O  O48  1  0.87438122  0.35641582  0.63532916  1
  O  O49  1  0.48366085  0.12469643  0.63680712  1
  O  O50  1  0.64668768  0.51372820  0.63709461  1
  O  O51  1  0.86954644  0.51201663  0.13709991  1
  O  O52  1  0.64340660  0.12693902  0.13547036  1
  O  O53  1  0.48732925  0.35395655  0.13702235  1
  O  O54  1  0.46146536  0.30806773  0.03077452  1
  O  O55  1  0.84705923  0.53481612  0.03062083  1
  O  O56  1  0.69096396  0.14759030  0.03241498  1
  O  O57  1  0.46396024  0.15074710  0.53037878  1
  O  O58  1  0.68979015  0.53691783  0.53066784  1
  O  O59  1  0.85255999  0.31235685  0.53207787  1
  O  O60  1  0.53836732  0.69266681  0.97076183  1
  O  O61  1  0.15313525  0.46211473  0.97035726  1
  O  O62  1  0.30962817  0.84511378  0.97070061  1
  O  O63  1  0.54037227  0.84693116  0.46861244  1
  O  O64  1  0.30708181  0.46226880  0.46905404  1
  O  O65  1  0.15559042  0.69190384  0.46917199  1
  O  O66  1  0.12351309  0.63702935  0.36106274  1
  O  O67  1  0.51403179  0.87803033  0.36083162  1
  O  O68  1  0.36184978  0.48731853  0.36075474  1
  O  O69  1  0.12770864  0.48728113  0.86310870  1
  O  O70  1  0.35692545  0.86960839  0.86350958  1
  O  O71  1  0.51408388  0.64292844  0.86362423  1
  O  O72  1  0.02316639  0.82762571  0.40861469  1
  O  O73  1  0.80592680  0.97700553  0.40803079  1
  O  O74  1  0.17102817  0.19525145  0.40863646  1
  O  O75  1  0.02403347  0.19507584  0.91119238  1
  O  O76  1  0.16964045  0.97455030  0.91047481  1
  O  O77  1  0.80791252  0.82978071  0.91033923  1
  O  O78  1  0.97545073  0.17639745  0.58898543  1
  O  O79  1  0.18944028  0.02365875  0.58929274  1
  O  O80  1  0.83172972  0.81036875  0.58928538  1
  O  O81  1  0.97242389  0.80750783  0.09029123  1
  O  O82  1  0.82481984  0.02458297  0.09111975  1
  O  O83  1  0.18935529  0.16994383  0.09044054  1
  O  O84  1  0.69551437  0.16790684  0.74387132  1
  O  O85  1  0.47317755  0.31232823  0.74471813  1
  O  O86  1  0.84368560  0.53257819  0.74445038  1
  O  O87  1  0.69187839  0.53511826  0.24398992  1
  O  O88  1  0.84068443  0.30660958  0.24318251  1
  O  O89  1  0.46793430  0.15694245  0.24307405  1
  O  O90  1  0.64291794  0.50472198  0.92282425  1
  O  O91  1  0.85854500  0.35460702  0.92394020  1
  O  O92  1  0.49623115  0.13791279  0.92403070  1
  O  O93  1  0.64788454  0.14288042  0.42380230  1
  O  O94  1  0.49411919  0.35489148  0.42241709  1
  O  O95  1  0.85969319  0.50360923  0.42396208  1
  O  O96  1  0.36105299  0.49904232  0.07824786  1
  O  O97  1  0.13995556  0.64532109  0.07832444  1
  O  O98  1  0.51017466  0.86876880  0.07884408  1
  O  O99  1  0.35305509  0.85712788  0.57745790  1
  O  O100  1  0.50156968  0.63973230  0.57792614  1
  O  O101  1  0.13233289  0.49115180  0.57826800  1
  O  O102  1  0.31141673  0.84206444  0.25514607  1
  O  O103  1  0.53150689  0.68978116  0.25491373  1
  O  O104  1  0.15605526  0.46709540  0.25454511  1
  O  O105  1  0.30897415  0.47297322  0.75660880  1
  O  O106  1  0.15636060  0.68975177  0.75621190  1
  O  O107  1  0.52680239  0.84244139  0.75651416  1
