# generated using pymatgen
data_K3MgV3O8
_symmetry_space_group_name_H-M   'P 1'
_cell_length_a   5.79609314
_cell_length_b   5.90355141
_cell_length_c   8.33869848
_cell_angle_alpha   87.35926936
_cell_angle_beta   89.98223126
_cell_angle_gamma   119.38041198
_symmetry_Int_Tables_number   1
_chemical_formula_structural   K3MgV3O8
_chemical_formula_sum   'K3 Mg1 V3 O8'
_cell_volume   248.28094779
_cell_formula_units_Z   1
loop_
 _symmetry_equiv_pos_site_id
 _symmetry_equiv_pos_as_xyz
  1  'x, y, z'
loop_
 _atom_site_type_symbol
 _atom_site_label
 _atom_site_symmetry_multiplicity
 _atom_site_fract_x
 _atom_site_fract_y
 _atom_site_fract_z
 _atom_site_occupancy
  K  K0  1  0.00049800  0.00065300  0.00028400  1
  K  K1  1  0.30601200  0.61214500  0.23697200  1
  K  K2  1  0.69431300  0.38834500  0.76318300  1
  Mg  Mg3  1  0.50011000  0.00019200  0.50017800  1
  V  V4  1  0.99996300  0.99991200  0.49992100  1
  V  V5  1  0.30289700  0.60576500  0.73253500  1
  V  V6  1  0.69707700  0.39419700  0.26730100  1
  O  O7  1  0.83764200  0.19835600  0.37942600  1
  O  O8  1  0.86389600  0.72786900  0.31224200  1
  O  O9  1  0.36068300  0.19826500  0.37937800  1
  O  O10  1  0.63936100  0.80182900  0.62063700  1
  O  O11  1  0.13598200  0.27182600  0.68739500  1
  O  O12  1  0.16240800  0.80172200  0.62052700  1
  O  O13  1  0.33105300  0.66263700  0.93381600  1
  O  O14  1  0.66810400  0.33628600  0.06620500  1
