# generated using pymatgen
data_SrIF
_symmetry_space_group_name_H-M   'P 1'
_cell_length_a   4.27610854
_cell_length_b   4.27610854
_cell_length_c   8.97879985
_cell_angle_alpha   90.00000000
_cell_angle_beta   90.00000000
_cell_angle_gamma   90.00000000
_symmetry_Int_Tables_number   1
_chemical_formula_structural   SrIF
_chemical_formula_sum   'Sr2 I2 F2'
_cell_volume   164.17829126
_cell_formula_units_Z   2
loop_
 _symmetry_equiv_pos_site_id
 _symmetry_equiv_pos_as_xyz
  1  'x, y, z'
loop_
 _atom_site_type_symbol
 _atom_site_label
 _atom_site_symmetry_multiplicity
 _atom_site_fract_x
 _atom_site_fract_y
 _atom_site_fract_z
 _atom_site_occupancy
  Sr  Sr0  1  0.25000000  0.25000000  0.14782338  1
  Sr  Sr1  1  0.75000000  0.75000000  0.85217662  1
  I  I2  1  0.25000000  0.25000000  0.67335529  1
  I  I3  1  0.75000000  0.75000000  0.32664471  1
  F  F4  1  0.25000000  0.75000000  0.00000000  1
  F  F5  1  0.75000000  0.25000000  0.00000000  1
