# generated using pymatgen
data_Sr4PdO6
_symmetry_space_group_name_H-M   'P 1'
_cell_length_a   6.88519512
_cell_length_b   6.88519512
_cell_length_c   6.88519461
_cell_angle_alpha   89.98262420
_cell_angle_beta   89.98262420
_cell_angle_gamma   89.98263344
_symmetry_Int_Tables_number   1
_chemical_formula_structural   Sr4PdO6
_chemical_formula_sum   'Sr8 Pd2 O12'
_cell_volume   326.39888334
_cell_formula_units_Z   2
loop_
 _symmetry_equiv_pos_site_id
 _symmetry_equiv_pos_as_xyz
  1  'x, y, z'
loop_
 _atom_site_type_symbol
 _atom_site_label
 _atom_site_symmetry_multiplicity
 _atom_site_fract_x
 _atom_site_fract_y
 _atom_site_fract_z
 _atom_site_occupancy
  Sr  Sr0  1  0.75000000  0.75000000  0.75000000  1
  Sr  Sr1  1  0.25000000  0.25000000  0.25000000  1
  Sr  Sr2  1  0.25000000  0.61979559  0.88020441  1
  Sr  Sr3  1  0.88020441  0.25000000  0.61979559  1
  Sr  Sr4  1  0.61979559  0.88020441  0.25000000  1
  Sr  Sr5  1  0.75000000  0.38020441  0.11979559  1
  Sr  Sr6  1  0.11979559  0.75000000  0.38020441  1
  Sr  Sr7  1  0.38020441  0.11979559  0.75000000  1
  Pd  Pd8  1  0.50000000  0.50000000  0.50000000  1
  Pd  Pd9  1  0.00000000  -0.00000000  -0.00000000  1
  O  O10  1  0.07197545  0.28457023  0.94201652  1
  O  O11  1  0.94201652  0.07197545  0.28457023  1
  O  O12  1  0.28457023  0.94201652  0.07197545  1
  O  O13  1  0.42802455  0.55798348  0.21542977  1
  O  O14  1  0.21542977  0.42802455  0.55798348  1
  O  O15  1  0.55798348  0.21542977  0.42802455  1
  O  O16  1  0.92802455  0.71542977  0.05798348  1
  O  O17  1  0.05798348  0.92802455  0.71542977  1
  O  O18  1  0.71542977  0.05798348  0.92802455  1
  O  O19  1  0.57197545  0.44201652  0.78457023  1
  O  O20  1  0.44201652  0.78457023  0.57197545  1
  O  O21  1  0.78457023  0.57197545  0.44201652  1
