# generated using pymatgen
data_NaNb3AlSiP5O24
_symmetry_space_group_name_H-M   'P 1'
_cell_length_a   8.72939002
_cell_length_b   8.72644268
_cell_length_c   22.47990801
_cell_angle_alpha   89.82933078
_cell_angle_beta   90.07356306
_cell_angle_gamma   120.06014541
_symmetry_Int_Tables_number   1
_chemical_formula_structural   NaNb3AlSiP5O24
_chemical_formula_sum   'Na3 Nb9 Al3 Si3 P15 O72'
_cell_volume   1482.11134048
_cell_formula_units_Z   3
loop_
 _symmetry_equiv_pos_site_id
 _symmetry_equiv_pos_as_xyz
  1  'x, y, z'
loop_
 _atom_site_type_symbol
 _atom_site_label
 _atom_site_symmetry_multiplicity
 _atom_site_fract_x
 _atom_site_fract_y
 _atom_site_fract_z
 _atom_site_occupancy
  Na  Na0  1  0.00116072  0.00021617  0.99208487  1
  Na  Na1  1  0.66480879  0.33210708  0.84010498  1
  Na  Na2  1  0.66713445  0.33362424  0.33880938  1
  Nb  Nb3  1  0.99430376  0.99794872  0.36099962  1
  Nb  Nb4  1  0.00370802  0.00553523  0.64268065  1
  Nb  Nb5  1  0.99745153  0.00197130  0.14236787  1
  Nb  Nb6  1  0.66490043  0.33374184  0.69101788  1
  Nb  Nb7  1  0.66835612  0.33546720  0.18819835  1
  Nb  Nb8  1  0.33360017  0.66650406  0.01979544  1
  Nb  Nb9  1  0.33301962  0.66566846  0.52531376  1
  Nb  Nb10  1  0.33313840  0.66507844  0.30997532  1
  Nb  Nb11  1  0.33317826  0.66486625  0.81085410  1
  Al  Al12  1  0.00290061  0.00071126  0.85509850  1
  Al  Al13  1  0.66636073  0.33365498  0.97742394  1
  Al  Al14  1  0.66698455  0.33447494  0.47993490  1
  Si  Si15  1  0.71742088  0.71605100  0.25097134  1
  Si  Si16  1  0.99790676  0.28206435  0.25055726  1
  Si  Si17  1  0.27642463  0.27517477  0.75492847  1
  P  P18  1  0.28207270  0.00118743  0.25090289  1
  P  P19  1  0.99894735  0.72308558  0.75363125  1
  P  P20  1  0.72427094  0.00136310  0.75344657  1
  P  P21  1  0.94089320  0.33000329  0.58002369  1
  P  P22  1  0.38829912  0.05703846  0.58001295  1
  P  P23  1  0.67098507  0.61287918  0.57990908  1
  P  P24  1  0.94663222  0.61430080  0.07812528  1
  P  P25  1  0.66692222  0.05451303  0.07844095  1
  P  P26  1  0.38677155  0.33143355  0.07816200  1
  P  P27  1  0.63253538  0.66706023  0.91626243  1
  P  P28  1  0.03348123  0.36805176  0.91651786  1
  P  P29  1  0.33355618  0.96559500  0.91634343  1
  P  P30  1  0.61579651  0.96398462  0.41884379  1
  P  P31  1  0.34641043  0.38219247  0.41864481  1
  P  P32  1  0.03711846  0.65442435  0.41869438  1
  O  O33  1  0.20185749  0.03495935  0.30623868  1
  O  O34  1  0.84006384  0.80221022  0.30934325  1
  O  O35  1  0.96792141  0.16091123  0.30886319  1
  O  O36  1  0.19083158  0.15408536  0.81108892  1
  O  O37  1  0.96122849  0.79969292  0.80783071  1
  O  O38  1  0.83686283  0.03163062  0.80770433  1
  O  O39  1  0.80061666  0.97117955  0.69510882  1
  O  O40  1  0.16550454  0.19273976  0.69223297  1
  O  O41  1  0.02503784  0.82894141  0.69533170  1
  O  O42  1  0.80769334  0.83335332  0.19116528  1
  O  O43  1  0.03157870  0.19685486  0.19077599  1
  O  O44  1  0.17186057  0.97174113  0.19401282  1
  O  O45  1  0.86543472  0.36328954  0.63748891  1
  O  O46  1  0.49923986  0.13532420  0.63756769  1
  O  O47  1  0.63679940  0.49999918  0.63750883  1
  O  O48  1  0.86482830  0.50605442  0.13689813  1
  O  O49  1  0.64143132  0.13373140  0.13682339  1
  O  O50  1  0.49282950  0.35794470  0.13672473  1
  O  O51  1  0.47495621  0.30414129  0.02500179  1
  O  O52  1  0.82947903  0.52679216  0.02517656  1
  O  O53  1  0.69688759  0.17080368  0.02506662  1
  O  O54  1  0.47256822  0.17061756  0.52585910  1
  O  O55  1  0.69756212  0.52705472  0.52583318  1
  O  O56  1  0.82927031  0.30351481  0.52569106  1
  O  O57  1  0.53668562  0.69512047  0.97124016  1
  O  O58  1  0.15883143  0.46485195  0.97128144  1
  O  O59  1  0.30798695  0.84104736  0.97153422  1
  O  O60  1  0.52927157  0.84189929  0.47320729  1
  O  O61  1  0.31134817  0.46919232  0.47277783  1
  O  O62  1  0.15844245  0.68691088  0.47318279  1
  O  O63  1  0.12701933  0.62950271  0.36313563  1
  O  O64  1  0.50258545  0.87528058  0.36309876  1
  O  O65  1  0.37148314  0.49937195  0.36293864  1
  O  O66  1  0.12932305  0.49272378  0.86224610  1
  O  O67  1  0.36293972  0.87246353  0.86226216  1
  O  O68  1  0.50812885  0.63829864  0.86198917  1
  O  O69  1  0.02761800  0.82618318  0.41055196  1
  O  O70  1  0.79936313  0.97515298  0.41130869  1
  O  O71  1  0.17809088  0.19939436  0.40947876  1
  O  O72  1  0.02065527  0.18790858  0.91013055  1
  O  O73  1  0.16247073  0.97262411  0.91112805  1
  O  O74  1  0.81189491  0.83539284  0.90880057  1
  O  O75  1  0.96415460  0.16649793  0.58988008  1
  O  O76  1  0.20074469  0.02979844  0.59042038  1
  O  O77  1  0.83049442  0.79804485  0.59112154  1
  O  O78  1  0.97228937  0.80263565  0.08700366  1
  O  O79  1  0.83323576  0.03091801  0.08634192  1
  O  O80  1  0.19890490  0.16564343  0.08641251  1
  O  O81  1  0.70201518  0.16732522  0.74324958  1
  O  O82  1  0.47770774  0.30481390  0.74269481  1
  O  O83  1  0.83721387  0.53178141  0.74316113  1
  O  O84  1  0.68843405  0.51800670  0.24255058  1
  O  O85  1  0.82286769  0.30073611  0.24245155  1
  O  O86  1  0.46840517  0.16391416  0.24227531  1
  O  O87  1  0.64370052  0.49881327  0.92479121  1
  O  O88  1  0.85469753  0.35820830  0.92495250  1
  O  O89  1  0.50105119  0.14595467  0.92529829  1
  O  O90  1  0.63989245  0.14787460  0.42629033  1
  O  O91  1  0.50916237  0.36286776  0.42582735  1
  O  O92  1  0.85344802  0.49340893  0.42611355  1
  O  O93  1  0.36362372  0.49541706  0.07182285  1
  O  O94  1  0.13215992  0.63407101  0.07226049  1
  O  O95  1  0.50439021  0.86675130  0.07219339  1
  O  O96  1  0.36534963  0.86884900  0.57318788  1
  O  O97  1  0.50423186  0.63407620  0.57290293  1
  O  O98  1  0.13113690  0.49333548  0.57290490  1
  O  O99  1  0.30162785  0.83755332  0.26037926  1
  O  O100  1  0.52697583  0.70120231  0.26109159  1
  O  O101  1  0.16785518  0.47700736  0.26092244  1
  O  O102  1  0.30494946  0.47554672  0.76156253  1
  O  O103  1  0.16364022  0.70177356  0.76097541  1
  O  O104  1  0.53504020  0.84097926  0.76091867  1
