# generated using pymatgen
data_ScCl3
_symmetry_space_group_name_H-M   'P 1'
_cell_length_a   7.12052400
_cell_length_b   7.12052348
_cell_length_c   7.12052309
_cell_angle_alpha   53.48958099
_cell_angle_beta   53.48959367
_cell_angle_gamma   53.48960451
_symmetry_Int_Tables_number   1
_chemical_formula_structural   ScCl3
_chemical_formula_sum   'Sc2 Cl6'
_cell_volume   216.39147043
_cell_formula_units_Z   2
loop_
 _symmetry_equiv_pos_site_id
 _symmetry_equiv_pos_as_xyz
  1  'x, y, z'
loop_
 _atom_site_type_symbol
 _atom_site_label
 _atom_site_symmetry_multiplicity
 _atom_site_fract_x
 _atom_site_fract_y
 _atom_site_fract_z
 _atom_site_occupancy
  Sc  Sc0  1  0.66668387  0.66668387  0.66668387  1
  Sc  Sc1  1  0.33331613  0.33331613  0.33331613  1
  Cl  Cl2  1  0.56298571  0.28185254  0.92255133  1
  Cl  Cl3  1  0.28185254  0.92255133  0.56298571  1
  Cl  Cl4  1  0.07744867  0.43701429  0.71814746  1
  Cl  Cl5  1  0.71814746  0.07744867  0.43701429  1
  Cl  Cl6  1  0.43701429  0.71814746  0.07744867  1
  Cl  Cl7  1  0.92255133  0.56298571  0.28185254  1
