# generated using pymatgen
data_MgV4O5F7
_symmetry_space_group_name_H-M   'P 1'
_cell_length_a   5.21145904
_cell_length_b   5.41559114
_cell_length_c   8.98410341
_cell_angle_alpha   74.37263882
_cell_angle_beta   90.23503645
_cell_angle_gamma   62.46797556
_symmetry_Int_Tables_number   1
_chemical_formula_structural   MgV4O5F7
_chemical_formula_sum   'Mg1 V4 O5 F7'
_cell_volume   214.06286771
_cell_formula_units_Z   1
loop_
 _symmetry_equiv_pos_site_id
 _symmetry_equiv_pos_as_xyz
  1  'x, y, z'
loop_
 _atom_site_type_symbol
 _atom_site_label
 _atom_site_symmetry_multiplicity
 _atom_site_fract_x
 _atom_site_fract_y
 _atom_site_fract_z
 _atom_site_occupancy
  Mg  Mg0  1  0.69164200  0.62179700  0.89794500  1
  V  V1  1  0.72029400  0.51257900  0.26049600  1
  V  V2  1  0.49015600  0.98972500  0.50249100  1
  V  V3  1  0.28179500  0.50181200  0.72017300  1
  V  V4  1  0.04222900  0.98998300  0.02603400  1
  O  O5  1  0.94275400  0.26945400  0.10957200  1
  O  O6  1  0.55205400  0.72093600  0.37569700  1
  O  O7  1  0.43465400  0.75970900  0.06021100  1
  O  O8  1  0.43611600  0.76140500  0.69187400  1
  O  O9  1  0.44863800  0.27773000  0.61490500  1
  F  F10  1  0.92228100  0.78322400  0.57586500  1
  F  F11  1  0.94971500  0.73256500  0.18361200  1
  F  F12  1  0.55898200  0.24473200  0.31421500  1
  F  F13  1  0.56905800  0.28779000  0.91581500  1
  F  F14  1  0.97458900  0.77951900  0.88138200  1
  F  F15  1  0.05207100  0.29601900  0.82776000  1
  F  F16  1  0.07047000  0.22102100  0.41576500  1
