# generated using pymatgen
data_MgV8(PO4)12
_symmetry_space_group_name_H-M   'P 1'
_cell_length_a   8.47477654
_cell_length_b   8.61964843
_cell_length_c   11.95492076
_cell_angle_alpha   90.00709699
_cell_angle_beta   89.48204924
_cell_angle_gamma   90.52369155
_symmetry_Int_Tables_number   1
_chemical_formula_structural   MgV8(PO4)12
_chemical_formula_sum   'Mg1 V8 P12 O48'
_cell_volume   873.22995042
_cell_formula_units_Z   1
loop_
 _symmetry_equiv_pos_site_id
 _symmetry_equiv_pos_as_xyz
  1  'x, y, z'
loop_
 _atom_site_type_symbol
 _atom_site_label
 _atom_site_symmetry_multiplicity
 _atom_site_fract_x
 _atom_site_fract_y
 _atom_site_fract_z
 _atom_site_occupancy
  Mg  Mg0  1  0.78592600  0.84132800  0.34044600  1
  V  V1  1  0.24251200  0.97216300  0.38776400  1
  V  V2  1  0.25495000  0.46944800  0.11569700  1
  V  V3  1  0.24969100  0.03348200  0.88122800  1
  V  V4  1  0.25924500  0.52640500  0.62019500  1
  V  V5  1  0.74962800  0.46483200  0.38306600  1
  V  V6  1  0.74982700  0.97337800  0.10712900  1
  V  V7  1  0.74771900  0.53354000  0.88352600  1
  V  V8  1  0.75412100  0.02856200  0.61966700  1
  P  P9  1  0.03194200  0.25431300  0.50693200  1
  P  P10  1  0.10840900  0.11486900  0.14390000  1
  P  P11  1  0.11177900  0.38658800  0.85766400  1
  P  P12  1  0.39479000  0.61561400  0.35706100  1
  P  P13  1  0.38510300  0.88601600  0.64275900  1
  P  P14  1  0.46825600  0.75219900  0.99117500  1
  P  P15  1  0.53049600  0.25415800  0.00311300  1
  P  P16  1  0.60996300  0.10896400  0.35761500  1
  P  P17  1  0.61141600  0.38352000  0.64295700  1
  P  P18  1  0.88926100  0.61188300  0.14418200  1
  P  P19  1  0.97041000  0.74984400  0.50702700  1
  P  P20  1  0.89550500  0.88402100  0.85191900  1
  O  O21  1  0.06701700  0.60430300  0.12526800  1
  O  O22  1  0.03829300  0.84356200  0.40541300  1
  O  O23  1  0.08027000  0.63870800  0.56492100  1
  O  O24  1  0.07311400  0.91811600  0.83027100  1
  O  O25  1  0.11593700  0.14015700  0.42672800  1
  O  O26  1  0.12833200  0.29322500  0.15649200  1
  O  O27  1  0.15099700  0.06835300  0.02220400  1
  O  O28  1  0.15577900  0.21706200  0.82505200  1
  O  O29  1  0.16067100  0.49453700  0.75727300  1
  O  O30  1  0.16608500  0.34396300  0.56694000  1
  O  O31  1  0.20719200  0.02439100  0.22716100  1
  O  O32  1  0.21083400  0.43707300  0.95714500  1
  O  O33  1  0.30586900  0.51492600  0.27322800  1
  O  O34  1  0.27617800  0.93154200  0.54741700  1
  O  O35  1  0.33451600  0.84897300  0.93940400  1
  O  O36  1  0.35483100  0.56091900  0.47774300  1
  O  O37  1  0.34688900  0.99363500  0.74416600  1
  O  O38  1  0.93441400  0.39725400  0.87709200  1
  O  O39  1  0.34616600  0.71468400  0.67515800  1
  O  O40  1  0.39088500  0.63577200  0.07309600  1
  O  O41  1  0.43299100  0.32529000  0.09808500  1
  O  O42  1  0.43643600  0.09625100  0.39015700  1
  O  O43  1  0.43278700  0.41538600  0.66581000  1
  O  O44  1  0.42632400  0.14652800  0.92839400  1
  O  O45  1  0.57166100  0.86168400  0.06429300  1
  O  O46  1  0.57571100  0.61376800  0.33993200  1
  O  O47  1  0.56164700  0.89864700  0.61544800  1
  O  O48  1  0.56522700  0.67968000  0.89680900  1
  O  O49  1  0.60492700  0.37539200  0.92244300  1
  O  O50  1  0.65230500  0.27618500  0.32781600  1
  O  O51  1  0.62818000  0.20505800  0.65182000  1
  O  O52  1  0.64909900  0.99608900  0.25845300  1
  O  O53  1  0.64914400  0.43362000  0.52236500  1
  O  O54  1  0.66657100  0.16212500  0.05133400  1
  O  O55  1  0.72192900  0.03517100  0.44814200  1
  O  O56  1  0.71121000  0.47511700  0.72467600  1
  O  O57  1  0.79172000  0.57190200  0.04141300  1
  O  O58  1  0.79164500  0.98286700  0.77457400  1
  O  O59  1  0.83016300  0.66595700  0.44687100  1
  O  O60  1  0.84070700  0.50176300  0.24303500  1
  O  O61  1  0.84148300  0.77835000  0.18478900  1
  O  O62  1  0.85875000  0.92369300  0.97327000  1
  O  O63  1  0.86898800  0.70758500  0.83288500  1
  O  O64  1  0.89405200  0.85766900  0.59376700  1
  O  O65  1  0.92978800  0.07842400  0.16331900  1
  O  O66  1  0.93795000  0.36548100  0.43472500  1
  O  O67  1  0.93097700  0.17399100  0.59730400  1
  O  O68  1  0.34537900  0.78940900  0.34642300  1
