# generated using pymatgen
data_Na7Al4SiP5O24
_symmetry_space_group_name_H-M   'P 1'
_cell_length_a   8.63640620
_cell_length_b   8.63517373
_cell_length_c   21.57682741
_cell_angle_alpha   90.15483509
_cell_angle_beta   89.70610032
_cell_angle_gamma   120.02022555
_symmetry_Int_Tables_number   1
_chemical_formula_structural   Na7Al4SiP5O24
_chemical_formula_sum   'Na21 Al12 Si3 P15 O72'
_cell_volume   1393.24692317
_cell_formula_units_Z   3
loop_
 _symmetry_equiv_pos_site_id
 _symmetry_equiv_pos_as_xyz
  1  'x, y, z'
loop_
 _atom_site_type_symbol
 _atom_site_label
 _atom_site_symmetry_multiplicity
 _atom_site_fract_x
 _atom_site_fract_y
 _atom_site_fract_z
 _atom_site_occupancy
  Na  Na0  1  0.36505528  0.36571697  0.25032049  1
  Na  Na1  1  0.99793905  0.63335171  0.24911179  1
  Na  Na2  1  0.63487094  0.63764145  0.74971597  1
  Na  Na3  1  0.99699348  0.36199835  0.75068630  1
  Na  Na4  1  0.36956084  0.00103219  0.74919077  1
  Na  Na5  1  0.30157242  0.32991051  0.58276519  1
  Na  Na6  1  0.03460393  0.70167118  0.58302930  1
  Na  Na7  1  0.66428291  0.96746806  0.58460341  1
  Na  Na8  1  0.29883788  0.96550135  0.08331332  1
  Na  Na9  1  0.66978849  0.69871600  0.08306724  1
  Na  Na10  1  0.03195695  0.33636671  0.08366889  1
  Na  Na11  1  0.96667707  0.66524112  0.91783155  1
  Na  Na12  1  0.69982005  0.03177994  0.91552994  1
  Na  Na13  1  0.96824761  0.30093107  0.41625604  1
  Na  Na14  1  0.33540683  0.03331505  0.41755960  1
  Na  Na15  1  0.99704154  0.99475353  0.49949062  1
  Na  Na16  1  0.00493750  0.00276146  0.99938528  1
  Na  Na17  1  0.66153571  0.33079473  0.83392945  1
  Na  Na18  1  0.66666556  0.33332888  0.33332497  1
  Na  Na19  1  0.33617359  0.67166236  0.16723402  1
  Na  Na20  1  0.33645779  0.67093923  0.66664730  1
  Al  Al21  1  0.99390791  0.99472960  0.35142984  1
  Al  Al22  1  0.00214653  0.00661006  0.85156203  1
  Al  Al23  1  0.00003019  0.99895513  0.64854684  1
  Al  Al24  1  0.99815902  0.99519345  0.14879207  1
  Al  Al25  1  0.66389086  0.32501405  0.68495913  1
  Al  Al26  1  0.67040297  0.33102154  0.18486267  1
  Al  Al27  1  0.66442219  0.33712043  0.98189860  1
  Al  Al28  1  0.66221034  0.33562820  0.48165529  1
  Al  Al29  1  0.32883437  0.66537330  0.01799796  1
  Al  Al30  1  0.33566981  0.67175476  0.51779806  1
  Al  Al31  1  0.33942654  0.67191763  0.31524502  1
  Al  Al32  1  0.33859621  0.66990286  0.81541345  1
  Si  Si33  1  0.71080813  0.00029709  0.75016381  1
  Si  Si34  1  0.37502565  0.04239776  0.58291920  1
  Si  Si35  1  0.95672336  0.62339724  0.08328862  1
  P  P36  1  0.29288250  0.00070148  0.25038130  1
  P  P37  1  0.70899035  0.71353599  0.25037871  1
  P  P38  1  0.99555785  0.28528510  0.25032802  1
  P  P39  1  0.28815144  0.28863472  0.75037480  1
  P  P40  1  0.99930671  0.71080906  0.75049469  1
  P  P41  1  0.95539347  0.33383521  0.58258135  1
  P  P42  1  0.66683827  0.62026006  0.58326804  1
  P  P43  1  0.66668719  0.04573194  0.08311392  1
  P  P44  1  0.37893783  0.33334290  0.08366467  1
  P  P45  1  0.61914298  0.66162511  0.91694435  1
  P  P46  1  0.04767321  0.37608944  0.91642309  1
  P  P47  1  0.33329267  0.96038706  0.91671177  1
  P  P48  1  0.62442091  0.95321114  0.41626681  1
  P  P49  1  0.33767953  0.38135489  0.41631643  1
  P  P50  1  0.04038868  0.66590570  0.41626937  1
  O  O51  1  0.20604934  0.03637394  0.30790129  1
  O  O52  1  0.83441578  0.79794849  0.30608300  1
  O  O53  1  0.96964855  0.17131396  0.30840484  1
  O  O54  1  0.20477627  0.16504186  0.80634737  1
  O  O55  1  0.96489613  0.79480343  0.80826172  1
  O  O56  1  0.83697927  0.03825883  0.81050287  1
  O  O57  1  0.79903393  0.96094902  0.68942584  1
  O  O58  1  0.17079587  0.20810462  0.69194207  1
  O  O59  1  0.03836528  0.83015185  0.69254834  1
  O  O60  1  0.79346342  0.82775523  0.19157717  1
  O  O61  1  0.03541152  0.20316573  0.19231812  1
  O  O62  1  0.17136746  0.96465688  0.19282868  1
  O  O63  1  0.87543520  0.37412844  0.64075825  1
  O  O64  1  0.50153384  0.12951006  0.64327620  1
  O  O65  1  0.63162209  0.50350233  0.64199103  1
  O  O66  1  0.86923820  0.49629165  0.14378733  1
  O  O67  1  0.62648025  0.12820079  0.13965650  1
  O  O68  1  0.49584156  0.36898052  0.14187630  1
  O  O69  1  0.46152091  0.29313607  0.02703567  1
  O  O70  1  0.82982538  0.53596667  0.02289605  1
  O  O71  1  0.70240705  0.16283803  0.02469828  1
  O  O72  1  0.46325735  0.16974187  0.52263118  1
  O  O73  1  0.70538103  0.53662049  0.52690006  1
  O  O74  1  0.83675345  0.29882506  0.52526254  1
  O  O75  1  0.53604975  0.70166077  0.97451658  1
  O  O76  1  0.16214824  0.46315148  0.97451713  1
  O  O77  1  0.29797125  0.83836226  0.97411934  1
  O  O78  1  0.53993531  0.83891821  0.47507087  1
  O  O79  1  0.29778759  0.46348319  0.47436136  1
  O  O80  1  0.16195441  0.70188796  0.47383977  1
  O  O81  1  0.12730561  0.63029436  0.35875861  1
  O  O82  1  0.49894814  0.86878697  0.36057398  1
  O  O83  1  0.36367006  0.49540707  0.35825924  1
  O  O84  1  0.13065775  0.49897162  0.85886250  1
  O  O85  1  0.36856165  0.87331136  0.85916146  1
  O  O86  1  0.50472461  0.63413528  0.85882699  1
  O  O87  1  0.02761427  0.83758467  0.40851581  1
  O  O88  1  0.81432854  0.97936483  0.40864142  1
  O  O89  1  0.16688981  0.19086521  0.40953865  1
  O  O90  1  0.02366767  0.18742124  0.91021638  1
  O  O91  1  0.16208741  0.97266798  0.90869827  1
  O  O92  1  0.80931181  0.83170439  0.91035933  1
  O  O93  1  0.97489266  0.16597844  0.58994253  1
  O  O94  1  0.17580649  0.02085314  0.59153067  1
  O  O95  1  0.83335308  0.80931203  0.58969938  1
  O  O96  1  0.97933256  0.82344887  0.09131064  1
  O  O97  1  0.83567813  0.02728644  0.09099732  1
  O  O98  1  0.18869652  0.16774328  0.09137698  1
  O  O99  1  0.69123123  0.17937480  0.74352201  1
  O  O100  1  0.47824049  0.31423781  0.74302239  1
  O  O101  1  0.83059016  0.52413831  0.74239336  1
  O  O102  1  0.68813893  0.52322450  0.24339331  1
  O  O103  1  0.83140829  0.30990356  0.24381081  1
  O  O104  1  0.47703527  0.17128012  0.24206281  1
  O  O105  1  0.64305856  0.49695942  0.92310557  1
  O  O106  1  0.85746523  0.35581677  0.92302147  1
  O  O107  1  0.50474910  0.14400548  0.92470948  1
  O  O108  1  0.64535641  0.14354546  0.42329785  1
  O  O109  1  0.50179634  0.35677694  0.42276983  1
  O  O110  1  0.85634502  0.49536040  0.42459368  1
  O  O111  1  0.36035804  0.50226353  0.07563903  1
  O  O112  1  0.15673256  0.64582315  0.07536946  1
  O  O113  1  0.50122798  0.85555546  0.07543072  1
  O  O114  1  0.35360372  0.84285535  0.57515803  1
  O  O115  1  0.49759896  0.63882658  0.57573460  1
  O  O116  1  0.14523751  0.50008610  0.57533772  1
  O  O117  1  0.30573862  0.82906070  0.25813887  1
  O  O118  1  0.51902893  0.68735046  0.25800042  1
  O  O119  1  0.16640553  0.47579938  0.25711840  1
  O  O120  1  0.30603327  0.47607977  0.75804206  1
  O  O121  1  0.16543345  0.68746463  0.75778819  1
  O  O122  1  0.51062488  0.82240575  0.75788869  1
