# generated using pymatgen
data_NaHfInSi(SO6)2
_symmetry_space_group_name_H-M   'P 1'
_cell_length_a   8.88535730
_cell_length_b   8.94186109
_cell_length_c   23.45558804
_cell_angle_alpha   89.52581662
_cell_angle_beta   90.00000000
_cell_angle_gamma   119.79118774
_symmetry_Int_Tables_number   1
_chemical_formula_structural   NaHfInSi(SO6)2
_chemical_formula_sum   'Na6 Hf6 In6 Si6 S12 O72'
_cell_volume   1617.22332498
_cell_formula_units_Z   6
loop_
 _symmetry_equiv_pos_site_id
 _symmetry_equiv_pos_as_xyz
  1  'x, y, z'
loop_
 _atom_site_type_symbol
 _atom_site_label
 _atom_site_symmetry_multiplicity
 _atom_site_fract_x
 _atom_site_fract_y
 _atom_site_fract_z
 _atom_site_occupancy
  Na  Na0  1  0.02130818  0.01183428  0.50357309  1
  Na  Na1  1  0.99052610  0.01183428  0.00357309  1
  Na  Na2  1  0.68562673  0.33070209  0.83603534  1
  Na  Na3  1  0.64507636  0.33070209  0.33603534  1
  Na  Na4  1  0.34099762  0.68821995  0.16960496  1
  Na  Na5  1  0.34722133  0.68821995  0.66960496  1
  Hf  Hf6  1  0.01940439  0.01331082  0.35413750  1
  Hf  Hf7  1  0.99390643  0.01331082  0.85413750  1
  Hf  Hf8  1  0.65795015  0.31141291  0.68650620  1
  Hf  Hf9  1  0.65346376  0.31141291  0.18650620  1
  Hf  Hf10  1  0.33261006  0.66554046  0.01982572  1
  Hf  Hf11  1  0.33292940  0.66554046  0.51982572  1
  In  In12  1  0.99715750  0.99681020  0.64941555  1
  In  In13  1  0.99965270  0.99681020  0.14941555  1
  In  In14  1  0.68365727  0.32573485  0.98201857  1
  In  In15  1  0.64207857  0.32573485  0.48201857  1
  In  In16  1  0.33661780  0.67058350  0.31540101  1
  In  In17  1  0.33396470  0.67058350  0.81540101  1
  Si  Si18  1  0.28924839  0.99239747  0.24874395  1
  Si  Si19  1  0.70314908  0.99239747  0.74874395  1
  Si  Si20  1  0.36380607  0.03253577  0.58383695  1
  Si  Si21  1  0.66873070  0.03253577  0.08383695  1
  Si  Si22  1  0.04449255  0.38132435  0.91543223  1
  Si  Si23  1  0.33683080  0.38132435  0.41543223  1
  S  S24  1  0.70929810  0.70543565  0.25033525  1
  S  S25  1  0.99910008  0.29298079  0.24971520  1
  S  S26  1  0.29388070  0.29298079  0.74971520  1
  S  S27  1  0.99613755  0.70543565  0.75033525  1
  S  S28  1  0.95641703  0.33615894  0.58167936  1
  S  S29  1  0.66710640  0.62479072  0.58305791  1
  S  S30  1  0.95768531  0.62479072  0.08305791  1
  S  S31  1  0.37974291  0.33615894  0.08167936  1
  S  S32  1  0.62717334  0.66431025  0.91759689  1
  S  S33  1  0.33121466  0.96032380  0.91668893  1
  S  S34  1  0.62910815  0.96032380  0.41668893  1
  S  S35  1  0.03713591  0.66431025  0.41759689  1
  O  O36  1  0.19624371  0.02267372  0.30535723  1
  O  O37  1  0.81491106  0.79213714  0.30162932  1
  O  O38  1  0.96873058  0.18103674  0.30139861  1
  O  O39  1  0.21230615  0.18103674  0.80139861  1
  O  O40  1  0.97722608  0.79213714  0.80162932  1
  O  O41  1  0.82643001  0.02267372  0.80535723  1
  O  O42  1  0.78833507  0.96827341  0.69173064  1
  O  O43  1  0.19294406  0.21596179  0.69825241  1
  O  O44  1  0.02622826  0.80855508  0.69809156  1
  O  O45  1  0.78232682  0.80855508  0.19809156  1
  O  O46  1  0.02301773  0.21596179  0.19825241  1
  O  O47  1  0.17993833  0.96827341  0.19173064  1
  O  O48  1  0.87377725  0.36158997  0.63371995  1
  O  O49  1  0.49082371  0.13089259  0.63957763  1
  O  O50  1  0.64348329  0.51789323  0.63477571  1
  O  O51  1  0.87441094  0.51789323  0.13477571  1
  O  O52  1  0.64006988  0.13089259  0.13957763  1
  O  O53  1  0.48781372  0.36158997  0.13371995  1
  O  O54  1  0.46145391  0.31749876  0.03004188  1
  O  O55  1  0.85397478  0.55187377  0.03145967  1
  O  O56  1  0.69878820  0.14476750  0.02709460  1
  O  O57  1  0.44598030  0.14476750  0.52709460  1
  O  O58  1  0.69789999  0.55187377  0.53145967  1
  O  O59  1  0.85604585  0.31749876  0.53004188  1
  O  O60  1  0.54501071  0.69649743  0.96829112  1
  O  O61  1  0.16431685  0.47426800  0.97217716  1
  O  O62  1  0.31093080  0.85093171  0.96820093  1
  O  O63  1  0.53999991  0.85093171  0.46820093  1
  O  O64  1  0.30995015  0.47426800  0.47217716  1
  O  O65  1  0.15148571  0.69649743  0.46829112  1
  O  O66  1  0.11295782  0.64182399  0.36536563  1
  O  O67  1  0.52393823  0.88989206  0.36533266  1
  O  O68  1  0.35808360  0.48931378  0.35810335  1
  O  O69  1  0.13122918  0.48931378  0.85810335  1
  O  O70  1  0.36595283  0.88989206  0.86533266  1
  O  O71  1  0.52886517  0.64182399  0.86536563  1
  O  O72  1  0.01680826  0.82103895  0.41150632  1
  O  O73  1  0.79739711  0.96441111  0.41083851  1
  O  O74  1  0.15746589  0.18704119  0.41045446  1
  O  O75  1  0.02957529  0.18704119  0.91045446  1
  O  O76  1  0.16701400  0.96441111  0.91083851  1
  O  O77  1  0.80423068  0.82103895  0.91150632  1
  O  O78  1  0.97823485  0.18477399  0.58801704  1
  O  O79  1  0.17256096  0.01251220  0.59058319  1
  O  O80  1  0.81466778  0.79998773  0.58774766  1
  O  O81  1  0.98531995  0.79998773  0.08774766  1
  O  O82  1  0.83995123  0.01251220  0.09058319  1
  O  O83  1  0.20653915  0.18477399  0.08801704  1
  O  O84  1  0.69357225  0.17347921  0.74379078  1
  O  O85  1  0.47034598  0.31067719  0.74429233  1
  O  O86  1  0.83507765  0.53498301  0.74421442  1
  O  O87  1  0.69990636  0.53498301  0.24421442  1
  O  O88  1  0.84033221  0.31067719  0.24429233  1
  O  O89  1  0.47990796  0.17347921  0.24379078  1
  O  O90  1  0.64317423  0.51071189  0.92654551  1
  O  O91  1  0.85083957  0.35760655  0.91718346  1
  O  O92  1  0.47688428  0.13666818  0.92348639  1
  O  O93  1  0.65978489  0.13666818  0.42348639  1
  O  O94  1  0.50676798  0.35760655  0.41718346  1
  O  O95  1  0.86753867  0.51071189  0.42654551  1
  O  O96  1  0.36388401  0.49489256  0.07712974  1
  O  O97  1  0.13153844  0.63556132  0.07685395  1
  O  O98  1  0.49089914  0.84314327  0.07660094  1
  O  O99  1  0.35224313  0.84314327  0.57660094  1
  O  O100  1  0.50402188  0.63556132  0.57685395  1
  O  O101  1  0.13100754  0.49489256  0.57712974  1
  O  O102  1  0.31699568  0.82712532  0.25581268  1
  O  O103  1  0.53271596  0.68089926  0.25490002  1
  O  O104  1  0.15044156  0.46419963  0.25583795  1
  O  O105  1  0.31375707  0.46419963  0.75583795  1
  O  O106  1  0.14818230  0.68089926  0.75490002  1
  O  O107  1  0.51012863  0.82712532  0.75581268  1
