# generated using pymatgen
data_NaHfAlSi(SO6)2
_symmetry_space_group_name_H-M   'P 1'
_cell_length_a   8.68660418
_cell_length_b   8.69710012
_cell_length_c   22.59838346
_cell_angle_alpha   89.15076716
_cell_angle_beta   90.00000000
_cell_angle_gamma   119.96008634
_symmetry_Int_Tables_number   1
_chemical_formula_structural   NaHfAlSi(SO6)2
_chemical_formula_sum   'Na6 Hf6 Al6 Si6 S12 O72'
_cell_volume   1478.91590264
_cell_formula_units_Z   6
loop_
 _symmetry_equiv_pos_site_id
 _symmetry_equiv_pos_as_xyz
  1  'x, y, z'
loop_
 _atom_site_type_symbol
 _atom_site_label
 _atom_site_symmetry_multiplicity
 _atom_site_fract_x
 _atom_site_fract_y
 _atom_site_fract_z
 _atom_site_occupancy
  Na  Na0  1  0.02418800  0.01798573  0.50522089  1
  Na  Na1  1  0.99379773  0.01798573  0.00522089  1
  Na  Na2  1  0.68308106  0.32705706  0.83690736  1
  Na  Na3  1  0.64397700  0.32705706  0.33690736  1
  Na  Na4  1  0.34530506  0.69109684  0.17065475  1
  Na  Na5  1  0.34579078  0.69109684  0.67065475  1
  Hf  Hf6  1  0.01508462  0.00970286  0.35575793  1
  Hf  Hf7  1  0.99461824  0.00970286  0.85575793  1
  Hf  Hf8  1  0.65765812  0.31359792  0.68815043  1
  Hf  Hf9  1  0.65594080  0.31359792  0.18815043  1
  Hf  Hf10  1  0.33517882  0.66602532  0.02153552  1
  Hf  Hf11  1  0.33084550  0.66602532  0.52153552  1
  Al  Al12  1  0.99384486  0.99328526  0.64837408  1
  Al  Al13  1  0.99944040  0.99328526  0.14837408  1
  Al  Al14  1  0.69467191  0.32456401  0.98032816  1
  Al  Al15  1  0.62989310  0.32456401  0.48032816  1
  Al  Al16  1  0.33913383  0.67054290  0.31292908  1
  Al  Al17  1  0.33140807  0.67054290  0.81292908  1
  Si  Si18  1  0.27792513  0.97863484  0.24765139  1
  Si  Si19  1  0.70070971  0.97863484  0.74765139  1
  Si  Si20  1  0.35848981  0.04298632  0.58337772  1
  Si  Si21  1  0.68449751  0.04298632  0.08337772  1
  Si  Si22  1  0.04619325  0.39220620  0.91390638  1
  Si  Si23  1  0.34601195  0.39220620  0.41390638  1
  S  S24  1  0.70871123  0.71652600  0.24931282  1
  S  S25  1  0.01166219  0.29516929  0.24836033  1
  S  S26  1  0.28350710  0.29516929  0.74836033  1
  S  S27  1  0.00781477  0.71652600  0.74931282  1
  S  S28  1  0.94539231  0.32235111  0.58111367  1
  S  S29  1  0.67740388  0.62552018  0.58170917  1
  S  S30  1  0.94811730  0.62552018  0.08170917  1
  S  S31  1  0.37695980  0.32235111  0.08111367  1
  S  S32  1  0.61776625  0.65163855  0.91618773  1
  S  S33  1  0.34536228  0.96314662  0.91509559  1
  S  S34  1  0.61778333  0.96314662  0.41509559  1
  S  S35  1  0.03387130  0.65163855  0.41618773  1
  O  O36  1  0.19383355  0.01547666  0.30670270  1
  O  O37  1  0.81266299  0.79608163  0.30326793  1
  O  O38  1  0.97040047  0.18248052  0.30290790  1
  O  O39  1  0.21208005  0.18248052  0.80290790  1
  O  O40  1  0.98341865  0.79608163  0.80326793  1
  O  O41  1  0.82164311  0.01547666  0.80670270  1
  O  O42  1  0.80413275  0.96186675  0.69024579  1
  O  O43  1  0.17758677  0.20647805  0.69618953  1
  O  O44  1  0.03355823  0.82654661  0.69581549  1
  O  O45  1  0.79298837  0.82654661  0.19581549  1
  O  O46  1  0.02889128  0.20647805  0.19618953  1
  O  O47  1  0.15773401  0.96186675  0.19024579  1
  O  O48  1  0.87134553  0.35685965  0.63546506  1
  O  O49  1  0.48509630  0.12885863  0.64136475  1
  O  O50  1  0.65060934  0.51957354  0.63620186  1
  O  O51  1  0.86896520  0.51957354  0.13620186  1
  O  O52  1  0.64376333  0.12885863  0.14136475  1
  O  O53  1  0.48551513  0.35685965  0.13546506  1
  O  O54  1  0.46777589  0.30845928  0.02837697  1
  O  O55  1  0.84016164  0.53961923  0.02882329  1
  O  O56  1  0.70725758  0.16553597  0.02524851  1
  O  O57  1  0.45827939  0.16553597  0.52524851  1
  O  O58  1  0.69945860  0.53961923  0.52882329  1
  O  O59  1  0.84068439  0.30845928  0.52837697  1
  O  O60  1  0.54532938  0.69398225  0.96945767  1
  O  O61  1  0.16108141  0.47441499  0.97362254  1
  O  O62  1  0.31776108  0.85485182  0.96960985  1
  O  O63  1  0.53708974  0.85485182  0.46960985  1
  O  O64  1  0.31333258  0.47441499  0.47362254  1
  O  O65  1  0.14865187  0.69398225  0.46945767  1
  O  O66  1  0.12232216  0.63682004  0.36304065  1
  O  O67  1  0.50840008  0.88276855  0.36234582  1
  O  O68  1  0.36268675  0.51323123  0.35637825  1
  O  O69  1  0.15054348  0.51323123  0.85637825  1
  O  O70  1  0.37436747  0.88276855  0.86234582  1
  O  O71  1  0.51449688  0.63682004  0.86304065  1
  O  O72  1  0.00238554  0.80613371  0.41101465  1
  O  O73  1  0.79292211  0.97291179  0.40960119  1
  O  O74  1  0.16823697  0.19079936  0.41095973  1
  O  O75  1  0.02256240  0.19079936  0.91095973  1
  O  O76  1  0.17998968  0.97291179  0.90960119  1
  O  O77  1  0.80374817  0.80613371  0.91101465  1
  O  O78  1  0.96101071  0.16272498  0.58888162  1
  O  O79  1  0.16624947  0.02648408  0.59600706  1
  O  O80  1  0.83438610  0.80327769  0.58687547  1
  O  O81  1  0.96889159  0.80327769  0.08687547  1
  O  O82  1  0.86023461  0.02648408  0.09600706  1
  O  O83  1  0.20171427  0.16272498  0.08888162  1
  O  O84  1  0.68452920  0.16035186  0.74508321  1
  O  O85  1  0.46877392  0.32503478  0.74343937  1
  O  O86  1  0.84592656  0.53840987  0.74356770  1
  O  O87  1  0.69248431  0.53840987  0.24356770  1
  O  O88  1  0.85626186  0.32503478  0.24343937  1
  O  O89  1  0.47582366  0.16035186  0.24508321  1
  O  O90  1  0.62582108  0.48862288  0.92615965  1
  O  O91  1  0.84987493  0.37214639  0.92146603  1
  O  O92  1  0.49846919  0.14330299  0.92288056  1
  O  O93  1  0.64483480  0.14330299  0.42288056  1
  O  O94  1  0.52227246  0.37214639  0.42146603  1
  O  O95  1  0.86280279  0.48862288  0.42615965  1
  O  O96  1  0.35316135  0.48135674  0.07714139  1
  O  O97  1  0.12895915  0.64412084  0.07695954  1
  O  O98  1  0.50660817  0.84597960  0.07791150  1
  O  O99  1  0.33937043  0.84597960  0.57791150  1
  O  O100  1  0.51516069  0.64412084  0.57695954  1
  O  O101  1  0.12819439  0.48135674  0.57714139  1
  O  O102  1  0.30357541  0.80781219  0.25999728  1
  O  O103  1  0.52977681  0.69652642  0.25509805  1
  O  O104  1  0.17291661  0.46806145  0.25531843  1
  O  O105  1  0.29514384  0.46806145  0.75531843  1
  O  O106  1  0.16674861  0.69652642  0.75509805  1
  O  O107  1  0.50423578  0.80781219  0.75999728  1
