# generated using pymatgen
data_Na2Te4O9
_symmetry_space_group_name_H-M   'P 1'
_cell_length_a   6.87873833
_cell_length_b   7.35730314
_cell_length_c   10.48452914
_cell_angle_alpha   69.79035285
_cell_angle_beta   90.30629311
_cell_angle_gamma   69.60516506
_symmetry_Int_Tables_number   1
_chemical_formula_structural   Na2Te4O9
_chemical_formula_sum   'Na4 Te8 O18'
_cell_volume   461.93676797
_cell_formula_units_Z   2
loop_
 _symmetry_equiv_pos_site_id
 _symmetry_equiv_pos_as_xyz
  1  'x, y, z'
loop_
 _atom_site_type_symbol
 _atom_site_label
 _atom_site_symmetry_multiplicity
 _atom_site_fract_x
 _atom_site_fract_y
 _atom_site_fract_z
 _atom_site_occupancy
  Na  Na0  1  0.02108918  0.17816741  0.36448218  1
  Na  Na1  1  0.97891082  0.82183259  0.63551782  1
  Na  Na2  1  0.52308075  0.22076719  0.51178766  1
  Na  Na3  1  0.47691925  0.77923281  0.48821234  1
  Te  Te4  1  0.97391333  0.32776134  0.66859134  1
  Te  Te5  1  0.02608667  0.67223866  0.33140866  1
  Te  Te6  1  0.48327136  0.20412086  0.19607795  1
  Te  Te7  1  0.51672864  0.79587914  0.80392205  1
  Te  Te8  1  0.54010328  0.63564384  0.21332498  1
  Te  Te9  1  0.45989672  0.36435616  0.78667502  1
  Te  Te10  1  0.98800890  0.28416833  0.01082042  1
  Te  Te11  1  0.01199110  0.71583167  0.98917958  1
  O  O12  1  0.03467055  0.15942415  0.86044676  1
  O  O13  1  0.96532945  0.84057585  0.13955324  1
  O  O14  1  0.96008323  0.87650886  0.40252493  1
  O  O15  1  0.03991677  0.12349114  0.59747507  1
  O  O16  1  0.28492455  0.13931535  0.09338667  1
  O  O17  1  0.71507545  0.86068465  0.90661333  1
  O  O18  1  0.66253857  0.33157898  0.66578494  1
  O  O19  1  0.33746143  0.66842102  0.33421506  1
  O  O20  1  0.94078246  0.49655840  0.11602466  1
  O  O21  1  0.05921754  0.50344160  0.88397534  1
  O  O22  1  0.36522076  0.14066623  0.35393303  1
  O  O23  1  0.63477924  0.85933377  0.64606697  1
  O  O24  1  0.33288011  0.50052086  0.11218813  1
  O  O25  1  0.66711989  0.49947914  0.88781187  1
  O  O26  1  0.33826085  0.65748862  0.70094960  1
  O  O27  1  0.66173915  0.34251138  0.29905040  1
  O  O28  1  0.71279268  0.68856380  0.33179833  1
  O  O29  1  0.28720732  0.31143620  0.66820167  1
