# generated using pymatgen
data_MgZn2(CoO3)2
_symmetry_space_group_name_H-M   'P 1'
_cell_length_a   5.25105717
_cell_length_b   5.95777410
_cell_length_c   5.23292649
_cell_angle_alpha   118.87258080
_cell_angle_beta   58.72568529
_cell_angle_gamma   117.17597284
_symmetry_Int_Tables_number   1
_chemical_formula_structural   MgZn2(CoO3)2
_chemical_formula_sum   'Mg1 Zn2 Co2 O6'
_cell_volume   117.79383178
_cell_formula_units_Z   1
loop_
 _symmetry_equiv_pos_site_id
 _symmetry_equiv_pos_as_xyz
  1  'x, y, z'
loop_
 _atom_site_type_symbol
 _atom_site_label
 _atom_site_symmetry_multiplicity
 _atom_site_fract_x
 _atom_site_fract_y
 _atom_site_fract_z
 _atom_site_occupancy
  Mg  Mg0  1  0.00000000  0.00000000  0.00000000  1
  Zn  Zn1  1  0.39091300  0.18821500  0.39719800  1
  Zn  Zn2  1  0.60908700  0.81178500  0.60280200  1
  Co  Co3  1  0.17864900  0.54183000  0.17455800  1
  Co  Co4  1  0.82135100  0.45817000  0.82544200  1
  O  O5  1  0.05153000  0.26219400  0.42257000  1
  O  O6  1  0.39575300  0.26836300  0.80291000  1
  O  O7  1  0.78815300  0.25671400  0.05829800  1
  O  O8  1  0.21184700  0.74328600  0.94170200  1
  O  O9  1  0.60424600  0.73163700  0.19709000  1
  O  O10  1  0.94847000  0.73780600  0.57742900  1
