# generated using pymatgen
data_K4Mg(WO4)2
_symmetry_space_group_name_H-M   'P 1'
_cell_length_a   6.80975649
_cell_length_b   8.63903512
_cell_length_c   7.20645954
_cell_angle_alpha   107.44043566
_cell_angle_beta   90.00000000
_cell_angle_gamma   113.21154739
_symmetry_Int_Tables_number   1
_chemical_formula_structural   K4Mg(WO4)2
_chemical_formula_sum   'K4 Mg1 W2 O8'
_cell_volume   368.33658006
_cell_formula_units_Z   1
loop_
 _symmetry_equiv_pos_site_id
 _symmetry_equiv_pos_as_xyz
  1  'x, y, z'
loop_
 _atom_site_type_symbol
 _atom_site_label
 _atom_site_symmetry_multiplicity
 _atom_site_fract_x
 _atom_site_fract_y
 _atom_site_fract_z
 _atom_site_occupancy
  K  K0  1  0.60440695  0.12281404  0.28571106  1
  K  K1  1  0.48159391  0.87718596  0.71428894  1
  K  K2  1  0.20670244  0.45009167  0.80884952  1
  K  K3  1  0.75661177  0.54990833  0.19115048  1
  Mg  Mg4  1  0.11843138  -0.00000000  0.50000000  1
  W  W5  1  0.17137416  0.32524273  0.27261750  1
  W  W6  1  0.84613244  0.67475727  0.72738250  1
  O  O7  1  0.36850032  0.26658338  0.13514546  1
  O  O8  1  0.10191695  0.73341662  0.86485454  1
  O  O9  1  0.64507652  0.67002343  0.89509775  1
  O  O10  1  0.97505309  0.32997657  0.10490225  1
  O  O11  1  0.86330636  0.83508814  0.59673984  1
  O  O12  1  0.02821822  0.16491186  0.40326016  1
  O  O13  1  0.31246655  0.54225761  0.45274180  1
  O  O14  1  0.77020894  0.45774239  0.54725820  1
