# generated using pymatgen
data_Na3NbO4
_symmetry_space_group_name_H-M   'P 1'
_cell_length_a   8.53442467
_cell_length_b   8.53442467
_cell_length_c   5.71340387
_cell_angle_alpha   77.59455688
_cell_angle_beta   77.59455688
_cell_angle_gamma   98.89216295
_symmetry_Int_Tables_number   1
_chemical_formula_structural   Na3NbO4
_chemical_formula_sum   'Na12 Nb4 O16'
_cell_volume   388.04970811
_cell_formula_units_Z   4
loop_
 _symmetry_equiv_pos_site_id
 _symmetry_equiv_pos_as_xyz
  1  'x, y, z'
loop_
 _atom_site_type_symbol
 _atom_site_label
 _atom_site_symmetry_multiplicity
 _atom_site_fract_x
 _atom_site_fract_y
 _atom_site_fract_z
 _atom_site_occupancy
  Na  Na0  1  0.50000000  0.00000000  -0.00000000  1
  Na  Na1  1  0.26004638  0.73995362  0.50000000  1
  Na  Na2  1  0.73995362  0.26004638  0.50000000  1
  Na  Na3  1  0.00000000  0.00000000  0.50000000  1
  Na  Na4  1  0.37372968  0.11929890  0.47986449  1
  Na  Na5  1  0.88070110  0.62627032  0.52013551  1
  Na  Na6  1  0.62627032  0.88070110  0.52013551  1
  Na  Na7  1  0.11929890  0.37372968  0.47986449  1
  Na  Na8  1  0.62394449  0.37605551  -0.00000000  1
  Na  Na9  1  0.00000000  0.50000000  -0.00000000  1
  Na  Na10  1  0.37605551  0.62394449  -0.00000000  1
  Na  Na11  1  0.50000000  0.50000000  0.50000000  1
  Nb  Nb12  1  0.73796645  0.73796645  0.02885423  1
  Nb  Nb13  1  0.26203355  0.26203355  0.97114577  1
  Nb  Nb14  1  0.13446736  0.86553264  -0.00000000  1
  Nb  Nb15  1  0.86553264  0.13446736  -0.00000000  1
  O  O16  1  0.53448782  0.75342004  0.23328844  1
  O  O17  1  0.24657996  0.46551218  0.76671156  1
  O  O18  1  0.46551218  0.24657996  0.76671156  1
  O  O19  1  0.75342004  0.53448782  0.23328844  1
  O  O20  1  0.23319360  0.00806599  0.19445386  1
  O  O21  1  0.99193401  0.76680640  0.80554614  1
  O  O22  1  0.76680640  0.99193401  0.80554614  1
  O  O23  1  0.00806599  0.23319360  0.19445386  1
  O  O24  1  0.34766510  0.34766510  0.21050484  1
  O  O25  1  0.65233490  0.65233490  0.78949516  1
  O  O26  1  0.33651701  0.87501123  0.77250826  1
  O  O27  1  0.12498877  0.66348299  0.22749174  1
  O  O28  1  0.66348299  0.12498877  0.22749174  1
  O  O29  1  0.11314883  0.11314883  0.79945577  1
  O  O30  1  0.88685117  0.88685117  0.20054423  1
  O  O31  1  0.87501123  0.33651701  0.77250826  1
