# generated using pymatgen
data_VSO5
_symmetry_space_group_name_H-M   'P 1'
_cell_length_a   6.29327017
_cell_length_b   7.21683283
_cell_length_c   7.18687536
_cell_angle_alpha   90.00000000
_cell_angle_beta   90.00000000
_cell_angle_gamma   90.00000000
_symmetry_Int_Tables_number   1
_chemical_formula_structural   VSO5
_chemical_formula_sum   'V4 S4 O20'
_cell_volume   326.40975909
_cell_formula_units_Z   4
loop_
 _symmetry_equiv_pos_site_id
 _symmetry_equiv_pos_as_xyz
  1  'x, y, z'
loop_
 _atom_site_type_symbol
 _atom_site_label
 _atom_site_symmetry_multiplicity
 _atom_site_fract_x
 _atom_site_fract_y
 _atom_site_fract_z
 _atom_site_occupancy
  V  V0  1  0.25000000  0.65956779  0.73391312  1
  V  V1  1  0.75000000  0.34043221  0.26608688  1
  V  V2  1  0.75000000  0.84043221  0.23391312  1
  V  V3  1  0.25000000  0.15956779  0.76608688  1
  S  S4  1  0.75000000  0.62502717  0.62940151  1
  S  S5  1  0.25000000  0.37497283  0.37059849  1
  S  S6  1  0.25000000  0.87497283  0.12940151  1
  S  S7  1  0.75000000  0.12502717  0.87059849  1
  O  O8  1  0.75000000  0.78901494  0.50839145  1
  O  O9  1  0.25000000  0.21098506  0.49160855  1
  O  O10  1  0.25000000  0.71098506  0.00839145  1
  O  O11  1  0.75000000  0.28901494  0.99160855  1
  O  O12  1  0.75000000  0.45251187  0.51925143  1
  O  O13  1  0.25000000  0.54748813  0.48074857  1
  O  O14  1  0.25000000  0.04748813  0.01925143  1
  O  O15  1  0.75000000  0.95251187  0.98074857  1
  O  O16  1  0.93562509  0.12712361  0.74749382  1
  O  O17  1  0.43562509  0.87287639  0.25250618  1
  O  O18  1  0.06437491  0.37287639  0.24749382  1
  O  O19  1  0.56437491  0.62712361  0.75250618  1
  O  O20  1  0.06437491  0.87287639  0.25250618  1
  O  O21  1  0.56437491  0.12712361  0.74749382  1
  O  O22  1  0.25000000  0.87963841  0.67897306  1
  O  O23  1  0.43562509  0.37287639  0.24749382  1
  O  O24  1  0.25000000  0.37963841  0.82102694  1
  O  O25  1  0.75000000  0.62036159  0.17897306  1
  O  O26  1  0.75000000  0.12036159  0.32102694  1
  O  O27  1  0.93562509  0.62712361  0.75250618  1
