# generated using pymatgen
data_ZrGaP(SO6)2
_symmetry_space_group_name_H-M   'P 1'
_cell_length_a   8.76553207
_cell_length_b   8.74454983
_cell_length_c   22.58442432
_cell_angle_alpha   90.40375516
_cell_angle_beta   90.00000000
_cell_angle_gamma   120.07940543
_symmetry_Int_Tables_number   1
_chemical_formula_structural   ZrGaP(SO6)2
_chemical_formula_sum   'Zr6 Ga6 P6 S12 O72'
_cell_volume   1497.93490879
_cell_formula_units_Z   6
loop_
 _symmetry_equiv_pos_site_id
 _symmetry_equiv_pos_as_xyz
  1  'x, y, z'
loop_
 _atom_site_type_symbol
 _atom_site_label
 _atom_site_symmetry_multiplicity
 _atom_site_fract_x
 _atom_site_fract_y
 _atom_site_fract_z
 _atom_site_occupancy
  Zr  Zr0  1  0.00227836  0.00112116  0.64197184  1
  Zr  Zr1  1  0.99884280  0.00112116  0.14197184  1
  Zr  Zr2  1  0.66527759  0.33249827  0.97544419  1
  Zr  Zr3  1  0.66722168  0.33249827  0.47544419  1
  Zr  Zr4  1  0.34058172  0.66088663  0.30869163  1
  Zr  Zr5  1  0.32030392  0.66088663  0.80869163  1
  Ga  Ga6  1  0.00050470  0.99858882  0.35330259  1
  Ga  Ga7  1  0.99808412  0.99858882  0.85330259  1
  Ga  Ga8  1  0.68750943  0.34536569  0.68732159  1
  Ga  Ga9  1  0.65785726  0.34536569  0.18732159  1
  Ga  Ga10  1  0.32713376  0.64487493  0.01992713  1
  Ga  Ga11  1  0.31774017  0.64487493  0.51992713  1
  P  P12  1  0.72568601  0.71078609  0.25147830  1
  P  P13  1  0.98510008  0.71078609  0.75147830  1
  P  P14  1  0.96013133  0.34574238  0.58399160  1
  P  P15  1  0.38561205  0.34574238  0.08399160  1
  P  P16  1  0.04957556  0.36668999  0.91691754  1
  P  P17  1  0.31711343  0.36668999  0.41691754  1
  S  S18  1  0.29514563  0.01030223  0.25056548  1
  S  S19  1  0.98347803  0.28287903  0.25004053  1
  S  S20  1  0.29940100  0.28287903  0.75004053  1
  S  S21  1  0.71515660  0.01030223  0.75056548  1
  S  S22  1  0.38635135  0.03822056  0.58387459  1
  S  S23  1  0.65269627  0.61603102  0.58392331  1
  S  S24  1  0.96333575  0.61603102  0.08392331  1
  S  S25  1  0.65187021  0.03822056  0.08387459  1
  S  S26  1  0.62733947  0.67958488  0.91697109  1
  S  S27  1  0.32048633  0.94648015  0.91814565  1
  S  S28  1  0.62599282  0.94648015  0.41814565  1
  S  S29  1  0.05224441  0.67958488  0.41697109  1
  O  O30  1  0.21575428  0.04136434  0.30364919  1
  O  O31  1  0.83776877  0.80051010  0.30696366  1
  O  O32  1  0.95964414  0.17653261  0.30321770  1
  O  O33  1  0.21688847  0.17653261  0.80321770  1
  O  O34  1  0.96274132  0.80051010  0.80696366  1
  O  O35  1  0.82561006  0.04136434  0.80364919  1
  O  O36  1  0.79345108  0.97572838  0.69751346  1
  O  O37  1  0.18274999  0.20744033  0.69734607  1
  O  O38  1  0.02159992  0.82695676  0.69636102  1
  O  O39  1  0.80535684  0.82695676  0.19636102  1
  O  O40  1  0.02469034  0.20744033  0.19734607  1
  O  O41  1  0.18227730  0.97572838  0.19751346  1
  O  O42  1  0.87367929  0.37296053  0.63924968  1
  O  O43  1  0.49303321  0.12298014  0.63743564  1
  O  O44  1  0.62434445  0.50671144  0.63693057  1
  O  O45  1  0.88236799  0.50671144  0.13693057  1
  O  O46  1  0.62994793  0.12298014  0.13743564  1
  O  O47  1  0.49928224  0.37296053  0.13924968  1
  O  O48  1  0.46716686  0.30849204  0.02899411  1
  O  O49  1  0.84940531  0.53809276  0.03092612  1
  O  O50  1  0.69058646  0.15266499  0.03100912  1
  O  O51  1  0.46207953  0.15266499  0.53100912  1
  O  O52  1  0.68868845  0.53809276  0.53092612  1
  O  O53  1  0.84132619  0.30849204  0.52899411  1
  O  O54  1  0.54700355  0.70791843  0.97048538  1
  O  O55  1  0.16438932  0.45497727  0.97185561  1
  O  O56  1  0.29797233  0.83990151  0.97094964  1
  O  O57  1  0.54192818  0.83990151  0.47094964  1
  O  O58  1  0.29058695  0.45497727  0.47185561  1
  O  O59  1  0.16091388  0.70791843  0.47048538  1
  O  O60  1  0.12944127  0.64427865  0.36394914  1
  O  O61  1  0.51277074  0.87102068  0.36449912  1
  O  O62  1  0.35661664  0.48842433  0.36235943  1
  O  O63  1  0.13180669  0.48842433  0.86235943  1
  O  O64  1  0.35824894  0.87102068  0.86449912  1
  O  O65  1  0.51483638  0.64427865  0.86394914  1
  O  O66  1  0.03062105  0.83370752  0.40905199  1
  O  O67  1  0.80099952  0.96829650  0.40904320  1
  O  O68  1  0.15618368  0.18523313  0.40466064  1
  O  O69  1  0.02904945  0.18523313  0.90466064  1
  O  O70  1  0.16729698  0.96829650  0.90904320  1
  O  O71  1  0.80308647  0.83370752  0.90905199  1
  O  O72  1  0.97899742  0.18052469  0.59285788  1
  O  O73  1  0.20841658  0.02075660  0.59070488  1
  O  O74  1  0.81390458  0.79265410  0.59102007  1
  O  O75  1  0.97874952  0.79265410  0.09102007  1
  O  O76  1  0.81234002  0.02075660  0.09070488  1
  O  O77  1  0.20152727  0.18052469  0.09285788  1
  O  O78  1  0.69118578  0.16335054  0.74155884  1
  O  O79  1  0.47207024  0.30088734  0.73965929  1
  O  O80  1  0.82384641  0.52700589  0.74243863  1
  O  O81  1  0.70316048  0.52700589  0.24243863  1
  O  O82  1  0.82881810  0.30088734  0.23965929  1
  O  O83  1  0.47216576  0.16335054  0.24155884  1
  O  O84  1  0.64455527  0.51919260  0.92420250  1
  O  O85  1  0.86699525  0.35003909  0.92628930  1
  O  O86  1  0.48122229  0.12494970  0.92422627  1
  O  O87  1  0.64372841  0.12494970  0.42422627  1
  O  O88  1  0.48304483  0.35003909  0.42628930  1
  O  O89  1  0.87463833  0.51919260  0.42420250  1
  O  O90  1  0.36672018  0.50862338  0.07508726  1
  O  O91  1  0.13928085  0.64052550  0.07469798  1
  O  O92  1  0.49749073  0.86367491  0.07361618  1
  O  O93  1  0.36618318  0.86367491  0.57361618  1
  O  O94  1  0.50124365  0.64052550  0.57469798  1
  O  O95  1  0.14190220  0.50862338  0.57508726  1
  O  O96  1  0.30952208  0.84932806  0.25853353  1
  O  O97  1  0.54043467  0.69224610  0.25872105  1
  O  O98  1  0.14287989  0.46199723  0.25736877  1
  O  O99  1  0.31911634  0.46199723  0.75736877  1
  O  O100  1  0.15181044  0.69224610  0.75872105  1
  O  O101  1  0.53980498  0.84932806  0.75853353  1
