# generated using pymatgen
data_Na4CaSi2SnSO12
_symmetry_space_group_name_H-M   'P 1'
_cell_length_a   9.46177731
_cell_length_b   9.36065974
_cell_length_c   22.77998474
_cell_angle_alpha   91.86627965
_cell_angle_beta   90.00000000
_cell_angle_gamma   120.35798843
_symmetry_Int_Tables_number   1
_chemical_formula_structural   Na4CaSi2SnSO12
_chemical_formula_sum   'Na24 Ca6 Si12 Sn6 S6 O72'
_cell_volume   1739.70547983
_cell_formula_units_Z   6
loop_
 _symmetry_equiv_pos_site_id
 _symmetry_equiv_pos_as_xyz
  1  'x, y, z'
loop_
 _atom_site_type_symbol
 _atom_site_label
 _atom_site_symmetry_multiplicity
 _atom_site_fract_x
 _atom_site_fract_y
 _atom_site_fract_z
 _atom_site_occupancy
  Na  Na0  1  0.64211961  0.02086828  0.25534943  1
  Na  Na1  1  0.36406225  0.35133353  0.24381059  1
  Na  Na2  1  0.99584918  0.62577019  0.24119130  1
  Na  Na3  1  0.62992100  0.62577019  0.74119130  1
  Na  Na4  1  0.98727128  0.35133353  0.74381059  1
  Na  Na5  1  0.37874867  0.02086828  0.75534943  1
  Na  Na6  1  0.30878661  0.35420128  0.58868243  1
  Na  Na7  1  0.03072925  0.68466653  0.57714359  1
  Na  Na8  1  0.66251618  0.95910319  0.57452430  1
  Na  Na9  1  0.29658800  0.95910319  0.07452430  1
  Na  Na10  1  0.65393828  0.68466653  0.07714359  1
  Na  Na11  1  0.04541567  0.35420128  0.08868243  1
  Na  Na12  1  0.97545261  0.68753528  0.92201643  1
  Na  Na13  1  0.69739525  0.01800053  0.91047759  1
  Na  Na14  1  0.32918218  0.29243719  0.90785830  1
  Na  Na15  1  0.96325400  0.29243719  0.40785830  1
  Na  Na16  1  0.32060428  0.01800053  0.41047759  1
  Na  Na17  1  0.71208167  0.68753528  0.42201643  1
  Na  Na18  1  0.98056478  0.98626473  0.49645153  1
  Na  Na19  1  0.00569995  0.98626473  0.99645153  1
  Na  Na20  1  0.64723178  0.31959773  0.82978453  1
  Na  Na21  1  0.67236695  0.31959773  0.32978453  1
  Na  Na22  1  0.31389778  0.65293173  0.16311853  1
  Na  Na23  1  0.33903295  0.65293173  0.66311853  1
  Ca  Ca24  1  0.00186438  0.00096538  0.34967073  1
  Ca  Ca25  1  0.99910100  0.00096538  0.84967073  1
  Ca  Ca26  1  0.66853138  0.33429838  0.68300373  1
  Ca  Ca27  1  0.66576800  0.33429838  0.18300373  1
  Ca  Ca28  1  0.33519738  0.66763238  0.01633773  1
  Ca  Ca29  1  0.33243400  0.66763238  0.51633773  1
  Si  Si30  1  0.30301610  0.99605059  0.25333801  1
  Si  Si31  1  0.00719870  0.30150379  0.25339969  1
  Si  Si32  1  0.29430509  0.30150379  0.75339969  1
  Si  Si33  1  0.69303449  0.99605059  0.75333801  1
  Si  Si34  1  0.96968310  0.32938359  0.58667101  1
  Si  Si35  1  0.67386570  0.63483679  0.58673269  1
  Si  Si36  1  0.96097209  0.63483679  0.08673269  1
  Si  Si37  1  0.35970149  0.32938359  0.08667101  1
  Si  Si38  1  0.63634910  0.66271759  0.92000501  1
  Si  Si39  1  0.34053170  0.96817079  0.92006669  1
  Si  Si40  1  0.62763809  0.96817079  0.42006669  1
  Si  Si41  1  0.02636749  0.66271759  0.42000501  1
  Sn  Sn42  1  0.98142483  0.00855455  0.65069955  1
  Sn  Sn43  1  0.02712972  0.00855455  0.15069955  1
  Sn  Sn44  1  0.64809183  0.34188755  0.98403255  1
  Sn  Sn45  1  0.69379672  0.34188755  0.48403255  1
  Sn  Sn46  1  0.31475783  0.67522155  0.31736655  1
  Sn  Sn47  1  0.36046272  0.67522155  0.81736655  1
  S  S48  1  0.69690625  0.70782872  0.24953769  1
  S  S49  1  0.01092247  0.70782872  0.74953769  1
  S  S50  1  0.36357325  0.04116172  0.58287069  1
  S  S51  1  0.67758947  0.04116172  0.08287069  1
  S  S52  1  0.03023925  0.37449572  0.91620469  1
  S  S53  1  0.34425547  0.37449572  0.41620469  1
  O  O54  1  0.22167122  0.01935729  0.31136839  1
  O  O55  1  0.79272873  0.78474125  0.30324991  1
  O  O56  1  0.97523712  0.19422483  0.30985012  1
  O  O57  1  0.21898772  0.19422483  0.80985012  1
  O  O58  1  0.99201252  0.78474125  0.80324991  1
  O  O59  1  0.79768608  0.01935729  0.81136839  1
  O  O60  1  0.77615033  0.95851436  0.69301682  1
  O  O61  1  0.17306710  0.20801781  0.69191426  1
  O  O62  1  0.03243820  0.81066588  0.69682384  1
  O  O63  1  0.77822769  0.81066588  0.19682384  1
  O  O64  1  0.03495071  0.20801781  0.19191426  1
  O  O65  1  0.18236403  0.95851436  0.19301682  1
  O  O66  1  0.88833822  0.35269029  0.64470139  1
  O  O67  1  0.45939573  0.11807425  0.63658291  1
  O  O68  1  0.64190412  0.52755783  0.64318312  1
  O  O69  1  0.88565472  0.52755783  0.14318312  1
  O  O70  1  0.65867952  0.11807425  0.13658291  1
  O  O71  1  0.46435308  0.35269029  0.14470139  1
  O  O72  1  0.44281733  0.29184736  0.02634982  1
  O  O73  1  0.83973410  0.54135081  0.02524726  1
  O  O74  1  0.69910520  0.14399888  0.03015684  1
  O  O75  1  0.44489469  0.14399888  0.53015684  1
  O  O76  1  0.70161771  0.54135081  0.52524726  1
  O  O77  1  0.84903103  0.29184736  0.52634982  1
  O  O78  1  0.55500422  0.68602429  0.97803539  1
  O  O79  1  0.12606173  0.45140825  0.96991691  1
  O  O80  1  0.30857012  0.86089183  0.97651712  1
  O  O81  1  0.55232072  0.86089183  0.47651712  1
  O  O82  1  0.32534552  0.45140825  0.46991691  1
  O  O83  1  0.13101908  0.68602429  0.47803539  1
  O  O84  1  0.10948333  0.62518136  0.35968382  1
  O  O85  1  0.50640010  0.87468481  0.35858126  1
  O  O86  1  0.36577120  0.47733288  0.36349084  1
  O  O87  1  0.11156069  0.47733288  0.86349084  1
  O  O88  1  0.36828371  0.87468481  0.85858126  1
  O  O89  1  0.51569703  0.62518136  0.85968382  1
  O  O90  1  0.00074042  0.82062534  0.41511196  1
  O  O91  1  0.81258991  0.00346552  0.41305410  1
  O  O92  1  0.19780809  0.20730377  0.41087971  1
  O  O93  1  0.00949568  0.20730377  0.91087971  1
  O  O94  1  0.19087561  0.00346552  0.91305410  1
  O  O95  1  0.81988491  0.82062534  0.91511196  1
  O  O96  1  0.97768747  0.15239220  0.58556123  1
  O  O97  1  0.19749227  0.02628903  0.58573064  1
  O  O98  1  0.85896044  0.81526296  0.58999049  1
  O  O99  1  0.95630253  0.81526296  0.08999049  1
  O  O100  1  0.82879676  0.02628903  0.08573064  1
  O  O101  1  0.17470473  0.15239220  0.08556123  1
  O  O102  1  0.66740742  0.15395834  0.74844496  1
  O  O103  1  0.47925691  0.33679852  0.74638710  1
  O  O104  1  0.86447509  0.54063677  0.74421271  1
  O  O105  1  0.67616268  0.54063677  0.24421271  1
  O  O106  1  0.85754261  0.33679852  0.24638710  1
  O  O107  1  0.48655191  0.15395834  0.24844496  1
  O  O108  1  0.64435447  0.48572520  0.91889423  1
  O  O109  1  0.86415927  0.35962203  0.91906364  1
  O  O110  1  0.52562744  0.14859596  0.92332349  1
  O  O111  1  0.62296953  0.14859596  0.42332349  1
  O  O112  1  0.49546376  0.35962203  0.41906364  1
  O  O113  1  0.84137173  0.48572520  0.41889423  1
  O  O114  1  0.33407342  0.48729234  0.08177896  1
  O  O115  1  0.14592291  0.67013252  0.07972110  1
  O  O116  1  0.53114109  0.87397077  0.07754671  1
  O  O117  1  0.34282868  0.87397077  0.57754671  1
  O  O118  1  0.52420861  0.67013252  0.57972110  1
  O  O119  1  0.15321791  0.48729234  0.58177896  1
  O  O120  1  0.31102047  0.81905920  0.25222823  1
  O  O121  1  0.53082527  0.69295603  0.25239764  1
  O  O122  1  0.19229344  0.48192996  0.25665749  1
  O  O123  1  0.28963553  0.48192996  0.75665749  1
  O  O124  1  0.16212976  0.69295603  0.75239764  1
  O  O125  1  0.50803773  0.81905920  0.75222823  1
