# generated using pymatgen
data_MgV2(PO5)2
_symmetry_space_group_name_H-M   'P 1'
_cell_length_a   5.77676256
_cell_length_b   5.77676256
_cell_length_c   6.36852098
_cell_angle_alpha   85.15294229
_cell_angle_beta   85.15294229
_cell_angle_gamma   66.27567965
_symmetry_Int_Tables_number   1
_chemical_formula_structural   MgV2(PO5)2
_chemical_formula_sum   'Mg1 V2 P2 O10'
_cell_volume   193.57073322
_cell_formula_units_Z   1
loop_
 _symmetry_equiv_pos_site_id
 _symmetry_equiv_pos_as_xyz
  1  'x, y, z'
loop_
 _atom_site_type_symbol
 _atom_site_label
 _atom_site_symmetry_multiplicity
 _atom_site_fract_x
 _atom_site_fract_y
 _atom_site_fract_z
 _atom_site_occupancy
  Mg  Mg0  1  0.28078055  0.71921945  0.00000000  1
  V  V1  1  0.20020831  0.21148049  0.24841557  1
  V  V2  1  0.78851951  0.79979169  0.75158443  1
  P  P3  1  0.26191227  0.25018244  0.74730593  1
  P  P4  1  0.74981756  0.73808773  0.25269507  1
  O  O5  1  0.35202397  0.39799475  0.19085652  1
  O  O6  1  0.60200525  0.64797603  0.80914348  1
  O  O7  1  0.16571858  0.17504580  0.55768745  1
  O  O8  1  0.82495420  0.83428142  0.44231255  1
  O  O9  1  0.15507782  0.54452643  0.76307000  1
  O  O10  1  0.55230582  0.15440879  0.74297391  1
  O  O11  1  0.84559121  0.44769418  0.25702609  1
  O  O12  1  0.45547357  0.84492218  0.23693000  1
  O  O13  1  0.87362169  0.83420033  0.05291460  1
  O  O14  1  0.16579967  0.12637831  0.94708540  1
