# generated using pymatgen
data_Na8ZnSi5Sn3SO24
_symmetry_space_group_name_H-M   'P 1'
_cell_length_a   9.16262681
_cell_length_b   9.15323101
_cell_length_c   22.48151556
_cell_angle_alpha   90.52950941
_cell_angle_beta   90.37776572
_cell_angle_gamma   120.09199436
_symmetry_Int_Tables_number   1
_chemical_formula_structural   Na8ZnSi5Sn3SO24
_chemical_formula_sum   'Na24 Zn3 Si15 Sn9 S3 O72'
_cell_volume   1631.14357124
_cell_formula_units_Z   3
loop_
 _symmetry_equiv_pos_site_id
 _symmetry_equiv_pos_as_xyz
  1  'x, y, z'
loop_
 _atom_site_type_symbol
 _atom_site_label
 _atom_site_symmetry_multiplicity
 _atom_site_fract_x
 _atom_site_fract_y
 _atom_site_fract_z
 _atom_site_occupancy
  Na  Na0  1  0.64524682  0.01918982  0.24748574  1
  Na  Na1  1  0.36471484  0.36323275  0.24402684  1
  Na  Na2  1  0.98819067  0.61443953  0.24548243  1
  Na  Na3  1  0.63276502  0.62091253  0.74820945  1
  Na  Na4  1  0.98869453  0.36517798  0.75186952  1
  Na  Na5  1  0.37909114  0.01042853  0.74821238  1
  Na  Na6  1  0.31351594  0.33340040  0.58813366  1
  Na  Na7  1  0.03161255  0.70601221  0.58443657  1
  Na  Na8  1  0.66018656  0.96403226  0.58977288  1
  Na  Na9  1  0.30726225  0.97006313  0.07927894  1
  Na  Na10  1  0.66349040  0.69389115  0.07900306  1
  Na  Na11  1  0.03221865  0.33900514  0.08090245  1
  Na  Na12  1  0.96545218  0.66619750  0.91507773  1
  Na  Na13  1  0.70026533  0.03404304  0.91479009  1
  Na  Na14  1  0.33396542  0.29978236  0.91517315  1
  Na  Na15  1  0.96605982  0.28972422  0.41235112  1
  Na  Na16  1  0.32205234  0.03235845  0.41839660  1
  Na  Na17  1  0.70989143  0.67727589  0.41835498  1
  Na  Na18  1  0.00104420  0.99433329  0.49597209  1
  Na  Na19  1  0.00050691  0.00072254  0.99624314  1
  Na  Na20  1  0.66654798  0.33298746  0.82764693  1
  Na  Na21  1  0.67621022  0.33242550  0.33348265  1
  Na  Na22  1  0.32840450  0.66089025  0.16034527  1
  Na  Na23  1  0.34128706  0.67340403  0.67159263  1
  Zn  Zn24  1  0.99646224  0.01217199  0.35762184  1
  Zn  Zn25  1  0.64693900  0.32877459  0.68941873  1
  Zn  Zn26  1  0.67950242  0.33274754  0.16984143  1
  Si  Si27  1  0.99798570  0.29495006  0.25316464  1
  Si  Si28  1  0.28920775  0.29247242  0.75089998  1
  Si  Si29  1  0.00047036  0.70108609  0.75120149  1
  Si  Si30  1  0.70687801  0.00085484  0.74988128  1
  Si  Si31  1  0.37243456  0.03947516  0.58425030  1
  Si  Si32  1  0.66668237  0.62836351  0.58477991  1
  Si  Si33  1  0.96322767  0.62926043  0.08573927  1
  Si  Si34  1  0.66189884  0.03796384  0.08444396  1
  Si  Si35  1  0.37967453  0.33718229  0.08582208  1
  Si  Si36  1  0.62706092  0.66656223  0.91688223  1
  Si  Si37  1  0.03959219  0.37355961  0.91635348  1
  Si  Si38  1  0.33323761  0.95977999  0.91697933  1
  Si  Si39  1  0.62721976  0.96207532  0.41574453  1
  Si  Si40  1  0.33411474  0.37332035  0.41783634  1
  Si  Si41  1  0.03473900  0.66523201  0.41798503  1
  Sn  Sn42  1  0.99903463  0.99898503  0.85159636  1
  Sn  Sn43  1  0.00100319  0.98872887  0.65307193  1
  Sn  Sn44  1  0.00451876  0.01285155  0.14496090  1
  Sn  Sn45  1  0.66763748  0.33473738  0.98193301  1
  Sn  Sn46  1  0.65862459  0.33559348  0.48144743  1
  Sn  Sn47  1  0.33357638  0.66647919  0.01688154  1
  Sn  Sn48  1  0.34221894  0.67583047  0.51598282  1
  Sn  Sn49  1  0.32267689  0.65541789  0.32172547  1
  Sn  Sn50  1  0.33449212  0.66665698  0.81451193  1
  S  S51  1  0.29185211  0.99810808  0.25173803  1
  S  S52  1  0.70689704  0.70846390  0.25140377  1
  S  S53  1  0.96088044  0.33356536  0.58269720  1
  O  O54  1  0.20933532  0.01764416  0.30453535  1
  O  O55  1  0.81316528  0.78895597  0.30434084  1
  O  O56  1  0.96910009  0.17551392  0.30897420  1
  O  O57  1  0.20530748  0.17249253  0.80877396  1
  O  O58  1  0.96295375  0.78766687  0.80892991  1
  O  O59  1  0.82590209  0.03487331  0.80909320  1
  O  O60  1  0.78708028  0.96027187  0.68949758  1
  O  O61  1  0.16830920  0.21413217  0.68967702  1
  O  O62  1  0.04759883  0.82058515  0.69097757  1
  O  O63  1  0.78345463  0.81254888  0.19661699  1
  O  O64  1  0.04366727  0.21544941  0.19290422  1
  O  O65  1  0.18389061  0.96445382  0.19647785  1
  O  O66  1  0.88531657  0.36315878  0.63571404  1
  O  O67  1  0.49716830  0.11716995  0.64056504  1
  O  O68  1  0.62898468  0.50932373  0.64107538  1
  O  O69  1  0.89298452  0.52060642  0.14547039  1
  O  O70  1  0.62079144  0.10626369  0.14500804  1
  O  O71  1  0.48998024  0.37163059  0.14631918  1
  O  O72  1  0.45608378  0.29502872  0.02631419  1
  O  O73  1  0.84137079  0.55218136  0.02642307  1
  O  O74  1  0.70752188  0.16078168  0.02647741  1
  O  O75  1  0.45042084  0.15356289  0.52286439  1
  O  O76  1  0.71148985  0.55370059  0.52373599  1
  O  O77  1  0.85493069  0.30428303  0.52737219  1
  O  O78  1  0.54873662  0.70679454  0.97633333  1
  O  O79  1  0.15836541  0.45145020  0.97647331  1
  O  O80  1  0.29316973  0.84164467  0.97612164  1
  O  O81  1  0.54656908  0.84386244  0.47376224  1
  O  O82  1  0.29418431  0.45893481  0.47515407  1
  O  O83  1  0.15736685  0.69976003  0.47590312  1
  O  O84  1  0.11047828  0.62146722  0.35754744  1
  O  O85  1  0.50136983  0.87994440  0.35563925  1
  O  O86  1  0.38214580  0.49479517  0.35818272  1
  O  O87  1  0.12056886  0.49461631  0.85871111  1
  O  O88  1  0.37453453  0.87917515  0.85875092  1
  O  O89  1  0.50495463  0.62505489  0.85842034  1
  O  O90  1  0.01869028  0.83187432  0.41032458  1
  O  O91  1  0.80890068  0.97545403  0.41244424  1
  O  O92  1  0.17066099  0.18738356  0.41352106  1
  O  O93  1  0.02246236  0.18577167  0.91252128  1
  O  O94  1  0.16343859  0.97804422  0.91251057  1
  O  O95  1  0.81473805  0.83708590  0.91266984  1
  O  O96  1  0.97808710  0.18050711  0.58557733  1
  O  O97  1  0.18308784  0.02520956  0.58730445  1
  O  O98  1  0.83618830  0.82277528  0.58706966  1
  O  O99  1  0.98058478  0.81948015  0.09269351  1
  O  O100  1  0.83224837  0.01665386  0.08876355  1
  O  O101  1  0.18922616  0.16276935  0.08781698  1
  O  O102  1  0.69255843  0.16909669  0.74547600  1
  O  O103  1  0.47316449  0.30989206  0.74857838  1
  O  O104  1  0.83477098  0.51683178  0.74445478  1
  O  O105  1  0.68109745  0.53621614  0.24592359  1
  O  O106  1  0.83339749  0.31871688  0.24768471  1
  O  O107  1  0.45993729  0.15006427  0.24666142  1
  O  O108  1  0.64329311  0.49589369  0.92225556  1
  O  O109  1  0.85257148  0.35667067  0.92245427  1
  O  O110  1  0.50399174  0.14728009  0.92256024  1
  O  O111  1  0.64246397  0.14915378  0.42223709  1
  O  O112  1  0.50824440  0.36223087  0.42024898  1
  O  O113  1  0.85161178  0.48813919  0.42330881  1
  O  O114  1  0.35456600  0.50314369  0.07899334  1
  O  O115  1  0.15173461  0.65031139  0.07814507  1
  O  O116  1  0.49513113  0.84772188  0.07779989  1
  O  O117  1  0.34405745  0.84439022  0.57752894  1
  O  O118  1  0.49282875  0.64354358  0.57710158  1
  O  O119  1  0.13256246  0.48767125  0.57677160  1
  O  O120  1  0.31010652  0.84128176  0.25394789  1
  O  O121  1  0.53517585  0.69797265  0.25449320  1
  O  O122  1  0.18018081  0.48900402  0.25457154  1
  O  O123  1  0.30169876  0.47858819  0.75407138  1
  O  O124  1  0.17609698  0.69307770  0.75529922  1
  O  O125  1  0.52177524  0.82513881  0.75404146  1
