# generated using pymatgen
data_Na7MgAl3(PO4)6
_symmetry_space_group_name_H-M   'P 1'
_cell_length_a   8.71247797
_cell_length_b   8.71079375
_cell_length_c   21.39896414
_cell_angle_alpha   90.12177130
_cell_angle_beta   90.02393016
_cell_angle_gamma   120.00625745
_symmetry_Int_Tables_number   1
_chemical_formula_structural   Na7MgAl3(PO4)6
_chemical_formula_sum   'Na21 Mg3 Al9 P18 O72'
_cell_volume   1406.35124961
_cell_formula_units_Z   3
loop_
 _symmetry_equiv_pos_site_id
 _symmetry_equiv_pos_as_xyz
  1  'x, y, z'
loop_
 _atom_site_type_symbol
 _atom_site_label
 _atom_site_symmetry_multiplicity
 _atom_site_fract_x
 _atom_site_fract_y
 _atom_site_fract_z
 _atom_site_occupancy
  Na  Na0  1  0.63977342  0.00688294  0.24566050  1
  Na  Na1  1  0.36622094  0.35883294  0.24600883  1
  Na  Na2  1  0.99261276  0.63289517  0.24545719  1
  Na  Na3  1  0.63252354  0.62601450  0.74759210  1
  Na  Na4  1  0.99405834  0.36768936  0.74814461  1
  Na  Na5  1  0.37487216  0.00602786  0.74779140  1
  Na  Na6  1  0.02488425  0.69224911  0.58454450  1
  Na  Na7  1  0.66372791  0.97324065  0.58404314  1
  Na  Na8  1  0.30998790  0.97321319  0.08412542  1
  Na  Na9  1  0.66737917  0.69113540  0.08452795  1
  Na  Na10  1  0.69754280  0.03276921  0.91963182  1
  Na  Na11  1  0.33103818  0.30058076  0.91903143  1
  Na  Na12  1  0.96641741  0.29372623  0.41410656  1
  Na  Na13  1  0.32747203  0.03450984  0.41420474  1
  Na  Na14  1  0.70747113  0.67304228  0.41408858  1
  Na  Na15  1  0.01188092  0.01328805  0.50079547  1
  Na  Na16  1  0.99979938  0.99894193  0.00087191  1
  Na  Na17  1  0.67915915  0.34750750  0.83507412  1
  Na  Na18  1  0.66689307  0.33337836  0.32962242  1
  Na  Na19  1  0.31822246  0.65054113  0.16264228  1
  Na  Na20  1  0.33171859  0.65097281  0.66396439  1
  Mg  Mg21  1  0.00017322  0.00065532  0.35301669  1
  Mg  Mg22  1  0.66564754  0.33416631  0.68374124  1
  Mg  Mg23  1  0.66955948  0.33494685  0.18056431  1
  Al  Al24  1  0.99959996  0.99567087  0.85486560  1
  Al  Al25  1  0.00498378  0.00500434  0.64667302  1
  Al  Al26  1  0.00113532  0.00600972  0.14730823  1
  Al  Al27  1  0.67375632  0.33952639  0.98257085  1
  Al  Al28  1  0.66452142  0.33239554  0.48338610  1
  Al  Al29  1  0.32921327  0.66402492  0.01663251  1
  Al  Al30  1  0.33269089  0.66324580  0.51967257  1
  Al  Al31  1  0.33332880  0.66567202  0.31373824  1
  Al  Al32  1  0.33031684  0.66437522  0.81545092  1
  P  P33  1  0.29003011  0.99462863  0.25088084  1
  P  P34  1  0.70451939  0.71006460  0.25094200  1
  P  P35  1  0.00473721  0.29410231  0.25196930  1
  P  P36  1  0.28123999  0.28730535  0.75299812  1
  P  P37  1  0.00667126  0.71869590  0.75098402  1
  P  P38  1  0.71209995  0.99361520  0.75197655  1
  P  P39  1  0.96554322  0.33384341  0.58299325  1
  P  P40  1  0.36959314  0.03877497  0.58274326  1
  P  P41  1  0.66309775  0.62767559  0.58334355  1
  P  P42  1  0.96541559  0.62829815  0.08288148  1
  P  P43  1  0.66865054  0.03766102  0.08109507  1
  P  P44  1  0.36785389  0.33449347  0.08118209  1
  P  P45  1  0.62515601  0.66580883  0.91632721  1
  P  P46  1  0.04180793  0.38024675  0.91556570  1
  P  P47  1  0.33033744  0.95457651  0.91635610  1
  P  P48  1  0.61579540  0.95673601  0.41868303  1
  P  P49  1  0.34119508  0.38476032  0.41785022  1
  P  P50  1  0.04331271  0.65934232  0.41869584  1
  O  O51  1  0.21313948  0.02589102  0.31037185  1
  O  O52  1  0.81285558  0.78761207  0.31043278  1
  O  O53  1  0.97288504  0.18945994  0.31242993  1
  O  O54  1  0.19638933  0.17634218  0.81221797  1
  O  O55  1  0.97859662  0.81123697  0.80678400  1
  O  O56  1  0.82753974  0.02138589  0.80998802  1
  O  O57  1  0.79670079  0.96468466  0.69248236  1
  O  O58  1  0.16197186  0.19853468  0.69564183  1
  O  O59  1  0.03525496  0.82892969  0.69049080  1
  O  O60  1  0.79636891  0.82956428  0.19297957  1
  O  O61  1  0.03561355  0.19899794  0.19626519  1
  O  O62  1  0.17054558  0.96672794  0.19282346  1
  O  O63  1  0.89057561  0.37251083  0.64196108  1
  O  O64  1  0.48375102  0.11198269  0.64149824  1
  O  O65  1  0.63541128  0.52458991  0.64351994  1
  O  O66  1  0.89488705  0.52918162  0.14404090  1
  O  O67  1  0.62796978  0.11060355  0.13974883  1
  O  O68  1  0.48114073  0.37368103  0.14016085  1
  O  O69  1  0.46017049  0.29986249  0.02446941  1
  O  O70  1  0.83266639  0.53268151  0.02883995  1
  O  O71  1  0.69217178  0.15467944  0.02320124  1
  O  O72  1  0.46212377  0.15544400  0.52479371  1
  O  O73  1  0.69763685  0.53583580  0.52669581  1
  O  O74  1  0.83917501  0.29961562  0.52609915  1
  O  O75  1  0.53779309  0.69964554  0.97324449  1
  O  O76  1  0.16973620  0.47093016  0.96981102  1
  O  O77  1  0.30896626  0.84365613  0.97443184  1
  O  O78  1  0.52530559  0.84246678  0.47615906  1
  O  O79  1  0.31330375  0.47842810  0.47298224  1
  O  O80  1  0.15887758  0.68598544  0.47615420  1
  O  O81  1  0.12872085  0.63018067  0.35941974  1
  O  O82  1  0.50157890  0.87059829  0.35930926  1
  O  O83  1  0.37127834  0.49588972  0.35741379  1
  O  O84  1  0.12316877  0.48756517  0.85480427  1
  O  O85  1  0.36425444  0.86843634  0.85809718  1
  O  O86  1  0.50465358  0.63092115  0.85786086  1
  O  O87  1  0.02061636  0.82333133  0.41589827  1
  O  O88  1  0.80227187  0.97892714  0.41633772  1
  O  O89  1  0.17777829  0.19733602  0.41535255  1
  O  O90  1  0.01917891  0.18917743  0.91137330  1
  O  O91  1  0.16677115  0.98011149  0.91099826  1
  O  O92  1  0.80950964  0.83484496  0.90997056  1
  O  O93  1  0.97641366  0.16194485  0.58915677  1
  O  O94  1  0.18197578  0.01702440  0.58833375  1
  O  O95  1  0.83473800  0.81638184  0.58715502  1
  O  O96  1  0.98307180  0.81750979  0.08741034  1
  O  O97  1  0.83397021  0.01490488  0.08784443  1
  O  O98  1  0.18507136  0.16276533  0.08832400  1
  O  O99  1  0.68961208  0.15803807  0.74818684  1
  O  O100  1  0.46792893  0.30962629  0.74839684  1
  O  O101  1  0.84276907  0.53116701  0.74782527  1
  O  O102  1  0.67716675  0.52203033  0.24448176  1
  O  O103  1  0.84354929  0.31983322  0.24403203  1
  O  O104  1  0.47763779  0.15564294  0.24391071  1
  O  O105  1  0.64032611  0.49680468  0.92386596  1
  O  O106  1  0.85344105  0.35510600  0.92359342  1
  O  O107  1  0.49923623  0.14404726  0.92129868  1
  O  O108  1  0.63420338  0.14465202  0.42344331  1
  O  O109  1  0.51090697  0.36690115  0.42413336  1
  O  O110  1  0.85579110  0.48967548  0.42415287  1
  O  O111  1  0.34984039  0.50033372  0.07088340  1
  O  O112  1  0.15393090  0.65674721  0.07212774  1
  O  O113  1  0.50290923  0.84737678  0.07275252  1
  O  O114  1  0.34388232  0.84791090  0.57502015  1
  O  O115  1  0.50384854  0.65829812  0.57455975  1
  O  O116  1  0.15037157  0.49874806  0.57377034  1
  O  O117  1  0.30334211  0.82201778  0.25547659  1
  O  O118  1  0.51862708  0.69694272  0.25521008  1
  O  O119  1  0.17693732  0.48093529  0.25595928  1
  O  O120  1  0.30108419  0.47642371  0.75697903  1
  O  O121  1  0.17673476  0.70093338  0.75662997  1
  O  O122  1  0.52437130  0.82371429  0.75718005  1
