# generated using pymatgen
data_Ba5Pt2O9
_symmetry_space_group_name_H-M   'P 1'
_cell_length_a   10.24936777
_cell_length_b   10.24936984
_cell_length_c   8.96718451
_cell_angle_alpha   90.00019303
_cell_angle_beta   89.99991859
_cell_angle_gamma   120.00002566
_symmetry_Int_Tables_number   1
_chemical_formula_structural   Ba5Pt2O9
_chemical_formula_sum   'Ba15 Pt6 O27'
_cell_volume   815.79467610
_cell_formula_units_Z   3
loop_
 _symmetry_equiv_pos_site_id
 _symmetry_equiv_pos_as_xyz
  1  'x, y, z'
loop_
 _atom_site_type_symbol
 _atom_site_label
 _atom_site_symmetry_multiplicity
 _atom_site_fract_x
 _atom_site_fract_y
 _atom_site_fract_z
 _atom_site_occupancy
  Ba  Ba0  1  0.03146586  0.69641662  0.26326000  1
  Ba  Ba1  1  0.30358311  0.33504840  0.26325989  1
  Ba  Ba2  1  0.66495118  0.96853429  0.26326004  1
  Ba  Ba3  1  0.33504825  0.30358350  0.73673984  1
  Ba  Ba4  1  0.96853426  0.66495108  0.73674006  1
  Ba  Ba5  1  0.69641681  0.03146602  0.73673951  1
  Ba  Ba6  1  -0.00000036  -0.00000010  -0.00000012  1
  Ba  Ba7  1  0.33333344  0.66666656  0.75233189  1
  Ba  Ba8  1  0.66666673  0.33333360  0.24766814  1
  Ba  Ba9  1  0.63415243  0.63415258  0.00000021  1
  Ba  Ba10  1  -0.00000011  0.36584741  -0.00000025  1
  Ba  Ba11  1  0.36584778  0.00000020  0.00000017  1
  Ba  Ba12  1  0.67015561  0.67015623  0.49999982  1
  Ba  Ba13  1  0.00000071  0.32984495  0.49999993  1
  Ba  Ba14  1  0.32984402  0.00000000  0.49999975  1
  Pt  Pt15  1  0.33333365  0.66666643  0.09932042  1
  Pt  Pt16  1  0.66666676  0.33333361  0.90068004  1
  Pt  Pt17  1  0.33333398  0.66666943  0.40741003  1
  Pt  Pt18  1  0.66666573  0.33333042  0.59259026  1
  Pt  Pt19  1  -0.00000025  -0.00000012  0.34607225  1
  Pt  Pt20  1  -0.00000022  0.00000005  0.65392754  1
  O  O21  1  0.14819767  0.14819788  0.49999989  1
  O  O22  1  -0.00000003  0.85180214  0.50000005  1
  O  O23  1  0.85180194  0.00000011  0.49999979  1
  O  O24  1  0.17604678  0.68184921  0.53185374  1
  O  O25  1  0.31814958  0.49419561  0.53185437  1
  O  O26  1  0.50580390  0.82395237  0.53185405  1
  O  O27  1  0.49419599  0.31815058  0.46814567  1
  O  O28  1  0.82395270  0.50580397  0.46814593  1
  O  O29  1  0.68184925  0.17604705  0.46814632  1
  O  O30  1  0.52212763  0.17251423  0.74697801  1
  O  O31  1  0.82748580  0.34961574  0.74697690  1
  O  O32  1  0.65038533  0.47787252  0.74697856  1
  O  O33  1  0.34961581  0.82748577  0.25302324  1
  O  O34  1  0.47787230  0.65038445  0.25302263  1
  O  O35  1  0.17251378  0.52212739  0.25302197  1
  O  O36  1  0.00681097  0.17403355  0.77777623  1
  O  O37  1  0.82596648  0.83277798  0.77777641  1
  O  O38  1  0.16722200  0.99318859  0.77777634  1
  O  O39  1  0.83277775  0.82596642  0.22222345  1
  O  O40  1  0.99318824  0.16722190  0.22222354  1
  O  O41  1  0.17403342  0.00681110  0.22222359  1
  O  O42  1  0.82507777  0.50998055  0.02543447  1
  O  O43  1  0.49001934  0.31509699  0.02543482  1
  O  O44  1  0.68490376  0.17492374  0.02543350  1
  O  O45  1  0.31509686  0.49001918  0.97456521  1
  O  O46  1  0.17492378  0.68490361  0.97456657  1
  O  O47  1  0.50997980  0.82507620  0.97456633  1
