# generated using pymatgen
data_Na30Ta4Zn20Si9(S3O16)9
_symmetry_space_group_name_H-M   'P 1'
_cell_length_a   17.92654457
_cell_length_b   9.05784178
_cell_length_c   22.31317859
_cell_angle_alpha   89.94294578
_cell_angle_beta   89.27397342
_cell_angle_gamma   120.36448615
_symmetry_Int_Tables_number   1
_chemical_formula_structural   Na30Ta4Zn20Si9(S3O16)9
_chemical_formula_sum   'Na30 Ta4 Zn20 Si9 S27 O144'
_cell_volume   3125.76062463
_cell_formula_units_Z   1
loop_
 _symmetry_equiv_pos_site_id
 _symmetry_equiv_pos_as_xyz
  1  'x, y, z'
loop_
 _atom_site_type_symbol
 _atom_site_label
 _atom_site_symmetry_multiplicity
 _atom_site_fract_x
 _atom_site_fract_y
 _atom_site_fract_z
 _atom_site_occupancy
  Na  Na0  1  0.81109587  0.00471835  0.24278541  1
  Na  Na1  1  0.00244041  0.63101952  0.24427444  1
  Na  Na2  1  0.50132737  0.62885537  0.24322861  1
  Na  Na3  1  0.00121016  0.37436230  0.74206210  1
  Na  Na4  1  0.50102721  0.37429744  0.74303394  1
  Na  Na5  1  0.18404019  0.00954074  0.75282391  1
  Na  Na6  1  0.65631318  0.35024258  0.58138977  1
  Na  Na7  1  0.65905080  0.95873678  0.08431426  1
  Na  Na8  1  0.83127164  0.68879289  0.07580072  1
  Na  Na9  1  0.01167609  0.33934031  0.08100786  1
  Na  Na10  1  0.48046658  0.66145272  0.92295979  1
  Na  Na11  1  0.84862036  0.03418810  0.92276192  1
  Na  Na12  1  0.16618504  0.29679418  0.91211318  1
  Na  Na13  1  0.66610128  0.29880594  0.91076770  1
  Na  Na14  1  0.48013696  0.29831394  0.42223012  1
  Na  Na15  1  0.98363666  0.30233974  0.42414243  1
  Na  Na16  1  0.16639469  0.03495264  0.41171180  1
  Na  Na17  1  0.66525035  0.03449461  0.41118118  1
  Na  Na18  1  0.99211660  0.99169737  0.49731521  1
  Na  Na19  1  0.48291642  0.97467515  0.49610660  1
  Na  Na20  1  0.00052372  0.97613835  0.99521031  1
  Na  Na21  1  0.48298414  0.99162673  0.99661097  1
  Na  Na22  1  0.32790324  0.33429792  0.83066278  1
  Na  Na23  1  0.82685100  0.34308903  0.82721519  1
  Na  Na24  1  0.31971151  0.32143324  0.32737467  1
  Na  Na25  1  0.82244102  0.33721363  0.32993660  1
  Na  Na26  1  0.17268671  0.69073639  0.16532198  1
  Na  Na27  1  0.65938219  0.66115885  0.16277536  1
  Na  Na28  1  0.16482132  0.64491286  0.66077223  1
  Na  Na29  1  0.66700669  0.66898104  0.66602000  1
  Ta  Ta30  1  0.00372263  0.01715607  0.64634707  1
  Ta  Ta31  1  0.50105050  0.00778121  0.64725698  1
  Ta  Ta32  1  0.00686760  0.99718699  0.14671591  1
  Ta  Ta33  1  0.49883218  0.98969436  0.14869551  1
  Zn  Zn34  1  0.00795674  0.00252977  0.34609954  1
  Zn  Zn35  1  0.50138622  0.00096907  0.34551266  1
  Zn  Zn36  1  0.00689320  -0.00016418  0.84577503  1
  Zn  Zn37  1  0.50504189  0.00753189  0.84412616  1
  Zn  Zn38  1  0.33400480  0.34799147  0.67912058  1
  Zn  Zn39  1  0.83167957  0.33694707  0.68179459  1
  Zn  Zn40  1  0.33045651  0.32115889  0.18185007  1
  Zn  Zn41  1  0.83005308  0.31682732  0.17816554  1
  Zn  Zn42  1  0.33927855  0.33315416  0.99261102  1
  Zn  Zn43  1  0.85073381  0.34631320  0.99425654  1
  Zn  Zn44  1  0.33837488  0.34123914  0.49308045  1
  Zn  Zn45  1  0.84282777  0.34623418  0.49209765  1
  Zn  Zn46  1  0.16625876  0.68335676  0.01767652  1
  Zn  Zn47  1  0.66035327  0.66806645  0.02108523  1
  Zn  Zn48  1  0.16052072  0.65096692  0.51957460  1
  Zn  Zn49  1  0.65984603  0.66002435  0.51807411  1
  Zn  Zn50  1  0.17116387  0.68690655  0.31329233  1
  Zn  Zn51  1  0.66569565  0.67279017  0.31426090  1
  Zn  Zn52  1  0.16946987  0.65277863  0.81432035  1
  Zn  Zn53  1  0.67014508  0.65082676  0.81079886  1
  Si  Si54  1  0.15597633  0.00673059  0.25423402  1
  Si  Si55  1  0.65172435  0.00735659  0.25444470  1
  Si  Si56  1  0.15449455  0.30410039  0.75274179  1
  Si  Si57  1  0.65438276  0.30094284  0.75262810  1
  Si  Si58  1  0.48049639  0.34207286  0.58442224  1
  Si  Si59  1  0.98074366  0.34480404  0.58456843  1
  Si  Si60  1  0.47653753  0.61611859  0.08490227  1
  Si  Si61  1  0.98180633  0.62300376  0.08627074  1
  Si  Si62  1  0.83308121  0.03056396  0.08268003  1
  S  S63  1  0.35131703  0.70678433  0.25294493  1
  S  S64  1  0.85356919  0.70907623  0.25138200  1
  S  S65  1  0.00239894  0.29203400  0.25271042  1
  S  S66  1  0.50088197  0.29198012  0.25265197  1
  S  S67  1  -0.00059462  0.71003957  0.75106562  1
  S  S68  1  0.50010328  0.70953890  0.75270260  1
  S  S69  1  0.35244882  0.99497981  0.75202578  1
  S  S70  1  0.85339535  0.99574098  0.75295139  1
  S  S71  1  0.18497340  0.03464338  0.58361185  1
  S  S72  1  0.68548170  0.03523563  0.58250010  1
  S  S73  1  0.33330107  0.63256698  0.58367737  1
  S  S74  1  0.83514888  0.63457071  0.58328810  1
  S  S75  1  0.33367396  0.03506053  0.08389384  1
  S  S76  1  0.18857064  0.33851971  0.08221258  1
  S  S77  1  0.68299754  0.32932914  0.08247689  1
  S  S78  1  0.31374412  0.66946904  0.91673734  1
  S  S79  1  0.81472201  0.66603250  0.91658625  1
  S  S80  1  0.01737186  0.37084229  0.91585282  1
  S  S81  1  0.51809750  0.37094227  0.91637093  1
  S  S82  1  0.16846888  0.96486844  0.91489421  1
  S  S83  1  0.66592046  0.95957151  0.91536799  1
  S  S84  1  0.31347176  0.95805879  0.41724090  1
  S  S85  1  0.81359222  0.95823210  0.41546905  1
  S  S86  1  0.16873928  0.37643063  0.41602267  1
  S  S87  1  0.66859790  0.37501621  0.41741641  1
  S  S88  1  0.01707967  0.66522434  0.41596319  1
  S  S89  1  0.51658876  0.66500258  0.41629700  1
  O  O90  1  0.11367083  0.02710007  0.31603300  1
  O  O91  1  0.60693071  0.02295481  0.31524455  1
  O  O92  1  0.40435886  0.79282761  0.30522651  1
  O  O93  1  0.90686354  0.79512069  0.30371567  1
  O  O94  1  0.49006527  0.19554225  0.30864647  1
  O  O95  1  0.98778098  0.18489412  0.30648585  1
  O  O96  1  0.11302114  0.18678523  0.81280561  1
  O  O97  1  0.61113710  0.19534704  0.81419389  1
  O  O98  1  0.48848079  0.78421326  0.80847816  1
  O  O99  1  0.98602956  0.78467366  0.80586835  1
  O  O100  1  0.40432003  0.01447220  0.80482431  1
  O  O101  1  0.90400234  0.01507092  0.80736376  1
  O  O102  1  0.39790785  0.97496528  0.69652776  1
  O  O103  1  0.90137478  0.97642926  0.69871320  1
  O  O104  1  0.08392870  0.18549812  0.69636137  1
  O  O105  1  0.58367188  0.18130077  0.69535296  1
  O  O106  1  0.00693520  0.81855936  0.69732669  1
  O  O107  1  0.50396002  0.81778348  0.69933378  1
  O  O108  1  0.39884234  0.82146565  0.19717205  1
  O  O109  1  0.89824661  0.82160165  0.19518373  1
  O  O110  1  0.00671132  0.19859379  0.19725141  1
  O  O111  1  0.50544024  0.19206377  0.19941963  1
  O  O112  1  0.08489411  0.98626198  0.19870842  1
  O  O113  1  0.58390747  0.98399003  0.19594396  1
  O  O114  1  0.43582115  0.35649395  0.64554690  1
  O  O115  1  0.93384173  0.35499208  0.64534658  1
  O  O116  1  0.23329437  0.11598110  0.63808146  1
  O  O117  1  0.73531578  0.11873047  0.63539410  1
  O  O118  1  0.31813214  0.52874615  0.63774632  1
  O  O119  1  0.81680927  0.52258351  0.63571880  1
  O  O120  1  0.43224529  0.51202458  0.14585254  1
  O  O121  1  0.93853481  0.51323065  0.14724213  1
  O  O122  1  0.31899138  0.11026537  0.13717151  1
  O  O123  1  0.80957439  0.10544620  0.14090402  1
  O  O124  1  0.23888638  0.35671796  0.13473355  1
  O  O125  1  0.73640018  0.35639565  0.13519040  1
  O  O126  1  0.21927971  0.29851257  0.02579777  1
  O  O127  1  0.71563726  0.28725891  0.02765050  1
  O  O128  1  0.42442530  0.55322561  0.02263762  1
  O  O129  1  0.91567919  0.56316943  0.03045115  1
  O  O130  1  0.35085017  0.13727404  0.02837806  1
  O  O131  1  0.85654572  0.14987649  0.02248859  1
  O  O132  1  0.21883986  0.14226593  0.52878981  1
  O  O133  1  0.71720092  0.14381776  0.52735191  1
  O  O134  1  0.35130262  0.56277358  0.52920374  1
  O  O135  1  0.85101537  0.56365335  0.52803648  1
  O  O136  1  0.42776077  0.30205634  0.52260268  1
  O  O137  1  0.92700010  0.29769633  0.52254944  1
  O  O138  1  0.27179453  0.68655824  0.97151328  1
  O  O139  1  0.77509427  0.68996706  0.97220215  1
  O  O140  1  0.06957064  0.45152865  0.96990679  1
  O  O141  1  0.57462370  0.45751240  0.96810558  1
  O  O142  1  0.15922985  0.86072527  0.96844993  1
  O  O143  1  0.65659051  0.86392299  0.97201104  1
  O  O144  1  0.27226055  0.85608062  0.47196979  1
  O  O145  1  0.76973908  0.85277018  0.46925629  1
  O  O146  1  0.15715019  0.45778483  0.47001434  1
  O  O147  1  0.65894193  0.45422975  0.47327697  1
  O  O148  1  0.07336599  0.69188224  0.46783548  1
  O  O149  1  0.57380059  0.69300137  0.46782114  1
  O  O150  1  0.05557047  0.63913019  0.35985519  1
  O  O151  1  0.55559713  0.63977109  0.36005883  1
  O  O152  1  0.26283048  0.87738681  0.36281407  1
  O  O153  1  0.76420871  0.87874992  0.35961685  1
  O  O154  1  0.17812633  0.47520467  0.36085832  1
  O  O155  1  0.67787705  0.47848079  0.36345205  1
  O  O156  1  0.05997592  0.47005752  0.86031340  1
  O  O157  1  0.55655170  0.47351802  0.86002306  1
  O  O158  1  0.17733812  0.88754842  0.85844349  1
  O  O159  1  0.67706344  0.87244124  0.86296366  1
  O  O160  1  0.26279304  0.64971035  0.86234893  1
  O  O161  1  0.76007519  0.64471253  0.86393851  1
  O  O162  1  0.00807937  0.82030226  0.41273986  1
  O  O163  1  0.50850165  0.82072330  0.41310727  1
  O  O164  1  0.40401834  0.98771239  0.41205065  1
  O  O165  1  0.90351429  0.98763132  0.41150200  1
  O  O166  1  0.08636781  0.20084374  0.41482734  1
  O  O167  1  0.58659778  0.20146593  0.41566970  1
  O  O168  1  0.00761530  0.19487108  0.91321182  1
  O  O169  1  0.50959836  0.19819210  0.91311719  1
  O  O170  1  0.08899222  0.98237862  0.91465552  1
  O  O171  1  0.58476273  0.97076173  0.91319532  1
  O  O172  1  0.40372256  0.82054828  0.91192234  1
  O  O173  1  0.90169096  0.82614414  0.91053571  1
  O  O174  1  0.49172486  0.15937081  0.59383047  1
  O  O175  1  0.98951059  0.16004353  0.59419059  1
  O  O176  1  0.09265527  0.01045914  0.59156560  1
  O  O177  1  0.59340926  0.01333014  0.59104944  1
  O  O178  1  0.41664822  0.80764527  0.59231691  1
  O  O179  1  0.91588660  0.80798888  0.59224601  1
  O  O180  1  0.48979897  0.82307539  0.09420344  1
  O  O181  1  0.99525204  0.82259586  0.09523856  1
  O  O182  1  0.41644952  0.02515946  0.09221889  1
  O  O183  1  0.92431321  0.02360360  0.09422609  1
  O  O184  1  0.09567917  0.17893620  0.09096608  1
  O  O185  1  0.59273669  0.16988022  0.09246670  1
  O  O186  1  0.34678055  0.15103694  0.74576151  1
  O  O187  1  0.84975223  0.15321230  0.74636494  1
  O  O188  1  0.24513959  0.30818737  0.74128159  1
  O  O189  1  0.74700022  0.31787369  0.74135396  1
  O  O190  1  0.42500611  0.53472275  0.74810938  1
  O  O191  1  0.92699883  0.53364432  0.74639763  1
  O  O192  1  0.34840321  0.54355253  0.24574399  1
  O  O193  1  0.84713783  0.54229578  0.24471123  1
  O  O194  1  0.42669290  0.31796856  0.24779346  1
  O  O195  1  0.92582089  0.31303314  0.24885541  1
  O  O196  1  0.24805127  0.17599502  0.24248691  1
  O  O197  1  0.74696166  0.17421912  0.24595950  1
  O  O198  1  0.32033296  0.50986951  0.91894312  1
  O  O199  1  0.82055148  0.50813698  0.91997473  1
  O  O200  1  0.43123395  0.35539574  0.92215768  1
  O  O201  1  0.92925317  0.34897726  0.91844959  1
  O  O202  1  0.24541057  0.14242899  0.91961155  1
  O  O203  1  0.74264147  0.13676134  0.91798849  1
  O  O204  1  0.32048315  0.13128136  0.42003788  1
  O  O205  1  0.81923208  0.13000374  0.41853406  1
  O  O206  1  0.24358439  0.34721704  0.42115408  1
  O  O207  1  0.74367185  0.34662966  0.42084977  1
  O  O208  1  0.43047099  0.50696657  0.42244866  1
  O  O209  1  0.93005426  0.50668071  0.42160659  1
  O  O210  1  0.17202220  0.48077207  0.07627770  1
  O  O211  1  0.67119316  0.47692216  0.07571886  1
  O  O212  1  0.07543442  0.63814607  0.07761989  1
  O  O213  1  0.57706926  0.66497304  0.08114338  1
  O  O214  1  0.26187220  0.85769219  0.07799063  1
  O  O215  1  0.75530171  0.83308040  0.07653801  1
  O  O216  1  0.17325892  0.86391855  0.57721886  1
  O  O217  1  0.67279501  0.86347346  0.57576051  1
  O  O218  1  0.26269758  0.66789406  0.57732904  1
  O  O219  1  0.76096295  0.66193331  0.57717276  1
  O  O220  1  0.07907529  0.50233807  0.58076027  1
  O  O221  1  0.58202967  0.49433936  0.58040860  1
  O  O222  1  0.15045041  0.82008342  0.25054582  1
  O  O223  1  0.65366542  0.82602224  0.25077481  1
  O  O224  1  0.26636759  0.69185199  0.25256886  1
  O  O225  1  0.76866660  0.69862753  0.25272602  1
  O  O226  1  0.08230092  0.46062633  0.25308693  1
  O  O227  1  0.58245263  0.46073447  0.25114375  1
  O  O228  1  0.15056148  0.47992619  0.75142876  1
  O  O229  1  0.64882823  0.47669688  0.74855786  1
  O  O230  1  0.08273697  0.70971344  0.75171400  1
  O  O231  1  0.58097107  0.70336841  0.75118650  1
  O  O232  1  0.26484095  0.84326446  0.75263274  1
  O  O233  1  0.76742975  0.84087769  0.75293216  1
