# generated using pymatgen
data_Mg(Fe2O3)4
_symmetry_space_group_name_H-M   'P 1'
_cell_length_a   5.31251700
_cell_length_b   5.70925804
_cell_length_c   7.67832318
_cell_angle_alpha   84.02167378
_cell_angle_beta   90.00000000
_cell_angle_gamma   90.00000000
_symmetry_Int_Tables_number   1
_chemical_formula_structural   Mg(Fe2O3)4
_chemical_formula_sum   'Mg1 Fe8 O12'
_cell_volume   231.62102387
_cell_formula_units_Z   1
loop_
 _symmetry_equiv_pos_site_id
 _symmetry_equiv_pos_as_xyz
  1  'x, y, z'
loop_
 _atom_site_type_symbol
 _atom_site_label
 _atom_site_symmetry_multiplicity
 _atom_site_fract_x
 _atom_site_fract_y
 _atom_site_fract_z
 _atom_site_occupancy
  Mg  Mg0  1  0.75500100  0.75000000  0.00000000  1
  Fe  Fe1  1  0.24382700  0.45141800  0.09158600  1
  Fe  Fe2  1  0.23592500  0.04100200  0.40272100  1
  Fe  Fe3  1  0.23592500  0.45899800  0.59727900  1
  Fe  Fe4  1  0.24382800  0.04858200  0.90841400  1
  Fe  Fe5  1  0.73945500  0.30351700  0.78271400  1
  Fe  Fe6  1  0.74122300  0.93557000  0.60095500  1
  Fe  Fe7  1  0.74122300  0.56443000  0.39904500  1
  Fe  Fe8  1  0.73945400  0.19648300  0.21728600  1
  O  O9  1  0.38043500  0.39899000  0.83634900  1
  O  O10  1  0.07578300  0.10599300  0.65621500  1
  O  O11  1  0.07578300  0.39400700  0.34378500  1
  O  O12  1  0.38043500  0.10101000  0.16365100  1
  O  O13  1  0.58723600  0.54217800  0.17148900  1
  O  O14  1  0.89377300  0.90520900  0.35690400  1
  O  O15  1  0.89377300  0.59479100  0.64309600  1
  O  O16  1  0.58723600  0.95782200  0.82851100  1
  O  O17  1  0.11124500  0.75000000  0.00000000  1
  O  O18  1  0.54905700  0.25000000  0.50000000  1
  O  O19  1  0.95704700  0.25000000  0.00000000  1
  O  O20  1  0.43233500  0.75000000  0.50000000  1
