# generated using pymatgen
data_Na2Hf4In4Si3(S3O16)3
_symmetry_space_group_name_H-M   'P 1'
_cell_length_a   17.86290045
_cell_length_b   8.90659631
_cell_length_c   23.38356269
_cell_angle_alpha   89.83904999
_cell_angle_beta   90.36595858
_cell_angle_gamma   119.93710180
_symmetry_Int_Tables_number   1
_chemical_formula_structural   Na2Hf4In4Si3(S3O16)3
_chemical_formula_sum   'Na6 Hf12 In12 Si9 S27 O144'
_cell_volume   3223.82208977
_cell_formula_units_Z   3
loop_
 _symmetry_equiv_pos_site_id
 _symmetry_equiv_pos_as_xyz
  1  'x, y, z'
loop_
 _atom_site_type_symbol
 _atom_site_label
 _atom_site_symmetry_multiplicity
 _atom_site_fract_x
 _atom_site_fract_y
 _atom_site_fract_z
 _atom_site_occupancy
  Na  Na0  1  0.99385893  0.01241503  0.50123630  1
  Na  Na1  1  0.49547879  0.97932516  0.00634377  1
  Na  Na2  1  0.32646981  0.31768644  0.84340915  1
  Na  Na3  1  0.82284651  0.32887117  0.83165429  1
  Na  Na4  1  0.32664016  0.31885944  0.32958442  1
  Na  Na5  1  0.81675626  0.32046553  0.33683525  1
  Hf  Hf6  1  0.51124964  0.01533655  0.35567075  1
  Hf  Hf7  1  0.00381208  0.99701167  0.85874620  1
  Hf  Hf8  1  0.50579367  0.01795469  0.64649537  1
  Hf  Hf9  1  0.00524593  0.99243472  0.14696318  1
  Hf  Hf10  1  0.33650467  0.33447078  0.68288192  1
  Hf  Hf11  1  0.83479546  0.33609451  0.68452499  1
  Hf  Hf12  1  0.33633924  0.33622775  0.18598950  1
  Hf  Hf13  1  0.83139107  0.32889686  0.18653356  1
  Hf  Hf14  1  0.16202209  0.67579140  0.02404236  1
  Hf  Hf15  1  0.66167808  0.66584370  0.02548798  1
  Hf  Hf16  1  0.16327500  0.66122251  0.52315456  1
  Hf  Hf17  1  0.66232009  0.65222712  0.52042023  1
  In  In18  1  0.00345793  0.99974345  0.34917128  1
  In  In19  1  0.50431333  0.00842906  0.85047394  1
  In  In20  1  0.99859803  0.01224377  0.64883043  1
  In  In21  1  0.50181384  0.97868345  0.15100901  1
  In  In22  1  0.32947257  0.33113285  0.98373541  1
  In  In23  1  0.83601560  0.33897754  0.98507584  1
  In  In24  1  0.33546474  0.33068293  0.48179149  1
  In  In25  1  0.83016247  0.32723282  0.48097518  1
  In  In26  1  0.16505054  0.67412059  0.30946632  1
  In  In27  1  0.66848661  0.66400990  0.31255325  1
  In  In28  1  0.16956994  0.67904901  0.81594806  1
  In  In29  1  0.66394687  0.65541822  0.81019513  1
  Si  Si30  1  0.14955209  0.00805320  0.25249375  1
  Si  Si31  1  0.64944514  0.99879835  0.25181518  1
  Si  Si32  1  0.64986737  0.29239275  0.75223052  1
  Si  Si33  1  0.47866518  0.33460757  0.58154162  1
  Si  Si34  1  0.97577179  0.32710748  0.58131767  1
  Si  Si35  1  0.47367822  0.62652594  0.08019785  1
  Si  Si36  1  0.97548660  0.61961162  0.08304165  1
  Si  Si37  1  0.17419052  0.96603306  0.91573291  1
  Si  Si38  1  0.67283040  0.38353816  0.41477083  1
  S  S39  1  0.35391922  0.70518248  0.25226756  1
  S  S40  1  0.85562028  0.70807594  0.24795068  1
  S  S41  1  0.99738615  0.28697192  0.24995325  1
  S  S42  1  0.49688555  0.28210203  0.24882244  1
  S  S43  1  0.14675347  0.29467408  0.75286255  1
  S  S44  1  0.99955123  0.71294164  0.74959512  1
  S  S45  1  0.49498634  0.70516432  0.75011662  1
  S  S46  1  0.35301326  0.99894959  0.74817763  1
  S  S47  1  0.85554113  0.00425885  0.75223121  1
  S  S48  1  0.18666174  0.04230754  0.58227980  1
  S  S49  1  0.68685723  0.03886377  0.58419095  1
  S  S50  1  0.33348892  0.62523657  0.58373484  1
  S  S51  1  0.83432632  0.62847326  0.58313965  1
  S  S52  1  0.33576458  0.04095259  0.08422663  1
  S  S53  1  0.83354279  0.04087934  0.08369061  1
  S  S54  1  0.18655723  0.33424411  0.08399179  1
  S  S55  1  0.68607305  0.33132419  0.08115714  1
  S  S56  1  0.31569116  0.67276722  0.91499093  1
  S  S57  1  0.81133362  0.66396483  0.91589604  1
  S  S58  1  0.01944254  0.37437095  0.91506804  1
  S  S59  1  0.52251428  0.37641173  0.91769049  1
  S  S60  1  0.66857727  0.95730617  0.91757644  1
  S  S61  1  0.31087187  0.95598851  0.41624362  1
  S  S62  1  0.81732629  0.95889785  0.41666863  1
  S  S63  1  0.16755554  0.37870994  0.41797509  1
  S  S64  1  0.02289081  0.66934195  0.41738842  1
  S  S65  1  0.51821076  0.66422469  0.41619140  1
  O  O66  1  0.11463799  0.05368288  0.31080217  1
  O  O67  1  0.60052194  0.03100504  0.30694026  1
  O  O68  1  0.40938087  0.79080780  0.30252129  1
  O  O69  1  0.90545081  0.77373575  0.30220599  1
  O  O70  1  0.48194577  0.16999403  0.30010567  1
  O  O71  1  0.97743644  0.18254931  0.30331335  1
  O  O72  1  0.10217941  0.17891683  0.80255505  1
  O  O73  1  0.61402657  0.17446145  0.81017730  1
  O  O74  1  0.47550139  0.77047419  0.80286221  1
  O  O75  1  0.98754991  0.80033772  0.80046671  1
  O  O76  1  0.40298741  0.03551843  0.80203616  1
  O  O77  1  0.91218595  0.03002520  0.80240032  1
  O  O78  1  0.39947625  0.98214624  0.69919020  1
  O  O79  1  0.89037786  0.96981877  0.70014185  1
  O  O80  1  0.09672753  0.22046553  0.69997092  1
  O  O81  1  0.58802493  0.18655545  0.69754982  1
  O  O82  1  0.01133887  0.81658169  0.69763770  1
  O  O83  1  0.50236333  0.80891912  0.69974761  1
  O  O84  1  0.38645899  0.80775887  0.19960054  1
  O  O85  1  0.90266577  0.82239789  0.19931744  1
  O  O86  1  0.00461507  0.19651332  0.20000352  1
  O  O87  1  0.50377324  0.20019966  0.19629297  1
  O  O88  1  0.08810083  0.99013427  0.19764182  1
  O  O89  1  0.59707575  0.97435640  0.19316016  1
  O  O90  1  0.42899889  0.36168032  0.63773899  1
  O  O91  1  0.93115299  0.35445886  0.63868049  1
  O  O92  1  0.24166644  0.12911654  0.63380156  1
  O  O93  1  0.74404403  0.12829354  0.63480047  1
  O  O94  1  0.31399334  0.50386780  0.63379864  1
  O  O95  1  0.81976655  0.51611031  0.63455118  1
  O  O96  1  0.42874378  0.50799742  0.13672298  1
  O  O97  1  0.92557354  0.49141077  0.13646161  1
  O  O98  1  0.31982391  0.12485350  0.13395781  1
  O  O99  1  0.81387761  0.12187504  0.13225992  1
  O  O100  1  0.24397498  0.36084711  0.13379541  1
  O  O101  1  0.74036741  0.35406766  0.13187874  1
  O  O102  1  0.21617673  0.28509191  0.03247567  1
  O  O103  1  0.72021122  0.29217046  0.02912949  1
  O  O104  1  0.41958773  0.54097159  0.02243583  1
  O  O105  1  0.92261234  0.55424429  0.02341508  1
  O  O106  1  0.34890170  0.14054247  0.03123060  1
  O  O107  1  0.84988811  0.14210179  0.03047589  1
  O  O108  1  0.22079093  0.15165007  0.53126205  1
  O  O109  1  0.71726954  0.14882793  0.53323017  1
  O  O110  1  0.34919619  0.55311265  0.53205994  1
  O  O111  1  0.84782420  0.55253655  0.53165014  1
  O  O112  1  0.41844482  0.28999521  0.52618392  1
  O  O113  1  0.91748570  0.29622950  0.52539168  1
  O  O114  1  0.27082672  0.68681727  0.96564242  1
  O  O115  1  0.77229558  0.68797650  0.96747600  1
  O  O116  1  0.07336758  0.45442177  0.96632225  1
  O  O117  1  0.57846263  0.47022119  0.96803462  1
  O  O118  1  0.15955477  0.84128643  0.97091645  1
  O  O119  1  0.66459704  0.85124235  0.96822767  1
  O  O120  1  0.26845385  0.85420036  0.46884108  1
  O  O121  1  0.77258452  0.85746950  0.46876702  1
  O  O122  1  0.16366063  0.47608031  0.46928005  1
  O  O123  1  0.66096674  0.47931610  0.47182152  1
  O  O124  1  0.07852243  0.68717418  0.46874729  1
  O  O125  1  0.57146320  0.68845541  0.46863735  1
  O  O126  1  0.06265770  0.64843157  0.36556801  1
  O  O127  1  0.55611856  0.63400728  0.36568543  1
  O  O128  1  0.25625977  0.87337958  0.36548048  1
  O  O129  1  0.76886746  0.88142364  0.36430704  1
  O  O130  1  0.17720335  0.47663222  0.36528183  1
  O  O131  1  0.68748150  0.49567120  0.35776108  1
  O  O132  1  0.05759806  0.47850506  0.86290006  1
  O  O133  1  0.56137233  0.47622160  0.86496759  1
  O  O134  1  0.18951072  0.89265988  0.85641394  1
  O  O135  1  0.67819276  0.87902123  0.86438565  1
  O  O136  1  0.26608406  0.64836830  0.86115523  1
  O  O137  1  0.75904616  0.64160090  0.86404941  1
  O  O138  1  0.01734616  0.83074275  0.41665734  1
  O  O139  1  0.50976542  0.82124432  0.41000445  1
  O  O140  1  0.39575160  0.97018293  0.40942162  1
  O  O141  1  0.90499493  0.97019494  0.41486895  1
  O  O142  1  0.08721625  0.20799095  0.41821394  1
  O  O143  1  0.58271531  0.19689552  0.40801519  1
  O  O144  1  0.01179856  0.20011425  0.90676377  1
  O  O145  1  0.51668653  0.20335699  0.91657979  1
  O  O146  1  0.08494558  0.97743329  0.90542266  1
  O  O147  1  0.58753695  0.96557101  0.91727125  1
  O  O148  1  0.40245389  0.83718538  0.91139973  1
  O  O149  1  0.89858862  0.82223189  0.90719920  1
  O  O150  1  0.48898597  0.16737892  0.59592043  1
  O  O151  1  0.99303323  0.16339246  0.58642559  1
  O  O152  1  0.09827753  0.00818304  0.59161079  1
  O  O153  1  0.59837838  0.00492441  0.59675147  1
  O  O154  1  0.40816435  0.79223179  0.59766254  1
  O  O155  1  0.91290978  0.79959596  0.59191938  1
  O  O156  1  0.48718533  0.82039312  0.08288874  1
  O  O157  1  0.98880184  0.81095290  0.09556326  1
  O  O158  1  0.41297998  0.02507809  0.09345546  1
  O  O159  1  0.90849693  0.02275836  0.09664552  1
  O  O160  1  0.09823646  0.19286566  0.09613990  1
  O  O161  1  0.59648601  0.19125120  0.08808059  1
  O  O162  1  0.34074454  0.15382612  0.73867518  1
  O  O163  1  0.85118064  0.16749445  0.74534852  1
  O  O164  1  0.23347844  0.30817450  0.74700097  1
  O  O165  1  0.74587591  0.31322463  0.74089928  1
  O  O166  1  0.41727784  0.52505540  0.74154853  1
  O  O167  1  0.91879089  0.54076628  0.74464160  1
  O  O168  1  0.34997114  0.53263001  0.24520837  1
  O  O169  1  0.84796673  0.53423851  0.23881820  1
  O  O170  1  0.41674756  0.29915043  0.24461916  1
  O  O171  1  0.92187352  0.31434553  0.24129348  1
  O  O172  1  0.24502650  0.17905455  0.24041474  1
  O  O173  1  0.74510624  0.17738456  0.24491901  1
  O  O174  1  0.32806770  0.52075605  0.91827529  1
  O  O175  1  0.82199980  0.50875693  0.91888672  1
  O  O176  1  0.43626989  0.35723710  0.92216758  1
  O  O177  1  0.93065176  0.34648477  0.92014374  1
  O  O178  1  0.25507562  0.16131151  0.92234747  1
  O  O179  1  0.74605032  0.13373197  0.92333847  1
  O  O180  1  0.31886903  0.13185186  0.41941327  1
  O  O181  1  0.82968644  0.13627340  0.41998371  1
  O  O182  1  0.24530977  0.35814172  0.42415728  1
  O  O183  1  0.75556768  0.35348620  0.42094028  1
  O  O184  1  0.42879509  0.51233661  0.42178694  1
  O  O185  1  0.93711363  0.51570426  0.42251562  1
  O  O186  1  0.18330259  0.49486744  0.07410203  1
  O  O187  1  0.68657898  0.49862346  0.07235095  1
  O  O188  1  0.07085383  0.63512390  0.07456923  1
  O  O189  1  0.57030460  0.64262412  0.07106005  1
  O  O190  1  0.25836346  0.86439229  0.07712486  1
  O  O191  1  0.75627005  0.86571271  0.07443745  1
  O  O192  1  0.18589227  0.87591876  0.57466186  1
  O  O193  1  0.68358421  0.87267625  0.57584438  1
  O  O194  1  0.25601029  0.64452629  0.57562727  1
  O  O195  1  0.75834327  0.65178924  0.57661124  1
  O  O196  1  0.07178132  0.50268604  0.57082566  1
  O  O197  1  0.57217451  0.50854542  0.57398295  1
  O  O198  1  0.15525544  0.83333976  0.25403990  1
  O  O199  1  0.66166904  0.83499250  0.26226227  1
  O  O200  1  0.26496632  0.66920457  0.26057411  1
  O  O201  1  0.77023230  0.68968196  0.24954423  1
  O  O202  1  0.07719417  0.45546878  0.25600577  1
  O  O203  1  0.57171715  0.45398087  0.25588516  1
  O  O204  1  0.15706181  0.46720292  0.76177277  1
  O  O205  1  0.65624541  0.47930177  0.75430912  1
  O  O206  1  0.07368668  0.68656512  0.75704732  1
  O  O207  1  0.57333581  0.69159268  0.75598029  1
  O  O208  1  0.26748263  0.84183315  0.75063949  1
  O  O209  1  0.76781002  0.85900878  0.76073126  1
