# generated using pymatgen
data_Na4TaIn3(PO4)6
_symmetry_space_group_name_H-M   'P 1'
_cell_length_a   8.98403063
_cell_length_b   8.97616591
_cell_length_c   22.82129098
_cell_angle_alpha   89.93960816
_cell_angle_beta   90.07994404
_cell_angle_gamma   120.00429187
_symmetry_Int_Tables_number   1
_chemical_formula_structural   Na4TaIn3(PO4)6
_chemical_formula_sum   'Na12 Ta3 In9 P18 O72'
_cell_volume   1593.72612636
_cell_formula_units_Z   3
loop_
 _symmetry_equiv_pos_site_id
 _symmetry_equiv_pos_as_xyz
  1  'x, y, z'
loop_
 _atom_site_type_symbol
 _atom_site_label
 _atom_site_symmetry_multiplicity
 _atom_site_fract_x
 _atom_site_fract_y
 _atom_site_fract_z
 _atom_site_occupancy
  Na  Na0  1  0.63593693  0.99972353  0.25068619  1
  Na  Na1  1  0.36319518  0.36366445  0.25056981  1
  Na  Na2  1  0.00003706  0.63669213  0.25003864  1
  Na  Na3  1  0.29862326  0.33342040  0.58568432  1
  Na  Na4  1  0.03629382  0.69993219  0.58556037  1
  Na  Na5  1  0.66471092  0.70207229  0.08108316  1
  Na  Na6  1  0.99023563  0.99914201  0.49728141  1
  Na  Na7  1  0.00985644  0.00913420  0.99617368  1
  Na  Na8  1  0.66677840  0.33325250  0.82725316  1
  Na  Na9  1  0.66654892  0.33295581  0.33467195  1
  Na  Na10  1  0.32285884  0.66619721  0.16207537  1
  Na  Na11  1  0.34594687  0.67828444  0.66723932  1
  Ta  Ta12  1  0.66654875  0.33130641  0.97743651  1
  Ta  Ta13  1  0.66692597  0.33161155  0.48002261  1
  Ta  Ta14  1  0.33225017  0.66616912  0.81395588  1
  In  In15  1  0.00103451  0.00046468  0.35323097  1
  In  In16  1  0.99941406  0.99960365  0.85061495  1
  In  In17  1  0.99197917  0.99929052  0.65296454  1
  In  In18  1  0.00718471  0.00645905  0.14477301  1
  In  In19  1  0.66680408  0.33079169  0.68762080  1
  In  In20  1  0.66654913  0.33063532  0.17999480  1
  In  In21  1  0.32707912  0.66623435  0.01574713  1
  In  In22  1  0.33944659  0.67257646  0.51462895  1
  In  In23  1  0.33399427  0.66735160  0.32259824  1
  P  P24  1  0.29396728  0.99896342  0.24998001  1
  P  P25  1  0.70486209  0.70544664  0.24865143  1
  P  P26  1  0.00109208  0.29531924  0.25010146  1
  P  P27  1  0.29622503  0.29769055  0.75056776  1
  P  P28  1  0.00151055  0.70412956  0.75043906  1
  P  P29  1  0.70219974  0.99807887  0.75212973  1
  P  P30  1  0.95734513  0.33188077  0.58271566  1
  P  P31  1  0.37589817  0.04122408  0.58336132  1
  P  P32  1  0.66632886  0.62363223  0.58302383  1
  P  P33  1  0.95996069  0.62443768  0.08267365  1
  P  P34  1  0.66586355  0.03946646  0.08222205  1
  P  P35  1  0.37482199  0.33329777  0.08160178  1
  P  P36  1  0.62544960  0.66648766  0.91839299  1
  P  P37  1  0.04095712  0.37380134  0.91721381  1
  P  P38  1  0.33286298  0.95902687  0.91696780  1
  P  P39  1  0.63396730  0.96779032  0.41662639  1
  P  P40  1  0.33442825  0.36704157  0.41835675  1
  P  P41  1  0.03232903  0.66548000  0.41817066  1
  O  O42  1  0.21749366  0.03679611  0.30404022  1
  O  O43  1  0.82194296  0.78679956  0.30186602  1
  O  O44  1  0.96392852  0.18072743  0.30409104  1
  O  O45  1  0.21008286  0.18544548  0.80322633  1
  O  O46  1  0.97510955  0.78949511  0.80326349  1
  O  O47  1  0.81163156  0.02598297  0.80580459  1
  O  O48  1  0.76648116  0.95536721  0.69543704  1
  O  O49  1  0.19338196  0.23416049  0.69215019  1
  O  O50  1  0.04046613  0.80740590  0.69212134  1
  O  O51  1  0.77884129  0.81302681  0.19189877  1
  O  O52  1  0.03767631  0.21924186  0.19517337  1
  O  O53  1  0.18067939  0.96199083  0.19510187  1
  O  O54  1  0.88113445  0.36858221  0.63649985  1
  O  O55  1  0.48147803  0.12076987  0.63803597  1
  O  O56  1  0.63318677  0.51181075  0.63707483  1
  O  O57  1  0.88746817  0.52927166  0.14123901  1
  O  O58  1  0.64039938  0.10947168  0.14063445  1
  O  O59  1  0.47640162  0.36479615  0.13961920  1
  O  O60  1  0.48121023  0.31807563  0.02914152  1
  O  O61  1  0.83576795  0.51910694  0.03020289  1
  O  O62  1  0.68132787  0.16043189  0.02960044  1
  O  O63  1  0.47437685  0.15969248  0.52882068  1
  O  O64  1  0.68750539  0.52503855  0.52858625  1
  O  O65  1  0.84116793  0.31418713  0.52802211  1
  O  O66  1  0.55204949  0.69148829  0.97551319  1
  O  O67  1  0.14451159  0.44914688  0.97270562  1
  O  O68  1  0.30658988  0.85709464  0.97268624  1
  O  O69  1  0.54885833  0.85552500  0.46977316  1
  O  O70  1  0.30942080  0.44977020  0.47325737  1
  O  O71  1  0.13908946  0.68948476  0.47331564  1
  O  O72  1  0.10198793  0.62841190  0.36138411  1
  O  O73  1  0.52944704  0.90228076  0.35906354  1
  O  O74  1  0.37220557  0.47388671  0.36140207  1
  O  O75  1  0.13276565  0.49601417  0.86365891  1
  O  O76  1  0.36180341  0.86637913  0.86354314  1
  O  O77  1  0.50164472  0.63812196  0.86559457  1
  O  O78  1  0.00690935  0.82069177  0.41353410  1
  O  O79  1  0.81478589  0.99432405  0.41265695  1
  O  O80  1  0.17933660  0.18663073  0.41372546  1
  O  O81  1  0.01090646  0.19347351  0.90969164  1
  O  O82  1  0.18280920  0.98963431  0.90953125  1
  O  O83  1  0.80559891  0.81740505  0.91058181  1
  O  O84  1  0.97676113  0.17075757  0.58451229  1
  O  O85  1  0.19847328  0.03348049  0.58403585  1
  O  O86  1  0.83642352  0.79763880  0.58465905  1
  O  O87  1  0.95849128  0.79645652  0.08247212  1
  O  O88  1  0.83031993  0.02503184  0.08212131  1
  O  O89  1  0.20015547  0.16809352  0.08182685  1
  O  O90  1  0.67305876  0.15157126  0.74697171  1
  O  O91  1  0.47909394  0.32761888  0.74636630  1
  O  O92  1  0.84835168  0.52126175  0.74608157  1
  O  O93  1  0.68265027  0.52173493  0.24468223  1
  O  O94  1  0.83940471  0.31674304  0.24500840  1
  O  O95  1  0.47695144  0.16082304  0.24470714  1
  O  O96  1  0.63629082  0.49475123  0.92506596  1
  O  O97  1  0.85916838  0.36377914  0.92500939  1
  O  O98  1  0.50489075  0.14102184  0.92450713  1
  O  O99  1  0.64799716  0.14920732  0.42668459  1
  O  O100  1  0.50147048  0.35186543  0.42731947  1
  O  O101  1  0.85006160  0.49823353  0.42683664  1
  O  O102  1  0.36557010  0.49930114  0.07594569  1
  O  O103  1  0.13837885  0.64569642  0.07745349  1
  O  O104  1  0.50925664  0.85733390  0.07681718  1
  O  O105  1  0.34482530  0.85688800  0.57703850  1
  O  O106  1  0.50324937  0.63778080  0.57605228  1
  O  O107  1  0.13848950  0.49424136  0.57579361  1
  O  O108  1  0.31438852  0.83693341  0.25600571  1
  O  O109  1  0.52307658  0.68607523  0.25529480  1
  O  O110  1  0.16291008  0.47805833  0.25621436  1
  O  O111  1  0.31254982  0.48176949  0.76186136  1
  O  O112  1  0.16929097  0.68818827  0.76156531  1
  O  O113  1  0.51783820  0.83066340  0.76271656  1
