# generated using pymatgen
data_Na8CaHf3Si5SO24
_symmetry_space_group_name_H-M   'P 1'
_cell_length_a   9.29386803
_cell_length_b   9.30073822
_cell_length_c   22.76658892
_cell_angle_alpha   90.32491322
_cell_angle_beta   89.81421707
_cell_angle_gamma   120.00615355
_symmetry_Int_Tables_number   1
_chemical_formula_structural   Na8CaHf3Si5SO24
_chemical_formula_sum   'Na24 Ca3 Hf9 Si15 S3 O72'
_cell_volume   1704.15289128
_cell_formula_units_Z   3
loop_
 _symmetry_equiv_pos_site_id
 _symmetry_equiv_pos_as_xyz
  1  'x, y, z'
loop_
 _atom_site_type_symbol
 _atom_site_label
 _atom_site_symmetry_multiplicity
 _atom_site_fract_x
 _atom_site_fract_y
 _atom_site_fract_z
 _atom_site_occupancy
  Na  Na0  1  0.65275076  0.02449158  0.24608158  1
  Na  Na1  1  0.35846919  0.36200667  0.23970456  1
  Na  Na2  1  0.99151523  0.61494709  0.24159722  1
  Na  Na3  1  0.63175615  0.61813462  0.74752002  1
  Na  Na4  1  0.98840043  0.36602642  0.75476728  1
  Na  Na5  1  0.38295276  0.01209380  0.74804450  1
  Na  Na6  1  0.32207328  0.33610688  0.58953549  1
  Na  Na7  1  0.03031179  0.70675701  0.58212801  1
  Na  Na8  1  0.65609252  0.96452069  0.59242765  1
  Na  Na9  1  0.31190616  0.97009848  0.07710212  1
  Na  Na10  1  0.66039814  0.68810055  0.07648646  1
  Na  Na11  1  0.02855490  0.34790474  0.07926837  1
  Na  Na12  1  0.96657892  0.66646204  0.91407643  1
  Na  Na13  1  0.69924403  0.03323636  0.91377208  1
  Na  Na14  1  0.33423895  0.30032018  0.91398237  1
  Na  Na15  1  0.96420563  0.28489711  0.41085551  1
  Na  Na16  1  0.31933068  0.02800881  0.42093294  1
  Na  Na17  1  0.71308337  0.68141468  0.42119734  1
  Na  Na18  1  0.00062708  0.99307512  0.49612428  1
  Na  Na19  1  0.00025903  0.99886791  0.99412418  1
  Na  Na20  1  0.66601734  0.33274473  0.82666794  1
  Na  Na21  1  0.68576818  0.33094242  0.33518888  1
  Na  Na22  1  0.32595128  0.65890120  0.15746680  1
  Na  Na23  1  0.34607092  0.67695297  0.67336486  1
  Ca  Ca24  1  0.99915696  0.00366624  0.35434978  1
  Ca  Ca25  1  0.65817051  0.33053487  0.68570031  1
  Ca  Ca26  1  0.67126112  0.33327995  0.17528093  1
  Hf  Hf27  1  0.99942355  0.99901190  0.85274907  1
  Hf  Hf28  1  0.00189626  0.99079070  0.65176678  1
  Hf  Hf29  1  0.00334265  0.01597035  0.14206801  1
  Hf  Hf30  1  0.66848404  0.33499486  0.98215401  1
  Hf  Hf31  1  0.65629907  0.33596549  0.47999114  1
  Hf  Hf32  1  0.33298710  0.66670684  0.01454454  1
  Hf  Hf33  1  0.33959476  0.67406018  0.51643002  1
  Hf  Hf34  1  0.32554482  0.65662058  0.31973055  1
  Hf  Hf35  1  0.33533310  0.66706170  0.81451868  1
  Si  Si36  1  0.00312841  0.30463982  0.25252501  1
  Si  Si37  1  0.28636237  0.29393754  0.75142011  1
  Si  Si38  1  0.00773671  0.70819395  0.75264080  1
  Si  Si39  1  0.70700774  0.99429186  0.75145979  1
  Si  Si40  1  0.36481971  0.03166525  0.58305475  1
  Si  Si41  1  0.66703049  0.63682701  0.58349602  1
  Si  Si42  1  0.97048230  0.63680922  0.08478176  1
  Si  Si43  1  0.66095185  0.03042059  0.08426803  1
  Si  Si44  1  0.37003782  0.33907656  0.08450379  1
  Si  Si45  1  0.62769928  0.66457144  0.91649979  1
  Si  Si46  1  0.03796851  0.37261372  0.91622346  1
  Si  Si47  1  0.33524379  0.96253436  0.91676405  1
  Si  Si48  1  0.62232584  0.96341235  0.41574635  1
  Si  Si49  1  0.33834075  0.37601544  0.41886302  1
  Si  Si50  1  0.03398842  0.65589058  0.41892460  1
  S  S51  1  0.29418493  0.99419934  0.25028209  1
  S  S52  1  0.70028260  0.70611302  0.25012490  1
  S  S53  1  0.96406100  0.33331293  0.58128418  1
  O  O54  1  0.21490843  0.00702567  0.30404823  1
  O  O55  1  0.79688350  0.77965978  0.30359412  1
  O  O56  1  0.98140577  0.19970170  0.31062774  1
  O  O57  1  0.18756243  0.17870003  0.80827295  1
  O  O58  1  0.98706069  0.80549438  0.80920968  1
  O  O59  1  0.81974289  0.00955218  0.80894745  1
  O  O60  1  0.79939575  0.97291912  0.69168301  1
  O  O61  1  0.17334717  0.20205222  0.69153924  1
  O  O62  1  0.02968600  0.82258591  0.69296272  1
  O  O63  1  0.78963190  0.80975637  0.19761902  1
  O  O64  1  0.02519353  0.20182417  0.19480316  1
  O  O65  1  0.18892108  0.97584041  0.19765357  1
  O  O66  1  0.89491441  0.36226468  0.63481492  1
  O  O67  1  0.48045177  0.09569837  0.64006221  1
  O  O68  1  0.62722937  0.52622304  0.64118124  1
  O  O69  1  0.90973190  0.53383734  0.14484027  1
  O  O70  1  0.61971419  0.08885903  0.14530789  1
  O  O71  1  0.46640144  0.37450910  0.14591521  1
  O  O72  1  0.46669318  0.30596707  0.03001564  1
  O  O73  1  0.84064674  0.54073209  0.02985956  1
  O  O74  1  0.69795537  0.16123899  0.03000381  1
  O  O75  1  0.46369762  0.15639661  0.52603968  1
  O  O76  1  0.69643675  0.54008145  0.52619135  1
  O  O77  1  0.85728591  0.31301589  0.52924932  1
  O  O78  1  0.53851345  0.69255724  0.97405927  1
  O  O79  1  0.15463649  0.46122914  0.97383272  1
  O  O80  1  0.30653093  0.84532949  0.97406952  1
  O  O81  1  0.52176404  0.84699290  0.47189128  1
  O  O82  1  0.31648878  0.47182162  0.47484377  1
  O  O83  1  0.14885655  0.67492192  0.47515591  1
  O  O84  1  0.12858482  0.63358479  0.35963287  1
  O  O85  1  0.50576282  0.87143459  0.35666096  1
  O  O86  1  0.36500210  0.49360267  0.35992512  1
  O  O87  1  0.12816683  0.49262990  0.85942337  1
  O  O88  1  0.36517164  0.87152517  0.85996110  1
  O  O89  1  0.50787288  0.63488561  0.85965406  1
  O  O90  1  0.01411530  0.81779866  0.41597547  1
  O  O91  1  0.80160666  0.97665637  0.41721009  1
  O  O92  1  0.18255402  0.19081267  0.41739971  1
  O  O93  1  0.01748668  0.18668006  0.91254281  1
  O  O94  1  0.16947315  0.98268776  0.91295498  1
  O  O95  1  0.81329651  0.83068145  0.91310418  1
  O  O96  1  0.97719082  0.17993959  0.58406502  1
  O  O97  1  0.18294553  0.02543445  0.58644160  1
  O  O98  1  0.83644135  0.82366541  0.58588451  1
  O  O99  1  0.98540672  0.82210693  0.09204778  1
  O  O100  1  0.83339072  0.01565250  0.08953555  1
  O  O101  1  0.18404231  0.16462266  0.08794167  1
  O  O102  1  0.69182027  0.15938882  0.75097234  1
  O  O103  1  0.46786246  0.31135153  0.75210113  1
  O  O104  1  0.84660224  0.52587942  0.75009018  1
  O  O105  1  0.67107949  0.53518457  0.24530755  1
  O  O106  1  0.84153806  0.32920983  0.24915081  1
  O  O107  1  0.46052510  0.14413348  0.24639915  1
  O  O108  1  0.64478627  0.49749380  0.92380251  1
  O  O109  1  0.85377869  0.35585223  0.92370585  1
  O  O110  1  0.50260895  0.14660761  0.92441397  1
  O  O111  1  0.63708405  0.14693389  0.42200225  1
  O  O112  1  0.51348285  0.37029289  0.42151157  1
  O  O113  1  0.85406700  0.48267583  0.42259246  1
  O  O114  1  0.33817228  0.49499528  0.07397898  1
  O  O115  1  0.15724229  0.66384770  0.07372403  1
  O  O116  1  0.50558153  0.84263997  0.07323439  1
  O  O117  1  0.32615240  0.83877122  0.57378989  1
  O  O118  1  0.50276603  0.66067538  0.57470692  1
  O  O119  1  0.13469855  0.47961991  0.57444464  1
  O  O120  1  0.30999562  0.84025053  0.25131689  1
  O  O121  1  0.53513717  0.70114721  0.25238398  1
  O  O122  1  0.18201291  0.49094698  0.25265956  1
  O  O123  1  0.29674402  0.47625422  0.75466206  1
  O  O124  1  0.18163162  0.70251471  0.75506586  1
  O  O125  1  0.52472805  0.82194314  0.75476446  1
