# generated using pymatgen
data_Na5Mg2Sn2P5SO24
_symmetry_space_group_name_H-M   'P 1'
_cell_length_a   8.89564748
_cell_length_b   8.89735997
_cell_length_c   22.42593660
_cell_angle_alpha   90.34158027
_cell_angle_beta   89.67457345
_cell_angle_gamma   120.18614591
_symmetry_Int_Tables_number   1
_chemical_formula_structural   Na5Mg2Sn2P5SO24
_chemical_formula_sum   'Na15 Mg6 Sn6 P15 S3 O72'
_cell_volume   1534.23702686
_cell_formula_units_Z   3
loop_
 _symmetry_equiv_pos_site_id
 _symmetry_equiv_pos_as_xyz
  1  'x, y, z'
loop_
 _atom_site_type_symbol
 _atom_site_label
 _atom_site_symmetry_multiplicity
 _atom_site_fract_x
 _atom_site_fract_y
 _atom_site_fract_z
 _atom_site_occupancy
  Na  Na0  1  0.63942893  0.99936920  0.25212954  1
  Na  Na1  1  0.36869863  0.37424488  0.24723666  1
  Na  Na2  1  0.99356449  0.62348005  0.25248631  1
  Na  Na3  1  0.64037920  0.63176045  0.74727049  1
  Na  Na4  1  0.99130201  0.36013546  0.74874030  1
  Na  Na5  1  0.36897289  0.00942321  0.74876542  1
  Na  Na6  1  0.30459823  0.96464884  0.07617830  1
  Na  Na7  1  0.03716823  0.34323596  0.07785662  1
  Na  Na8  1  0.70758284  0.67810377  0.41697085  1
  Na  Na9  1  0.00327779  0.00287086  0.49981337  1
  Na  Na10  1  0.99958052  0.99921333  0.99057462  1
  Na  Na11  1  0.66736287  0.32918172  0.83375920  1
  Na  Na12  1  0.67775306  0.32962815  0.33527945  1
  Na  Na13  1  0.34307586  0.66249672  0.16160273  1
  Na  Na14  1  0.33343777  0.66669389  0.66320153  1
  Mg  Mg15  1  0.99165361  0.99881167  0.35434485  1
  Mg  Mg16  1  0.00708419  0.00651155  0.85349690  1
  Mg  Mg17  1  0.66765119  0.33455576  0.68193303  1
  Mg  Mg18  1  0.67117907  0.33841043  0.18116670  1
  Mg  Mg19  1  0.33329177  0.66624502  0.01663789  1
  Mg  Mg20  1  0.33033307  0.66544615  0.31932675  1
  Sn  Sn21  1  0.99962474  0.99927656  0.64766123  1
  Sn  Sn22  1  0.98979958  0.99699559  0.14750772  1
  Sn  Sn23  1  0.66763167  0.33023339  0.98131327  1
  Sn  Sn24  1  0.67436466  0.32822549  0.48590682  1
  Sn  Sn25  1  0.33182640  0.67376708  0.51975699  1
  Sn  Sn26  1  0.32870737  0.66829924  0.82005029  1
  P  P27  1  0.70389221  0.70279006  0.25265090  1
  P  P28  1  0.00048662  0.29350520  0.25142704  1
  P  P29  1  0.29308953  0.29251655  0.75169504  1
  P  P30  1  0.99802263  0.70892466  0.75178104  1
  P  P31  1  0.70907675  0.99962165  0.75243399  1
  P  P32  1  0.96467158  0.33274034  0.58583581  1
  P  P33  1  0.37273194  0.04246269  0.58539433  1
  P  P34  1  0.66501963  0.62713425  0.58376115  1
  P  P35  1  0.95964048  0.62681986  0.08479461  1
  P  P36  1  0.66260138  0.03729083  0.08551954  1
  P  P37  1  0.37607255  0.33669156  0.08608977  1
  P  P38  1  0.03657964  0.36765399  0.91929078  1
  P  P39  1  0.33036223  0.96319152  0.91944090  1
  P  P40  1  0.62545278  0.96190162  0.41500483  1
  P  P41  1  0.03890007  0.66779265  0.41527038  1
  S  S42  1  0.29213679  0.00043597  0.25107797  1
  S  S43  1  0.62899920  0.66730787  0.91770129  1
  S  S44  1  0.33174584  0.37026975  0.41600549  1
  O  O45  1  0.20674975  0.02911968  0.30171493  1
  O  O46  1  0.82256692  0.78657033  0.30616414  1
  O  O47  1  0.97171436  0.17149600  0.30255344  1
  O  O48  1  0.20900521  0.17666909  0.80434672  1
  O  O49  1  0.96699381  0.79351528  0.80488680  1
  O  O50  1  0.82436343  0.02945396  0.80502127  1
  O  O51  1  0.77990560  0.95428643  0.69449683  1
  O  O52  1  0.17517901  0.22116423  0.69460691  1
  O  O53  1  0.04390302  0.82597830  0.69452802  1
  O  O54  1  0.78428595  0.82250194  0.19573417  1
  O  O55  1  0.04138271  0.21968452  0.19184951  1
  O  O56  1  0.18501421  0.96597075  0.19459776  1
  O  O57  1  0.88566967  0.36220030  0.64148368  1
  O  O58  1  0.47880229  0.12107092  0.64124749  1
  O  O59  1  0.63870760  0.52025824  0.63917751  1
  O  O60  1  0.88151211  0.51978691  0.14119495  1
  O  O61  1  0.63497963  0.11734048  0.14222320  1
  O  O62  1  0.47656925  0.35530545  0.14302235  1
  O  O63  1  0.45506366  0.29375928  0.03067646  1
  O  O64  1  0.84247564  0.54635925  0.02940838  1
  O  O65  1  0.70750925  0.16086687  0.03096549  1
  O  O66  1  0.45244652  0.15233958  0.52765617  1
  O  O67  1  0.69381264  0.54802706  0.52458543  1
  O  O68  1  0.85531467  0.29911210  0.52810825  1
  O  O69  1  0.53905810  0.68724146  0.96919713  1
  O  O70  1  0.14624451  0.45792836  0.97399713  1
  O  O71  1  0.31528413  0.85620210  0.97418557  1
  O  O72  1  0.54130968  0.83929166  0.47020177  1
  O  O73  1  0.30540618  0.45189906  0.47025526  1
  O  O74  1  0.14924673  0.69105105  0.47155295  1
  O  O75  1  0.11404556  0.63346678  0.35880121  1
  O  O76  1  0.51808330  0.88300432  0.35847446  1
  O  O77  1  0.36583019  0.48040663  0.36251287  1
  O  O78  1  0.11286815  0.47868644  0.85959917  1
  O  O79  1  0.37144829  0.89004239  0.85985289  1
  O  O80  1  0.52354593  0.63302737  0.86044908  1
  O  O81  1  0.01463641  0.82615821  0.41178206  1
  O  O82  1  0.80510956  0.97813349  0.41227764  1
  O  O83  1  0.18116301  0.19762573  0.40984520  1
  O  O84  1  0.01489804  0.18891389  0.91204380  1
  O  O85  1  0.16905342  0.97697134  0.91207890  1
  O  O86  1  0.79960072  0.82090519  0.91092346  1
  O  O87  1  0.98276027  0.16807767  0.58853322  1
  O  O88  1  0.18820202  0.02107446  0.58765988  1
  O  O89  1  0.83086047  0.81093408  0.58673311  1
  O  O90  1  0.98670657  0.81619549  0.08914993  1
  O  O91  1  0.83625933  0.02998329  0.08783523  1
  O  O92  1  0.18914704  0.16236313  0.08904026  1
  O  O93  1  0.68338399  0.15695190  0.74409489  1
  O  O94  1  0.47639716  0.31830316  0.74319300  1
  O  O95  1  0.84044291  0.52511477  0.74344641  1
  O  O96  1  0.68356904  0.52078323  0.24470479  1
  O  O97  1  0.83501494  0.30790837  0.24464358  1
  O  O98  1  0.46694935  0.15698254  0.24438984  1
  O  O99  1  0.64186226  0.50572898  0.92177670  1
  O  O100  1  0.85507156  0.36018644  0.92151255  1
  O  O101  1  0.50079927  0.14859528  0.92150189  1
  O  O102  1  0.63809599  0.14331796  0.42267184  1
  O  O103  1  0.49773321  0.36329859  0.42221760  1
  O  O104  1  0.84813733  0.50147233  0.42218522  1
  O  O105  1  0.34614713  0.48956415  0.07827699  1
  O  O106  1  0.14190361  0.64877531  0.07779594  1
  O  O107  1  0.50201241  0.85889175  0.07708580  1
  O  O108  1  0.35525832  0.85913194  0.57896417  1
  O  O109  1  0.49925269  0.64353381  0.57633263  1
  O  O110  1  0.14779571  0.49816507  0.57760240  1
  O  O111  1  0.31007198  0.84385286  0.25554252  1
  O  O112  1  0.52289190  0.68729761  0.25685984  1
  O  O113  1  0.16411238  0.47670287  0.25539009  1
  O  O114  1  0.31300956  0.48088219  0.75719413  1
  O  O115  1  0.16748592  0.69072269  0.75561793  1
  O  O116  1  0.52106138  0.82913317  0.75695750  1
