# generated using pymatgen
data_Tb2MgV2O8
_symmetry_space_group_name_H-M   'P 1'
_cell_length_a   6.10415270
_cell_length_b   6.10415339
_cell_length_c   6.24702455
_cell_angle_alpha   105.99154206
_cell_angle_beta   105.99154780
_cell_angle_gamma   115.70602638
_symmetry_Int_Tables_number   1
_chemical_formula_structural   Tb2MgV2O8
_chemical_formula_sum   'Tb2 Mg1 V2 O8'
_cell_volume   179.43110289
_cell_formula_units_Z   1
loop_
 _symmetry_equiv_pos_site_id
 _symmetry_equiv_pos_as_xyz
  1  'x, y, z'
loop_
 _atom_site_type_symbol
 _atom_site_label
 _atom_site_symmetry_multiplicity
 _atom_site_fract_x
 _atom_site_fract_y
 _atom_site_fract_z
 _atom_site_occupancy
  Tb  Tb0  1  0.15318500  0.84681500  0.25000000  1
  Tb  Tb1  1  0.87219200  0.12780800  0.75000000  1
  Mg  Mg2  1  0.85908600  0.14091400  0.25000000  1
  V  V3  1  0.37821400  0.62178600  0.75000000  1
  V  V4  1  0.59529700  0.40470300  0.25000000  1
  O  O5  1  0.81049700  0.76452600  0.42884900  1
  O  O6  1  0.39328400  0.80620600  0.56712300  1
  O  O7  1  0.74505200  0.81651600  0.96050100  1
  O  O8  1  0.80989900  0.36487600  0.08856600  1
  O  O9  1  0.63512400  0.19010100  0.41143400  1
  O  O10  1  0.18348400  0.25494800  0.53949900  1
  O  O11  1  0.19379500  0.60671600  0.93287700  1
  O  O12  1  0.23547400  0.18950300  0.07115100  1
