# generated using pymatgen
data_MgV2(PO5)2
_symmetry_space_group_name_H-M   'P 1'
_cell_length_a   5.27868600
_cell_length_b   6.34887300
_cell_length_c   6.34887300
_cell_angle_alpha   90.00000000
_cell_angle_beta   90.00000000
_cell_angle_gamma   90.00000000
_symmetry_Int_Tables_number   1
_chemical_formula_structural   MgV2(PO5)2
_chemical_formula_sum   'Mg1 V2 P2 O10'
_cell_volume   212.77426963
_cell_formula_units_Z   1
loop_
 _symmetry_equiv_pos_site_id
 _symmetry_equiv_pos_as_xyz
  1  'x, y, z'
loop_
 _atom_site_type_symbol
 _atom_site_label
 _atom_site_symmetry_multiplicity
 _atom_site_fract_x
 _atom_site_fract_y
 _atom_site_fract_z
 _atom_site_occupancy
  Mg  Mg0  1  0.00000000  0.75000000  0.25000000  1
  V  V1  1  0.42268900  0.75000000  0.75000000  1
  V  V2  1  0.57731100  0.25000000  0.25000000  1
  P  P3  1  0.50000000  0.25000000  0.75000000  1
  P  P4  1  0.50000000  0.75000000  0.25000000  1
  O  O5  1  0.26910600  0.25000000  0.25000000  1
  O  O6  1  0.67132500  0.26321300  0.94941500  1
  O  O7  1  0.73089400  0.75000000  0.75000000  1
  O  O8  1  0.68844100  0.56305100  0.26150700  1
  O  O9  1  0.31155900  0.73849300  0.06305100  1
  O  O10  1  0.32867500  0.05058500  0.76321300  1
  O  O11  1  0.32867500  0.44941500  0.73678700  1
  O  O12  1  0.68844100  0.93694900  0.23849300  1
  O  O13  1  0.67132500  0.23678700  0.55058500  1
  O  O14  1  0.31155900  0.76150700  0.43694900  1
