# generated using pymatgen
data_Na6Ta6In2Si9(SO16)3
_symmetry_space_group_name_H-M   'P 1'
_cell_length_a   17.88662310
_cell_length_b   8.96669165
_cell_length_c   23.00169820
_cell_angle_alpha   90.09639553
_cell_angle_beta   89.93845681
_cell_angle_gamma   120.03171489
_symmetry_Int_Tables_number   1
_chemical_formula_structural   Na6Ta6In2Si9(SO16)3
_chemical_formula_sum   'Na18 Ta18 In6 Si27 S9 O144'
_cell_volume   3193.82865254
_cell_formula_units_Z   3
loop_
 _symmetry_equiv_pos_site_id
 _symmetry_equiv_pos_as_xyz
  1  'x, y, z'
loop_
 _atom_site_type_symbol
 _atom_site_label
 _atom_site_symmetry_multiplicity
 _atom_site_fract_x
 _atom_site_fract_y
 _atom_site_fract_z
 _atom_site_occupancy
  Na  Na0  1  0.32116900  0.01312712  0.25193314  1
  Na  Na1  1  0.68517901  0.37066860  0.24694141  1
  Na  Na2  1  0.49226114  0.62132140  0.25004120  1
  Na  Na3  1  0.82069144  0.62949909  0.75060581  1
  Na  Na4  1  0.99243286  0.36252734  0.74832889  1
  Na  Na5  1  0.18642995  0.00373226  0.74454508  1
  Na  Na6  1  0.00262440  0.00738070  0.49939959  1
  Na  Na7  1  0.50424826  0.99919284  0.49727750  1
  Na  Na8  1  0.00442714  0.01227812  0.99517709  1
  Na  Na9  1  0.50275734  0.99802214  0.99820994  1
  Na  Na10  1  0.33821763  0.33216555  0.83263423  1
  Na  Na11  1  0.83107925  0.32428303  0.82725471  1
  Na  Na12  1  0.33072978  0.34015010  0.33174936  1
  Na  Na13  1  0.83760647  0.34313331  0.33626646  1
  Na  Na14  1  0.16715413  0.65805293  0.16686930  1
  Na  Na15  1  0.67062815  0.66884093  0.16451389  1
  Na  Na16  1  0.17204712  0.67275219  0.66290242  1
  Na  Na17  1  0.66104424  0.66849532  0.66245892  1
  Ta  Ta18  1  0.00186096  0.98692521  0.35885659  1
  Ta  Ta19  1  0.50195720  0.01676235  0.85691096  1
  Ta  Ta20  1  0.99753689  0.99176021  0.64350393  1
  Ta  Ta21  1  0.49875740  0.01439025  0.63962430  1
  Ta  Ta22  1  0.99985085  0.99708226  0.14487001  1
  Ta  Ta23  1  0.49773816  0.00262458  0.14426525  1
  Ta  Ta24  1  0.33071506  0.34528764  0.97579039  1
  Ta  Ta25  1  0.82773213  0.30994320  0.97783993  1
  Ta  Ta26  1  0.33400286  0.34581948  0.48230082  1
  Ta  Ta27  1  0.83012430  0.31436044  0.47619978  1
  Ta  Ta28  1  0.16766955  0.65711874  0.01427049  1
  Ta  Ta29  1  0.66012891  0.66423809  0.02365853  1
  Ta  Ta30  1  0.16024482  0.65420313  0.52395858  1
  Ta  Ta31  1  0.66146467  0.66958770  0.51683197  1
  Ta  Ta32  1  0.16501843  0.66155160  0.31402646  1
  Ta  Ta33  1  0.66939069  0.65850720  0.31754473  1
  Ta  Ta34  1  0.16936130  0.68041349  0.81581878  1
  Ta  Ta35  1  0.66175441  0.66673037  0.81074473  1
  In  In36  1  0.49936110  0.00024536  0.35644170  1
  In  In37  1  0.99963748  0.99919283  0.85565064  1
  In  In38  1  0.33736697  0.32954814  0.67838587  1
  In  In39  1  0.82935600  0.31756529  0.68576965  1
  In  In40  1  0.32912438  0.34161009  0.18602503  1
  In  In41  1  0.83339942  0.33827849  0.18134734  1
  Si  Si42  1  0.14249443  0.99628615  0.25082577  1
  Si  Si43  1  0.35453154  0.71095649  0.25161837  1
  Si  Si44  1  0.85689079  0.71222118  0.25063535  1
  Si  Si45  1  0.50061636  0.29220563  0.25061148  1
  Si  Si46  1  0.64247233  0.28603315  0.74986709  1
  Si  Si47  1  0.00023610  0.70976255  0.75049225  1
  Si  Si48  1  0.35744866  0.00297650  0.74988487  1
  Si  Si49  1  0.85495728  0.99873867  0.75168431  1
  Si  Si50  1  0.48059524  0.34160557  0.58131943  1
  Si  Si51  1  0.97452851  0.32818201  0.58507386  1
  Si  Si52  1  0.18793501  0.04145967  0.58322430  1
  Si  Si53  1  0.68761531  0.04036792  0.58311259  1
  Si  Si54  1  0.33302486  0.62529407  0.58594612  1
  Si  Si55  1  0.47462660  0.62112524  0.08498815  1
  Si  Si56  1  0.83349638  0.04019894  0.08461762  1
  Si  Si57  1  0.18698525  0.33465392  0.08283133  1
  Si  Si58  1  0.68784573  0.33463150  0.08329949  1
  Si  Si59  1  0.31283411  0.67149054  0.91411624  1
  Si  Si60  1  0.01945472  0.37462998  0.91476017  1
  Si  Si61  1  0.52275542  0.38406164  0.91792455  1
  Si  Si62  1  0.16569362  0.95832314  0.92017502  1
  Si  Si63  1  0.66366360  0.94719272  0.91585181  1
  Si  Si64  1  0.81079675  0.94955444  0.41657427  1
  Si  Si65  1  0.16785034  0.37793613  0.41669929  1
  Si  Si66  1  0.66654344  0.37336760  0.42030075  1
  Si  Si67  1  0.02225128  0.65924624  0.41849994  1
  Si  Si68  1  0.51806826  0.66347157  0.41476577  1
  S  S69  1  0.64571866  0.99861587  0.24912626  1
  S  S70  1  0.00027401  0.28447236  0.25122505  1
  S  S71  1  0.14659776  0.29347341  0.74919913  1
  S  S72  1  0.49899376  0.71629530  0.75135980  1
  S  S73  1  0.83186208  0.62375711  0.58228487  1
  S  S74  1  0.98125386  0.62749895  0.08131638  1
  S  S75  1  0.33150035  0.03946457  0.08263820  1
  S  S76  1  0.80745455  0.66127126  0.91851142  1
  S  S77  1  0.30762643  0.95363810  0.41826697  1
  O  O78  1  0.09286419  0.02265737  0.30613346  1
  O  O79  1  0.60966853  0.03071639  0.30134697  1
  O  O80  1  0.41558140  0.79636549  0.30627355  1
  O  O81  1  0.91720419  0.81579543  0.30634494  1
  O  O82  1  0.48398701  0.17337486  0.30583046  1
  O  O83  1  0.98928740  0.18239271  0.30286977  1
  O  O84  1  0.11003170  0.18949576  0.80181223  1
  O  O85  1  0.59410979  0.16519065  0.80696924  1
  O  O86  1  0.49107507  0.80022486  0.80476595  1
  O  O87  1  0.98388266  0.79273389  0.80689376  1
  O  O88  1  0.41677005  0.01728947  0.80688107  1
  O  O89  1  0.91510440  0.03632222  0.80735932  1
  O  O90  1  0.40305971  0.97107301  0.69328744  1
  O  O91  1  0.90263103  0.96329274  0.69382329  1
  O  O92  1  0.08975549  0.20962482  0.69689438  1
  O  O93  1  0.58098756  0.19119179  0.69375284  1
  O  O94  1  0.01952787  0.84143356  0.69353191  1
  O  O95  1  0.51511343  0.81712863  0.69879813  1
  O  O96  1  0.40294684  0.84173700  0.19325997  1
  O  O97  1  0.90381101  0.83410644  0.19275372  1
  O  O98  1  0.01430097  0.20773500  0.19708046  1
  O  O99  1  0.51943779  0.19726907  0.19302052  1
  O  O100  1  0.08070473  0.97117922  0.19355551  1
  O  O101  1  0.58997380  0.97142512  0.19629883  1
  O  O102  1  0.45126307  0.38375765  0.64187337  1
  O  O103  1  0.94644400  0.37722347  0.64474905  1
  O  O104  1  0.23536709  0.10054669  0.64563138  1
  O  O105  1  0.74329790  0.11040844  0.64057648  1
  O  O106  1  0.30950523  0.50991380  0.64326598  1
  O  O107  1  0.81928864  0.53146598  0.63761734  1
  O  O108  1  0.44590540  0.51489527  0.14419754  1
  O  O109  1  0.94859806  0.52901438  0.13606135  1
  O  O110  1  0.31777622  0.10485444  0.13716442  1
  O  O111  1  0.81559546  0.11814262  0.14205165  1
  O  O112  1  0.24207271  0.37642675  0.14030745  1
  O  O113  1  0.73863255  0.37353286  0.14438220  1
  O  O114  1  0.23416448  0.30437404  0.02547790  1
  O  O115  1  0.74019598  0.31032607  0.02765408  1
  O  O116  1  0.41470775  0.52446589  0.02728933  1
  O  O117  1  0.92586141  0.54506747  0.03096972  1
  O  O118  1  0.34645902  0.14885579  0.03146528  1
  O  O119  1  0.84896650  0.16775951  0.02691248  1
  O  O120  1  0.23620200  0.16828367  0.52717227  1
  O  O121  1  0.73504523  0.16720696  0.52576487  1
  O  O122  1  0.34896903  0.53267085  0.52749267  1
  O  O123  1  0.84768958  0.54400638  0.53168906  1
  O  O124  1  0.41639295  0.30580392  0.52544791  1
  O  O125  1  0.91521730  0.30526674  0.52726700  1
  O  O126  1  0.26660414  0.69547145  0.97237175  1
  O  O127  1  0.76417860  0.68342527  0.96920241  1
  O  O128  1  0.08224857  0.47837208  0.97139621  1
  O  O129  1  0.58475016  0.47383342  0.97316164  1
  O  O130  1  0.15740161  0.83454826  0.97502037  1
  O  O131  1  0.65520794  0.83343019  0.97235579  1
  O  O132  1  0.26372696  0.84389380  0.46859281  1
  O  O133  1  0.76683138  0.83453040  0.47339372  1
  O  O134  1  0.15460115  0.47648352  0.47145249  1
  O  O135  1  0.65830609  0.48130374  0.47359882  1
  O  O136  1  0.08513003  0.69625963  0.47295394  1
  O  O137  1  0.58102322  0.68716875  0.47066898  1
  O  O138  1  0.07028383  0.63900388  0.35989307  1
  O  O139  1  0.56839877  0.63845211  0.35678752  1
  O  O140  1  0.25523157  0.86965509  0.36245384  1
  O  O141  1  0.74934004  0.86179295  0.35891668  1
  O  O142  1  0.18054194  0.50199416  0.35920714  1
  O  O143  1  0.68318644  0.49554318  0.35966836  1
  O  O144  1  0.06769610  0.49789966  0.85742819  1
  O  O145  1  0.57038662  0.50269849  0.86043600  1
  O  O146  1  0.18246122  0.86816886  0.86073369  1
  O  O147  1  0.68126658  0.85921325  0.85892812  1
  O  O148  1  0.24858805  0.63518662  0.85910217  1
  O  O149  1  0.75640256  0.63631755  0.86356696  1
  O  O150  1  0.01313673  0.83273321  0.40995605  1
  O  O151  1  0.51120882  0.83384374  0.41490016  1
  O  O152  1  0.39250527  0.96992726  0.41423467  1
  O  O153  1  0.90732128  0.97935474  0.40609877  1
  O  O154  1  0.08086470  0.19043134  0.40620747  1
  O  O155  1  0.58223933  0.18950150  0.41482921  1
  O  O156  1  0.01030117  0.18879556  0.91595419  1
  O  O157  1  0.51303531  0.19236885  0.90990907  1
  O  O158  1  0.08130324  0.97398271  0.91596627  1
  O  O159  1  0.58061413  0.97205590  0.90755170  1
  O  O160  1  0.40805945  0.83656223  0.90770458  1
  O  O161  1  0.89361994  0.81460708  0.91523180  1
  O  O162  1  0.48824028  0.16456574  0.58693428  1
  O  O163  1  0.98731766  0.15736037  0.59202308  1
  O  O164  1  0.08997770  0.02051159  0.59040183  1
  O  O165  1  0.59090323  0.01747640  0.59143950  1
  O  O166  1  0.42016093  0.81460349  0.59212688  1
  O  O167  1  0.91356383  0.80166037  0.58784286  1
  O  O168  1  0.48766137  0.81765333  0.09168229  1
  O  O169  1  0.98844008  0.80155687  0.08814700  1
  O  O170  1  0.41201590  0.02221995  0.08759631  1
  O  O171  1  0.92041540  0.02224617  0.09168706  1
  O  O172  1  0.09001481  0.16120762  0.09148035  1
  O  O173  1  0.59105080  0.15971500  0.08985839  1
  O  O174  1  0.33895558  0.16373077  0.75038324  1
  O  O175  1  0.84579380  0.16677387  0.74803554  1
  O  O176  1  0.23296286  0.31453307  0.74327987  1
  O  O177  1  0.74118750  0.32991488  0.74779700  1
  O  O178  1  0.42366048  0.54061671  0.74916975  1
  O  O179  1  0.91667477  0.52167855  0.74364016  1
  O  O180  1  0.34575740  0.52518739  0.24766535  1
  O  O181  1  0.84199911  0.51628343  0.24805845  1
  O  O182  1  0.41639626  0.31075869  0.24308031  1
  O  O183  1  0.92479180  0.30870252  0.24514154  1
  O  O184  1  0.24015732  0.15147920  0.24655781  1
  O  O185  1  0.73267313  0.15227972  0.24330040  1
  O  O186  1  0.31955635  0.49674359  0.92284236  1
  O  O187  1  0.81598157  0.50408753  0.92470061  1
  O  O188  1  0.42645292  0.35698057  0.92694896  1
  O  O189  1  0.92775237  0.37358277  0.92719415  1
  O  O190  1  0.25587095  0.14288339  0.92744200  1
  O  O191  1  0.75042645  0.14257079  0.92426575  1
  O  O192  1  0.31313848  0.12314635  0.42134970  1
  O  O193  1  0.81982832  0.14146275  0.42266723  1
  O  O194  1  0.25203119  0.35467684  0.42388780  1
  O  O195  1  0.75667094  0.36789309  0.42628219  1
  O  O196  1  0.42598394  0.48316558  0.42340174  1
  O  O197  1  0.92625967  0.49480263  0.42602751  1
  O  O198  1  0.17315212  0.50353633  0.07245926  1
  O  O199  1  0.67628555  0.50095520  0.07060247  1
  O  O200  1  0.06995099  0.65337731  0.07406447  1
  O  O201  1  0.57274145  0.65177220  0.07292567  1
  O  O202  1  0.25561143  0.86207863  0.07467312  1
  O  O203  1  0.75184440  0.85046332  0.07038961  1
  O  O204  1  0.17572469  0.85076622  0.57025656  1
  O  O205  1  0.67735989  0.84997063  0.57176694  1
  O  O206  1  0.25175392  0.65422984  0.56988833  1
  O  O207  1  0.75774179  0.65093049  0.57499645  1
  O  O208  1  0.07264985  0.49328976  0.57324086  1
  O  O209  1  0.57928924  0.50161069  0.57191069  1
  O  O210  1  0.15038497  0.82009003  0.25981244  1
  O  O211  1  0.65024813  0.83710493  0.25310506  1
  O  O212  1  0.25957202  0.70466692  0.25690015  1
  O  O213  1  0.75953414  0.69135931  0.25757312  1
  O  O214  1  0.08066612  0.46116672  0.25610242  1
  O  O215  1  0.58958363  0.48723836  0.25500587  1
  O  O216  1  0.14993944  0.46406140  0.75413927  1
  O  O217  1  0.65076104  0.47858335  0.76122735  1
  O  O218  1  0.08929314  0.69206597  0.75579397  1
  O  O219  1  0.58008945  0.69746417  0.75838918  1
  O  O220  1  0.25989531  0.82663482  0.75910401  1
  O  O221  1  0.75999038  0.81520710  0.75810677  1
