# generated using pymatgen
data_MgAl4Cr2O10
_symmetry_space_group_name_H-M   'P 1'
_cell_length_a   3.67956471
_cell_length_b   5.15546252
_cell_length_c   10.29991686
_cell_angle_alpha   83.34222802
_cell_angle_beta   90.00106963
_cell_angle_gamma   110.90521396
_symmetry_Int_Tables_number   1
_chemical_formula_structural   MgAl4Cr2O10
_chemical_formula_sum   'Mg1 Al4 Cr2 O10'
_cell_volume   181.11495276
_cell_formula_units_Z   1
loop_
 _symmetry_equiv_pos_site_id
 _symmetry_equiv_pos_as_xyz
  1  'x, y, z'
loop_
 _atom_site_type_symbol
 _atom_site_label
 _atom_site_symmetry_multiplicity
 _atom_site_fract_x
 _atom_site_fract_y
 _atom_site_fract_z
 _atom_site_occupancy
  Mg  Mg0  1  0.50000000  0.00000000  0.50000000  1
  Al  Al1  1  0.17957782  0.35906354  0.60223386  1
  Al  Al2  1  0.14291396  0.28564479  0.95157410  1
  Al  Al3  1  0.85708604  0.71435521  0.04842590  1
  Al  Al4  1  0.82042218  0.64093646  0.39776614  1
  Cr  Cr5  1  0.15600667  0.31205834  0.23267353  1
  Cr  Cr6  1  0.84399333  0.68794166  0.76732647  1
  O  O7  1  0.02726883  0.05416766  0.10994411  1
  O  O8  1  0.30509098  0.61025429  0.43747931  1
  O  O9  1  0.00811677  0.01638041  0.37988419  1
  O  O10  1  0.29907181  0.59823037  0.06715218  1
  O  O11  1  0.27230486  0.54447514  0.74602429  1
  O  O12  1  0.72769514  0.45552486  0.25397571  1
  O  O13  1  0.70092819  0.40176963  0.93284782  1
  O  O14  1  0.69490902  0.38974571  0.56252069  1
  O  O15  1  0.99188323  0.98361959  0.62011581  1
  O  O16  1  0.97273117  0.94583234  0.89005589  1
