# generated using pymatgen
data_Na2TiSi2GeSO12
_symmetry_space_group_name_H-M   'P 1'
_cell_length_a   8.69361273
_cell_length_b   8.70489248
_cell_length_c   22.02869709
_cell_angle_alpha   89.35891261
_cell_angle_beta   90.73648263
_cell_angle_gamma   119.86789844
_symmetry_Int_Tables_number   1
_chemical_formula_structural   Na2TiSi2GeSO12
_chemical_formula_sum   'Na12 Ti6 Si12 Ge6 S6 O72'
_cell_volume   1445.49706741
_cell_formula_units_Z   6
loop_
 _symmetry_equiv_pos_site_id
 _symmetry_equiv_pos_as_xyz
  1  'x, y, z'
loop_
 _atom_site_type_symbol
 _atom_site_label
 _atom_site_symmetry_multiplicity
 _atom_site_fract_x
 _atom_site_fract_y
 _atom_site_fract_z
 _atom_site_occupancy
  Na  Na0  1  0.99861614  0.63568450  0.25383082  1
  Na  Na1  1  0.37116402  0.00585730  0.75523159  1
  Na  Na2  1  0.66484711  0.96927376  0.58794897  1
  Na  Na3  1  0.03726297  0.33453193  0.08768029  1
  Na  Na4  1  0.33151091  0.29845398  0.92242081  1
  Na  Na5  1  0.70608516  0.67121892  0.42079683  1
  Na  Na6  1  0.02009628  0.99725519  0.50057957  1
  Na  Na7  1  0.00169935  0.97997559  -0.00032065  1
  Na  Na8  1  0.68850606  0.33254318  0.83385799  1
  Na  Na9  1  0.66748466  0.31295719  0.33274357  1
  Na  Na10  1  0.35130051  0.66514602  0.16563867  1
  Na  Na11  1  0.33194190  0.64673669  0.66793445  1
  Ti  Ti12  1  0.97989555  0.99200388  0.35415864  1
  Ti  Ti13  1  0.99668400  0.00271145  0.64665897  1
  Ti  Ti14  1  0.00077644  0.99916620  0.14301660  1
  Ti  Ti15  1  0.64586100  0.32497932  0.68876459  1
  Ti  Ti16  1  0.66569756  0.33464464  0.47818710  1
  Ti  Ti17  1  0.33073554  0.66696429  0.31081992  1
  Si  Si18  1  0.70494202  0.71038988  0.24855592  1
  Si  Si19  1  0.99113357  0.28478119  0.24544852  1
  Si  Si20  1  0.28292384  0.29860645  0.75296787  1
  Si  Si21  1  0.71253567  0.99573659  0.75292997  1
  Si  Si22  1  0.37001550  0.04294060  0.58320712  1
  Si  Si23  1  0.65917160  0.61984598  0.58044721  1
  Si  Si24  1  0.95034194  0.62099024  0.08049725  1
  Si  Si25  1  0.39029792  0.34039152  0.07983560  1
  Si  Si26  1  0.03865563  0.38170686  0.91621994  1
  Si  Si27  1  0.33199180  0.94890269  0.91602368  1
  Si  Si28  1  0.61635864  0.95863353  0.41734097  1
  Si  Si29  1  0.05311130  0.66938643  0.41719400  1
  Ge  Ge30  1  0.01570019  0.02404870  0.85574428  1
  Ge  Ge31  1  0.68095059  0.35980252  0.18607502  1
  Ge  Ge32  1  0.66610210  0.32958866  0.97813406  1
  Ge  Ge33  1  0.30880811  0.65146865  0.02027101  1
  Ge  Ge34  1  0.34755480  0.69089937  0.52164551  1
  Ge  Ge35  1  0.33315233  0.66852367  0.81418005  1
  S  S36  1  0.29463427  0.01051368  0.24937535  1
  S  S37  1  0.99634146  0.71040078  0.75184543  1
  S  S38  1  0.96056052  0.34300406  0.58398407  1
  S  S39  1  0.65706617  0.04098880  0.08230640  1
  S  S40  1  0.62542315  0.67213663  0.91678784  1
  S  S41  1  0.32605304  0.37720238  0.41755287  1
  O  O42  1  0.21168535  0.02810902  0.30442167  1
  O  O43  1  0.82726117  0.79110860  0.31060483  1
  O  O44  1  0.97144939  0.15960319  0.30430781  1
  O  O45  1  0.21479303  0.17064879  0.81364276  1
  O  O46  1  0.97380642  0.78974578  0.80770042  1
  O  O47  1  0.84129597  0.02045236  0.81089849  1
  O  O48  1  0.79576767  0.96797144  0.69019937  1
  O  O49  1  0.15806579  0.19074533  0.69506341  1
  O  O50  1  0.02267516  0.82098512  0.69685586  1
  O  O51  1  0.81747526  0.83670064  0.19197411  1
  O  O52  1  0.02332392  0.20014439  0.18471205  1
  O  O53  1  0.18505522  0.98220196  0.19400644  1
  O  O54  1  0.87699797  0.36045800  0.63871914  1
  O  O55  1  0.49349471  0.12517544  0.64488809  1
  O  O56  1  0.64052388  0.49352976  0.63869023  1
  O  O57  1  0.87999604  0.50119281  0.14347254  1
  O  O58  1  0.63528165  0.12356118  0.13726600  1
  O  O59  1  0.51267225  0.36691149  0.14029045  1
  O  O60  1  0.46807195  0.30372328  0.01769870  1
  O  O61  1  0.82415012  0.51844958  0.02305556  1
  O  O62  1  0.69312681  0.15239029  0.02627029  1
  O  O63  1  0.48043216  0.16908601  0.52625842  1
  O  O64  1  0.69106734  0.53613531  0.51932100  1
  O  O65  1  0.85166668  0.31527969  0.52836806  1
  O  O66  1  0.54303669  0.69485933  0.97181354  1
  O  O67  1  0.16394481  0.45233658  0.97803480  1
  O  O68  1  0.30435318  0.82329952  0.97516363  1
  O  O69  1  0.54672674  0.83622767  0.47932027  1
  O  O70  1  0.30517079  0.45701141  0.47317139  1
  O  O71  1  0.17603364  0.69030114  0.47668281  1
  O  O72  1  0.13380889  0.64031364  0.35434598  1
  O  O73  1  0.49422568  0.84979232  0.35946016  1
  O  O74  1  0.35266561  0.48536047  0.36196988  1
  O  O75  1  0.14003926  0.51087412  0.85889674  1
  O  O76  1  0.36521731  0.86907492  0.85369044  1
  O  O77  1  0.51267906  0.63939179  0.86112973  1
  O  O78  1  0.03279674  0.84664472  0.41144303  1
  O  O79  1  0.81328054  0.97556798  0.41061866  1
  O  O80  1  0.17281343  0.19860325  0.41149327  1
  O  O81  1  0.02727760  0.18554557  0.91158090  1
  O  O82  1  0.14965427  0.96864871  0.91085059  1
  O  O83  1  0.80392485  0.82660825  0.91172774  1
  O  O84  1  0.97192227  0.17638581  0.58675798  1
  O  O85  1  0.17698756  0.02275989  0.59092057  1
  O  O86  1  0.82722677  0.82063003  0.58923430  1
  O  O87  1  0.97410660  0.81689584  0.08800102  1
  O  O88  1  0.82148631  0.02636302  0.08590907  1
  O  O89  1  0.18728708  0.17198724  0.08783590  1
  O  O90  1  0.69282329  0.17365723  0.74601155  1
  O  O91  1  0.47896737  0.31426916  0.74421780  1
  O  O92  1  0.84456502  0.53206417  0.74531492  1
  O  O93  1  0.69594536  0.51706909  0.24408799  1
  O  O94  1  0.80744785  0.29830253  0.24097514  1
  O  O95  1  0.47307244  0.16626666  0.24381478  1
  O  O96  1  0.63664287  0.50551782  0.91907295  1
  O  O97  1  0.84142393  0.35768983  0.92391610  1
  O  O98  1  0.50304389  0.15353148  0.92291293  1
  O  O99  1  0.63746228  0.15228031  0.42272028  1
  O  O100  1  0.49213782  0.36514287  0.41970895  1
  O  O101  1  0.85096145  0.49943542  0.42314759  1
  O  O102  1  0.37195410  0.52281048  0.07501344  1
  O  O103  1  0.14761791  0.63501006  0.07693162  1
  O  O104  1  0.50146101  0.86375709  0.07662275  1
  O  O105  1  0.36128820  0.84978225  0.57888723  1
  O  O106  1  0.47478418  0.63197853  0.57625614  1
  O  O107  1  0.13995245  0.49730925  0.57899530  1
  O  O108  1  0.30744866  0.84503196  0.25216399  1
  O  O109  1  0.51121604  0.68921100  0.25500471  1
  O  O110  1  0.15965721  0.48561484  0.25430436  1
  O  O111  1  0.30123781  0.49171355  0.76011451  1
  O  O112  1  0.16502491  0.70180557  0.75380620  1
  O  O113  1  0.50897103  0.82406230  0.75874197  1
