# generated using pymatgen
data_TcP4
_symmetry_space_group_name_H-M   'P 1'
_cell_length_a   6.25683404
_cell_length_b   9.23803098
_cell_length_c   10.84614875
_cell_angle_alpha   90.00000000
_cell_angle_beta   90.00000000
_cell_angle_gamma   90.00000000
_symmetry_Int_Tables_number   1
_chemical_formula_structural   TcP4
_chemical_formula_sum   'Tc8 P32'
_cell_volume   626.91636424
_cell_formula_units_Z   8
loop_
 _symmetry_equiv_pos_site_id
 _symmetry_equiv_pos_as_xyz
  1  'x, y, z'
loop_
 _atom_site_type_symbol
 _atom_site_label
 _atom_site_symmetry_multiplicity
 _atom_site_fract_x
 _atom_site_fract_y
 _atom_site_fract_z
 _atom_site_occupancy
  Tc  Tc0  1  0.62131760  0.10901345  0.42427044  1
  Tc  Tc1  1  0.12131760  0.39098655  0.57572956  1
  Tc  Tc2  1  0.37868240  0.60901345  0.07572956  1
  Tc  Tc3  1  0.87868240  0.89098655  0.92427044  1
  Tc  Tc4  1  0.37868240  0.89098655  0.57572956  1
  Tc  Tc5  1  0.87868240  0.60901345  0.42427044  1
  Tc  Tc6  1  0.62131760  0.39098655  0.92427044  1
  Tc  Tc7  1  0.12131760  0.10901345  0.07572956  1
  P  P8  1  0.00261384  0.20750337  0.43034807  1
  P  P9  1  0.50261384  0.29249663  0.56965193  1
  P  P10  1  -0.00261384  0.70750337  0.06965193  1
  P  P11  1  0.49738616  0.79249663  0.93034807  1
  P  P12  1  -0.00261384  0.79249663  0.56965193  1
  P  P13  1  0.49738616  0.70750337  0.43034807  1
  P  P14  1  0.00261384  0.29249663  0.93034807  1
  P  P15  1  0.50261384  0.20750337  0.06965193  1
  P  P16  1  0.06013966  0.28237149  0.23581797  1
  P  P17  1  0.56013966  0.21762851  0.76418203  1
  P  P18  1  0.93986034  0.78237149  0.26418203  1
  P  P19  1  0.43986034  0.71762851  0.73581797  1
  P  P20  1  0.93986034  0.71762851  0.76418203  1
  P  P21  1  0.43986034  0.78237149  0.23581797  1
  P  P22  1  0.06013966  0.21762851  0.73581797  1
  P  P23  1  0.56013966  0.28237149  0.26418203  1
  P  P24  1  0.18994045  0.94632071  0.23876815  1
  P  P25  1  0.68994045  0.55367929  0.76123185  1
  P  P26  1  0.81005955  0.44632071  0.26123185  1
  P  P27  1  0.31005955  0.05367929  0.73876815  1
  P  P28  1  0.81005955  0.05367929  0.76123185  1
  P  P29  1  0.31005955  0.44632071  0.23876815  1
  P  P30  1  0.18994045  0.55367929  0.73876815  1
  P  P31  1  0.68994045  0.94632071  0.26123185  1
  P  P32  1  0.75800893  0.04330670  0.08127961  1
  P  P33  1  0.25800893  0.45669330  0.91872039  1
  P  P34  1  0.24199107  0.54330670  0.41872039  1
  P  P35  1  0.74199107  0.95669330  0.58127961  1
  P  P36  1  0.24199107  0.95669330  0.91872039  1
  P  P37  1  0.74199107  0.54330670  0.08127961  1
  P  P38  1  0.75800893  0.45669330  0.58127961  1
  P  P39  1  0.25800893  0.04330670  0.41872039  1
