# generated using pymatgen
data_Na4NbAl3Si3(SO8)3
_symmetry_space_group_name_H-M   'P 1'
_cell_length_a   8.70920830
_cell_length_b   8.71247395
_cell_length_c   22.06214321
_cell_angle_alpha   89.65318998
_cell_angle_beta   90.38544636
_cell_angle_gamma   119.81985515
_symmetry_Int_Tables_number   1
_chemical_formula_structural   Na4NbAl3Si3(SO8)3
_chemical_formula_sum   'Na12 Nb3 Al9 Si9 S9 O72'
_cell_volume   1452.35256925
_cell_formula_units_Z   3
loop_
 _symmetry_equiv_pos_site_id
 _symmetry_equiv_pos_as_xyz
  1  'x, y, z'
loop_
 _atom_site_type_symbol
 _atom_site_label
 _atom_site_symmetry_multiplicity
 _atom_site_fract_x
 _atom_site_fract_y
 _atom_site_fract_z
 _atom_site_occupancy
  Na  Na0  1  0.63830736  0.99988605  0.25151148  1
  Na  Na1  1  0.36227581  0.36259247  0.25120950  1
  Na  Na2  1  0.99965245  0.63660206  0.25187869  1
  Na  Na3  1  0.30385160  0.33627599  0.58591961  1
  Na  Na4  1  0.66909135  0.97100041  0.58602757  1
  Na  Na5  1  0.29602584  0.96411856  0.08469950  1
  Na  Na6  1  0.00106865  0.98826223  0.50116384  1
  Na  Na7  1  0.98860324  0.00113230  0.99279283  1
  Na  Na8  1  0.66743684  0.33408705  0.82606419  1
  Na  Na9  1  0.66798127  0.33384808  0.33033596  1
  Na  Na10  1  0.33445071  0.65506644  0.16931331  1
  Na  Na11  1  0.32026017  0.66790476  0.66136191  1
  Nb  Nb12  1  0.66891340  0.33421897  0.97194831  1
  Nb  Nb13  1  0.66686900  0.33436205  0.48361254  1
  Nb  Nb14  1  0.33268507  0.66684726  0.81400366  1
  Al  Al15  1  0.99991140  0.99922538  0.34055417  1
  Al  Al16  1  0.00005775  0.99897222  0.85914367  1
  Al  Al17  1  0.00114649  0.99646434  0.64121327  1
  Al  Al18  1  0.99522684  0.00158919  0.16134815  1
  Al  Al19  1  0.66616778  0.33187772  0.67665219  1
  Al  Al20  1  0.66776182  0.33562719  0.19319659  1
  Al  Al21  1  0.33479431  0.66207940  0.01022885  1
  Al  Al22  1  0.32888730  0.66738642  0.52499007  1
  Al  Al23  1  0.33303882  0.66684021  0.30793604  1
  Si  Si24  1  0.28796145  0.00060485  0.24909115  1
  Si  Si25  1  0.71177034  0.71177365  0.25089645  1
  Si  Si26  1  0.00036795  0.28791793  0.25064429  1
  Si  Si27  1  0.96348404  0.33985421  0.58876183  1
  Si  Si28  1  0.37131028  0.03544690  0.58770088  1
  Si  Si29  1  0.66775402  0.62747296  0.58738582  1
  Si  Si30  1  0.62761898  0.68363846  0.91888432  1
  Si  Si31  1  0.05568545  0.37222675  0.91855811  1
  Si  Si32  1  0.31775305  0.94397994  0.92033966  1
  S  S33  1  0.28600170  0.27788788  0.74874132  1
  S  S34  1  0.99128398  0.71597094  0.74856186  1
  S  S35  1  0.72161344  0.00798883  0.74876855  1
  S  S36  1  0.95671828  0.62415631  0.08619390  1
  S  S37  1  0.67148118  0.04133972  0.08638728  1
  S  S38  1  0.37444331  0.33732487  0.08544816  1
  S  S39  1  0.62090970  0.94636332  0.41530517  1
  S  S40  1  0.32511519  0.37872803  0.41518988  1
  S  S41  1  0.05558278  0.67432725  0.41524960  1
  O  O42  1  0.20539167  0.05205796  0.30612945  1
  O  O43  1  0.84511217  0.79094420  0.30877657  1
  O  O44  1  0.94605981  0.15470835  0.30865193  1
  O  O45  1  0.19780904  0.17541248  0.80306454  1
  O  O46  1  0.97806944  0.80122690  0.80378083  1
  O  O47  1  0.82463091  0.02101480  0.80303879  1
  O  O48  1  0.80157530  0.98437988  0.69309014  1
  O  O49  1  0.18132218  0.19766303  0.69292037  1
  O  O50  1  0.01585168  0.82474950  0.69401622  1
  O  O51  1  0.79058561  0.84296866  0.19243350  1
  O  O52  1  0.05447952  0.21028179  0.19246982  1
  O  O53  1  0.16279133  0.95210747  0.18773687  1
  O  O54  1  0.87071172  0.37665728  0.64466746  1
  O  O55  1  0.50969762  0.12495320  0.64298766  1
  O  O56  1  0.61302275  0.48657265  0.64211603  1
  O  O57  1  0.86827230  0.51589312  0.14066887  1
  O  O58  1  0.64275057  0.12885288  0.13982830  1
  O  O59  1  0.48243223  0.35696363  0.14052737  1
  O  O60  1  0.46392229  0.31053339  0.03185785  1
  O  O61  1  0.84921066  0.53456350  0.03133509  1
  O  O62  1  0.68965351  0.14949958  0.03119255  1
  O  O63  1  0.46368894  0.17337183  0.52677628  1
  O  O64  1  0.70672169  0.53570369  0.52603240  1
  O  O65  1  0.82712562  0.29054929  0.52742514  1
  O  O66  1  0.53765661  0.70808030  0.97788732  1
  O  O67  1  0.16879028  0.46396987  0.97789791  1
  O  O68  1  0.29703535  0.83606713  0.98235951  1
  O  O69  1  0.53391036  0.84620269  0.47119505  1
  O  O70  1  0.31335872  0.46557462  0.47109539  1
  O  O71  1  0.15986280  0.68683918  0.47003845  1
  O  O72  1  0.13661524  0.65112924  0.35981918  1
  O  O73  1  0.51284683  0.86204603  0.36057336  1
  O  O74  1  0.34767832  0.48693217  0.36061021  1
  O  O75  1  0.13366522  0.50213037  0.85755807  1
  O  O76  1  0.36769617  0.86283531  0.86013238  1
  O  O77  1  0.49724978  0.63067524  0.85778750  1
  O  O78  1  0.03646209  0.83367205  0.41229189  1
  O  O79  1  0.79897976  0.96518863  0.41223230  1
  O  O80  1  0.16704751  0.20041368  0.41179663  1
  O  O81  1  0.02464890  0.18141032  0.90522705  1
  O  O82  1  0.15689142  0.97377854  0.90642798  1
  O  O83  1  0.81828205  0.84260656  0.90546577  1
  O  O84  1  0.97861231  0.16185949  0.59487642  1
  O  O85  1  0.18498901  0.02953391  0.59319346  1
  O  O86  1  0.83534791  0.82222246  0.59368149  1
  O  O87  1  0.97416533  0.80264795  0.08767514  1
  O  O88  1  0.83287494  0.02722745  0.09036657  1
  O  O89  1  0.19897108  0.17287296  0.08797253  1
  O  O90  1  0.69951579  0.16656289  0.74586837  1
  O  O91  1  0.46593929  0.29864282  0.74557904  1
  O  O92  1  0.83348610  0.53668420  0.74468038  1
  O  O93  1  0.68677949  0.51482678  0.24000388  1
  O  O94  1  0.82787093  0.31261353  0.23933382  1
  O  O95  1  0.48495464  0.17204382  0.23871621  1
  O  O96  1  0.64025890  0.49920062  0.92559404  1
  O  O97  1  0.85859233  0.35943942  0.92478160  1
  O  O98  1  0.50088542  0.14104560  0.92613855  1
  O  O99  1  0.63680307  0.12831198  0.41784945  1
  O  O100  1  0.49110332  0.36210991  0.41754315  1
  O  O101  1  0.87399988  0.50960466  0.41867813  1
  O  O102  1  0.35935877  0.49858232  0.07956380  1
  O  O103  1  0.13651925  0.64267389  0.08280601  1
  O  O104  1  0.50645873  0.86513532  0.08183648  1
  O  O105  1  0.36336836  0.85174500  0.57245100  1
  O  O106  1  0.49451777  0.64449283  0.57121438  1
  O  O107  1  0.15613416  0.50295565  0.57334406  1
  O  O108  1  0.31230947  0.82817013  0.25998948  1
  O  O109  1  0.51426062  0.68606834  0.26101756  1
  O  O110  1  0.17132676  0.48538453  0.26091278  1
  O  O111  1  0.30420050  0.46101030  0.75101602  1
  O  O112  1  0.15657304  0.69740076  0.75084198  1
  O  O113  1  0.53833741  0.84387890  0.75133914  1
