# generated using pymatgen
data_Na6Ta3Ga5Si6(SO8)6
_symmetry_space_group_name_H-M   'P 1'
_cell_length_a   17.52698302
_cell_length_b   8.75210662
_cell_length_c   22.37528672
_cell_angle_alpha   89.65777780
_cell_angle_beta   90.19513621
_cell_angle_gamma   119.60284618
_symmetry_Int_Tables_number   1
_chemical_formula_structural   Na6Ta3Ga5Si6(SO8)6
_chemical_formula_sum   'Na18 Ta9 Ga15 Si18 S18 O144'
_cell_volume   2984.25112167
_cell_formula_units_Z   3
loop_
 _symmetry_equiv_pos_site_id
 _symmetry_equiv_pos_as_xyz
  1  'x, y, z'
loop_
 _atom_site_type_symbol
 _atom_site_label
 _atom_site_symmetry_multiplicity
 _atom_site_fract_x
 _atom_site_fract_y
 _atom_site_fract_z
 _atom_site_occupancy
  Na  Na0  1  0.47997134  0.67621561  0.91152857  1
  Na  Na1  1  0.16636981  0.31482023  0.91145002  1
  Na  Na2  1  0.48517862  0.29782359  0.41591978  1
  Na  Na3  1  0.97826470  0.29082691  0.40906908  1
  Na  Na4  1  0.16457633  0.02811209  0.41250602  1
  Na  Na5  1  0.66675600  0.03179687  0.41937814  1
  Na  Na6  1  0.98422177  0.96834737  0.49223984  1
  Na  Na7  1  0.49345759  0.98391653  0.49393155  1
  Na  Na8  1  0.99355945  0.99279642  0.99425222  1
  Na  Na9  1  0.50185415  0.00482682  0.98847856  1
  Na  Na10  1  0.33380574  0.32637017  0.82324056  1
  Na  Na11  1  0.83138127  0.33496037  0.82764320  1
  Na  Na12  1  0.33680763  0.33581871  0.32979710  1
  Na  Na13  1  0.83763743  0.34099968  0.33214699  1
  Na  Na14  1  0.15416200  0.65803119  0.16043659  1
  Na  Na15  1  0.66609495  0.65259145  0.16284105  1
  Na  Na16  1  0.16971441  0.67201514  0.66770878  1
  Na  Na17  1  0.66140057  0.65637468  0.65986765  1
  Ta  Ta18  1  0.00363156  0.99870259  0.64641054  1
  Ta  Ta19  1  0.50117583  0.00521470  0.65019587  1
  Ta  Ta20  1  0.00430497  0.99939773  0.14597656  1
  Ta  Ta21  1  0.50532940  0.01716747  0.14378422  1
  Ta  Ta22  1  0.83350353  0.33692480  0.97693089  1
  Ta  Ta23  1  0.16003633  0.67130918  0.31002402  1
  Ta  Ta24  1  0.66317060  0.65842057  0.31636464  1
  Ta  Ta25  1  0.16591604  0.65298284  0.80828160  1
  Ta  Ta26  1  0.66450276  0.67003168  0.80859320  1
  Ga  Ga27  1  0.99510290  0.99417024  0.35053616  1
  Ga  Ga28  1  0.49436718  0.00807031  0.35892459  1
  Ga  Ga29  1  0.00680544  0.00697126  0.84818949  1
  Ga  Ga30  1  0.49890710  0.98693389  0.85072973  1
  Ga  Ga31  1  0.33576825  0.33412930  0.69427661  1
  Ga  Ga32  1  0.83175725  0.35155380  0.69026904  1
  Ga  Ga33  1  0.33415660  0.32122845  0.19250457  1
  Ga  Ga34  1  0.84756335  0.35911888  0.18006647  1
  Ga  Ga35  1  0.33173627  0.33692023  0.98068312  1
  Ga  Ga36  1  0.33912353  0.33776068  0.47788094  1
  Ga  Ga37  1  0.83434195  0.33483248  0.47297214  1
  Ga  Ga38  1  0.15457792  0.63996921  0.01088988  1
  Ga  Ga39  1  0.66752557  0.66269927  0.01867014  1
  Ga  Ga40  1  0.16998363  0.68148570  0.51345599  1
  Ga  Ga41  1  0.66636771  0.67204006  0.50480133  1
  Si  Si42  1  0.14754776  0.01551275  0.25393831  1
  Si  Si43  1  0.99172683  0.28400276  0.25136599  1
  Si  Si44  1  0.50075580  0.29532280  0.25278567  1
  Si  Si45  1  0.14735535  0.28581016  0.75071412  1
  Si  Si46  1  0.64597901  0.27972008  0.75451203  1
  Si  Si47  1  0.99541043  0.70587942  0.75541799  1
  Si  Si48  1  0.49645972  0.70818066  0.75153000  1
  Si  Si49  1  0.35879620  0.00479787  0.75464009  1
  Si  Si50  1  0.98709644  0.62814276  0.08084376  1
  Si  Si51  1  0.69592344  0.35121618  0.08496167  1
  Si  Si52  1  0.31118859  0.67451834  0.92348796  1
  Si  Si53  1  0.01849510  0.36045847  0.91454375  1
  Si  Si54  1  0.66512722  0.95154694  0.92078959  1
  Si  Si55  1  0.31040307  0.95375368  0.42078347  1
  Si  Si56  1  0.81551297  0.95324258  0.41840748  1
  Si  Si57  1  0.66764717  0.37505729  0.42110310  1
  Si  Si58  1  0.01992464  0.67230105  0.42045727  1
  Si  Si59  1  0.51701826  0.67013236  0.41845087  1
  S  S60  1  0.64627586  0.00396921  0.25012949  1
  S  S61  1  0.35769327  0.71101888  0.24929182  1
  S  S62  1  0.85418083  0.70822077  0.24976176  1
  S  S63  1  0.85650707  0.00435047  0.74886438  1
  S  S64  1  0.47938430  0.33788411  0.58277584  1
  S  S65  1  0.97840242  0.33779133  0.58297937  1
  S  S66  1  0.19036951  0.04369589  0.58261154  1
  S  S67  1  0.69174300  0.04546839  0.58354562  1
  S  S68  1  0.33006428  0.61671184  0.58170503  1
  S  S69  1  0.83027953  0.62171820  0.58234136  1
  S  S70  1  0.47537316  0.61675093  0.08543491  1
  S  S71  1  0.33222637  0.04879810  0.08309968  1
  S  S72  1  0.83082613  0.04098110  0.08419156  1
  S  S73  1  0.19315510  0.33624762  0.08556189  1
  S  S74  1  0.81291758  0.67301576  0.91695746  1
  S  S75  1  0.52218698  0.37533656  0.91965284  1
  S  S76  1  0.16850175  0.95803248  0.91924608  1
  S  S77  1  0.16991733  0.38508618  0.42004727  1
  O  O78  1  0.10188533  0.03137070  0.31376148  1
  O  O79  1  0.60403682  0.01863296  0.30416728  1
  O  O80  1  0.41028980  0.78816489  0.30304063  1
  O  O81  1  0.90561194  0.78607076  0.30403076  1
  O  O82  1  0.48707356  0.17867793  0.31152312  1
  O  O83  1  0.98208093  0.17629130  0.31263772  1
  O  O84  1  0.10868939  0.18080516  0.81239645  1
  O  O85  1  0.60126861  0.16552136  0.81237384  1
  O  O86  1  0.48341688  0.77716558  0.81447505  1
  O  O87  1  0.97514578  0.79650008  0.81105878  1
  O  O88  1  0.41882663  0.03759585  0.81194675  1
  O  O89  1  0.90675812  0.02968121  0.80344333  1
  O  O90  1  0.40306891  0.96767457  0.69305064  1
  O  O91  1  0.89753334  0.97281951  0.69472587  1
  O  O92  1  0.07993668  0.18696776  0.69287636  1
  O  O93  1  0.58337308  0.20191448  0.69278069  1
  O  O94  1  0.00688202  0.82910982  0.69372923  1
  O  O95  1  0.51795253  0.83835842  0.69260270  1
  O  O96  1  0.39972700  0.82254166  0.19482724  1
  O  O97  1  0.89863972  0.81562675  0.19469752  1
  O  O98  1  0.00483636  0.18184694  0.19266485  1
  O  O99  1  0.51121882  0.19059516  0.19349498  1
  O  O100  1  0.08332973  0.97291224  0.19419296  1
  O  O101  1  0.58703396  0.97599145  0.19555874  1
  O  O102  1  0.43216252  0.35037093  0.63460156  1
  O  O103  1  0.93508352  0.35671283  0.63617319  1
  O  O104  1  0.24179250  0.13405945  0.63484180  1
  O  O105  1  0.74544160  0.13639625  0.63639701  1
  O  O106  1  0.32232120  0.51392575  0.63552177  1
  O  O107  1  0.82278305  0.52164112  0.63772614  1
  O  O108  1  0.42930855  0.50613667  0.13698113  1
  O  O109  1  0.94885325  0.51786895  0.14175661  1
  O  O110  1  0.32482609  0.13613117  0.13701107  1
  O  O111  1  0.81858796  0.12012141  0.13810122  1
  O  O112  1  0.24691467  0.34806041  0.13724989  1
  O  O113  1  0.75141954  0.36684641  0.14415415  1
  O  O114  1  0.22718691  0.30158055  0.02888156  1
  O  O115  1  0.73696749  0.31165980  0.02524921  1
  O  O116  1  0.42605511  0.54465546  0.02816459  1
  O  O117  1  0.92029605  0.52616687  0.02442274  1
  O  O118  1  0.35050809  0.16107010  0.02828556  1
  O  O119  1  0.84536913  0.15159082  0.02972344  1
  O  O120  1  0.22521250  0.14262295  0.52603382  1
  O  O121  1  0.73016932  0.14685372  0.52728513  1
  O  O122  1  0.34166252  0.53453578  0.52648176  1
  O  O123  1  0.84783499  0.54650642  0.52903950  1
  O  O124  1  0.42911910  0.31127339  0.52559243  1
  O  O125  1  0.92805271  0.31265011  0.52692320  1
  O  O126  1  0.26335051  0.69592494  0.98197776  1
  O  O127  1  0.77154226  0.68945469  0.97166896  1
  O  O128  1  0.08111106  0.43025360  0.97329405  1
  O  O129  1  0.57408751  0.45639047  0.97406699  1
  O  O130  1  0.15688513  0.85569362  0.97388591  1
  O  O131  1  0.64791559  0.82005634  0.97729340  1
  O  O132  1  0.27335008  0.83750382  0.48063494  1
  O  O133  1  0.77461419  0.83440795  0.47773511  1
  O  O134  1  0.15413982  0.46489471  0.47339002  1
  O  O135  1  0.63914036  0.45440047  0.47651551  1
  O  O136  1  0.08451378  0.71376232  0.47772508  1
  O  O137  1  0.58141608  0.72155363  0.47645279  1
  O  O138  1  0.06657071  0.63263813  0.36044722  1
  O  O139  1  0.56517709  0.62413510  0.36123560  1
  O  O140  1  0.24542185  0.85488946  0.36234084  1
  O  O141  1  0.74870446  0.86154061  0.35976757  1
  O  O142  1  0.18219057  0.49004555  0.36489059  1
  O  O143  1  0.68357562  0.50177982  0.36064949  1
  O  O144  1  0.06600565  0.49286627  0.85784335  1
  O  O145  1  0.56567631  0.49160215  0.86525061  1
  O  O146  1  0.18073450  0.87862872  0.86498400  1
  O  O147  1  0.67967048  0.85180447  0.86168927  1
  O  O148  1  0.24486550  0.62940304  0.86454010  1
  O  O149  1  0.75890787  0.64788064  0.86263490  1
  O  O150  1  0.01540896  0.84969392  0.40991942  1
  O  O151  1  0.51371906  0.84552607  0.40356137  1
  O  O152  1  0.40937424  0.99111093  0.41420259  1
  O  O153  1  0.91424169  0.98683363  0.41047967  1
  O  O154  1  0.09118667  0.20833847  0.41591758  1
  O  O155  1  0.58309664  0.18263371  0.41116753  1
  O  O156  1  0.00691077  0.16442477  0.90618294  1
  O  O157  1  0.51211641  0.20281893  0.91370550  1
  O  O158  1  0.09042173  0.98355868  0.91510008  1
  O  O159  1  0.57940411  0.97194607  0.91400942  1
  O  O160  1  0.40858594  0.83903697  0.91595694  1
  O  O161  1  0.90018440  0.82565821  0.91243917  1
  O  O162  1  0.48817497  0.17357001  0.58655305  1
  O  O163  1  0.98494059  0.16988854  0.58869111  1
  O  O164  1  0.09727781  0.02468180  0.58740111  1
  O  O165  1  0.60136887  0.03019042  0.58774389  1
  O  O166  1  0.41067274  0.79808346  0.58484875  1
  O  O167  1  0.91102266  0.80570808  0.58863146  1
  O  O168  1  0.48247797  0.79588685  0.09173058  1
  O  O169  1  0.98930359  0.82179231  0.08658284  1
  O  O170  1  0.41502497  0.02994485  0.08911596  1
  O  O171  1  0.91213078  0.02343427  0.08783663  1
  O  O172  1  0.10202490  0.17394672  0.09080828  1
  O  O173  1  0.59529104  0.16691297  0.09158191  1
  O  O174  1  0.34507993  0.16907937  0.74107033  1
  O  O175  1  0.84308247  0.15274908  0.73875156  1
  O  O176  1  0.24155181  0.30974044  0.73930854  1
  O  O177  1  0.74046688  0.29626619  0.74248220  1
  O  O178  1  0.41700322  0.51697039  0.74019352  1
  O  O179  1  0.91562588  0.50984521  0.74344358  1
  O  O180  1  0.34672778  0.53526232  0.24074219  1
  O  O181  1  0.84083016  0.53049201  0.24465010  1
  O  O182  1  0.41798708  0.32495686  0.24360089  1
  O  O183  1  0.90596308  0.30781677  0.24293329  1
  O  O184  1  0.24151472  0.18702666  0.24422536  1
  O  O185  1  0.73153737  0.15784808  0.24153984  1
  O  O186  1  0.31964941  0.48914009  0.92723705  1
  O  O187  1  0.81863547  0.50594602  0.91944937  1
  O  O188  1  0.43511112  0.37116405  0.92301701  1
  O  O189  1  0.92387445  0.35203672  0.92289463  1
  O  O190  1  0.24870723  0.14010007  0.92414584  1
  O  O191  1  0.75474388  0.14279020  0.92545833  1
  O  O192  1  0.31240157  0.14508223  0.42475437  1
  O  O193  1  0.82066054  0.14494070  0.42281214  1
  O  O194  1  0.24850033  0.36412711  0.42540585  1
  O  O195  1  0.75373203  0.35445007  0.42398716  1
  O  O196  1  0.42396066  0.48796961  0.42266919  1
  O  O197  1  0.92868403  0.48976378  0.42404266  1
  O  O198  1  0.18289316  0.49129161  0.08285076  1
  O  O199  1  0.67729744  0.51467062  0.07544048  1
  O  O200  1  0.08548856  0.65855905  0.07112314  1
  O  O201  1  0.56420584  0.63984478  0.08271362  1
  O  O202  1  0.25684115  0.87584487  0.07891637  1
  O  O203  1  0.75443023  0.86423596  0.07755416  1
  O  O204  1  0.17683930  0.86263491  0.58117446  1
  O  O205  1  0.68052935  0.86665076  0.58142470  1
  O  O206  1  0.24918175  0.63321914  0.57804364  1
  O  O207  1  0.75173184  0.64072862  0.57913153  1
  O  O208  1  0.06919690  0.48885952  0.57883001  1
  O  O209  1  0.56719101  0.49410475  0.58019796  1
  O  O210  1  0.15600708  0.83379148  0.25527964  1
  O  O211  1  0.65201990  0.83772887  0.25083082  1
  O  O212  1  0.26871938  0.69605726  0.25417737  1
  O  O213  1  0.76820683  0.70594018  0.25175600  1
  O  O214  1  0.08628287  0.47548576  0.25644256  1
  O  O215  1  0.59239203  0.48656956  0.25330700  1
  O  O216  1  0.14959217  0.47609624  0.75128637  1
  O  O217  1  0.65978750  0.48190906  0.76128582  1
  O  O218  1  0.08918031  0.70997523  0.75917497  1
  O  O219  1  0.58941637  0.69508758  0.75471973  1
  O  O220  1  0.26224824  0.82522416  0.75964174  1
  O  O221  1  0.76862701  0.83586988  0.75336839  1
