# generated using pymatgen
data_Na2Nb2In2Si3(SO8)3
_symmetry_space_group_name_H-M   'P 1'
_cell_length_a   8.92650801
_cell_length_b   8.94637656
_cell_length_c   23.09041691
_cell_angle_alpha   90.33174393
_cell_angle_beta   90.43351987
_cell_angle_gamma   119.63649498
_symmetry_Int_Tables_number   1
_chemical_formula_structural   Na2Nb2In2Si3(SO8)3
_chemical_formula_sum   'Na6 Nb6 In6 Si9 S9 O72'
_cell_volume   1602.62454834
_cell_formula_units_Z   3
loop_
 _symmetry_equiv_pos_site_id
 _symmetry_equiv_pos_as_xyz
  1  'x, y, z'
loop_
 _atom_site_type_symbol
 _atom_site_label
 _atom_site_symmetry_multiplicity
 _atom_site_fract_x
 _atom_site_fract_y
 _atom_site_fract_z
 _atom_site_occupancy
  Na  Na0  1  0.98144236  0.98062106  0.49110655  1
  Na  Na1  1  0.01377570  0.99001286  0.99774124  1
  Na  Na2  1  0.64508079  0.31334616  0.82374858  1
  Na  Na3  1  0.66955939  0.31370164  0.32638102  1
  Na  Na4  1  0.30883536  0.65837033  0.16877429  1
  Na  Na5  1  0.34834511  0.66136683  0.65871490  1
  Nb  Nb6  1  0.99086739  0.00518624  0.64539870  1
  Nb  Nb7  1  0.00505181  0.99375993  0.15104239  1
  Nb  Nb8  1  0.66624782  0.33486953  0.97882530  1
  Nb  Nb9  1  0.67539463  0.34594238  0.47401250  1
  Nb  Nb10  1  0.31932622  0.67680019  0.31276084  1
  Nb  Nb11  1  0.34689104  0.68429430  0.80696306  1
  In  In12  1  0.00209554  0.00155075  0.35336104  1
  In  In13  1  0.01095845  0.00939099  0.85014627  1
  In  In14  1  0.65416955  0.33151406  0.68564153  1
  In  In15  1  0.67978529  0.33254800  0.18798329  1
  In  In16  1  0.31958435  0.67195999  0.01940999  1
  In  In17  1  0.34964853  0.67985061  0.51657129  1
  Si  Si18  1  0.29987307  0.00874911  0.25285654  1
  Si  Si19  1  0.00761938  0.29529965  0.25279952  1
  Si  Si20  1  0.29299572  0.29233020  0.75175698  1
  Si  Si21  1  0.71931615  0.01224808  0.75192791  1
  Si  Si22  1  0.66325846  0.62304756  0.58468746  1
  Si  Si23  1  0.95821702  0.62818154  0.08520469  1
  Si  Si24  1  0.32704642  0.95900728  0.91721439  1
  Si  Si25  1  0.63086549  0.95871286  0.41809202  1
  Si  Si26  1  0.04748889  0.67426372  0.42008930  1
  S  S27  1  0.70345052  0.70991047  0.24911957  1
  S  S28  1  0.00287276  0.71119966  0.74956206  1
  S  S29  1  0.95570592  0.33287374  0.58336058  1
  S  S30  1  0.36953514  0.04077913  0.58359746  1
  S  S31  1  0.67152427  0.04270442  0.08109115  1
  S  S32  1  0.37393707  0.33104597  0.08199305  1
  S  S33  1  0.61854868  0.66272405  0.91785722  1
  S  S34  1  0.03812797  0.37527558  0.91777472  1
  S  S35  1  0.33654369  0.37932090  0.41750325  1
  O  O36  1  0.21303660  0.02738916  0.30890513  1
  O  O37  1  0.80637649  0.78301183  0.30162879  1
  O  O38  1  0.97618770  0.17858359  0.30705167  1
  O  O39  1  0.21993706  0.18583466  0.80907710  1
  O  O40  1  0.97509957  0.77997681  0.80332189  1
  O  O41  1  0.81298205  0.01848161  0.81100694  1
  O  O42  1  0.80766481  0.97354163  0.69358936  1
  O  O43  1  0.16554087  0.19117607  0.69392483  1
  O  O44  1  0.02979819  0.82073362  0.69838094  1
  O  O45  1  0.79834278  0.82148229  0.19596576  1
  O  O46  1  0.02330525  0.18750639  0.19198455  1
  O  O47  1  0.16873935  0.96959830  0.19276883  1
  O  O48  1  0.87730823  0.35061682  0.63634135  1
  O  O49  1  0.47088749  0.11209837  0.63720591  1
  O  O50  1  0.65240246  0.52306870  0.64231528  1
  O  O51  1  0.86186388  0.51592637  0.13915192  1
  O  O52  1  0.63682550  0.11295024  0.13312743  1
  O  O53  1  0.47421324  0.35357196  0.13440315  1
  O  O54  1  0.46107579  0.30545662  0.02873086  1
  O  O55  1  0.83193745  0.52083382  0.02587469  1
  O  O56  1  0.68462980  0.15193789  0.02867662  1
  O  O57  1  0.45431037  0.14541843  0.53226635  1
  O  O58  1  0.68731315  0.52102531  0.52719627  1
  O  O59  1  0.84681924  0.30486781  0.53070335  1
  O  O60  1  0.53789121  0.68033518  0.97025037  1
  O  O61  1  0.13939405  0.44789524  0.97127986  1
  O  O62  1  0.31147177  0.85637198  0.97450639  1
  O  O63  1  0.55916363  0.85356749  0.47542262  1
  O  O64  1  0.31631052  0.45236786  0.47149911  1
  O  O65  1  0.14783883  0.68199452  0.47767937  1
  O  O66  1  0.13399770  0.63852671  0.36009488  1
  O  O67  1  0.49873824  0.85540051  0.36034843  1
  O  O68  1  0.36163642  0.48462294  0.36598470  1
  O  O69  1  0.11784446  0.48030753  0.86630304  1
  O  O70  1  0.35520203  0.85752594  0.86000746  1
  O  O71  1  0.51043266  0.63633217  0.86444288  1
  O  O72  1  0.01279597  0.83059750  0.41307178  1
  O  O73  1  0.82427686  0.00300234  0.41080361  1
  O  O74  1  0.19381663  0.20309361  0.41322567  1
  O  O75  1  0.00220343  0.19689724  0.91396210  1
  O  O76  1  0.16008265  0.98285712  0.91335937  1
  O  O77  1  0.79318411  0.80918630  0.91261127  1
  O  O78  1  0.96683155  0.16650266  0.58750535  1
  O  O79  1  0.19679309  0.03317300  0.58955795  1
  O  O80  1  0.84692405  0.81739062  0.59225031  1
  O  O81  1  0.96805820  0.82000268  0.08824593  1
  O  O82  1  0.83721043  0.04176499  0.08414529  1
  O  O83  1  0.20017619  0.17190098  0.08443189  1
  O  O84  1  0.68951587  0.17128122  0.74294489  1
  O  O85  1  0.48840136  0.33648501  0.74655198  1
  O  O86  1  0.86447169  0.53427779  0.74233961  1
  O  O87  1  0.67636305  0.53714674  0.24066866  1
  O  O88  1  0.85186016  0.33392639  0.24662741  1
  O  O89  1  0.48386828  0.17082740  0.24065550  1
  O  O90  1  0.63052491  0.49832751  0.92232586  1
  O  O91  1  0.86172310  0.36517410  0.92428223  1
  O  O92  1  0.50853495  0.15246989  0.92571436  1
  O  O93  1  0.62817319  0.14660288  0.42690643  1
  O  O94  1  0.50184712  0.36659847  0.42215033  1
  O  O95  1  0.85415982  0.48971463  0.42481269  1
  O  O96  1  0.35571194  0.48431216  0.07327305  1
  O  O97  1  0.14899059  0.65001528  0.08207911  1
  O  O98  1  0.52930136  0.86490596  0.07381670  1
  O  O99  1  0.33582421  0.86246018  0.57988601  1
  O  O100  1  0.49812641  0.65051677  0.58067568  1
  O  O101  1  0.13036341  0.47686289  0.57836419  1
  O  O102  1  0.30823187  0.82581801  0.25512414  1
  O  O103  1  0.53773873  0.70798208  0.25023479  1
  O  O104  1  0.19405784  0.48033143  0.25699725  1
  O  O105  1  0.29594052  0.48264318  0.76140966  1
  O  O106  1  0.17014350  0.70351829  0.75510741  1
  O  O107  1  0.52326820  0.82833658  0.75739282  1
