# generated using pymatgen
data_Na3MgTi(PO4)3
_symmetry_space_group_name_H-M   'P 1'
_cell_length_a   8.86864914
_cell_length_b   8.87350222
_cell_length_c   21.90504800
_cell_angle_alpha   90.00000000
_cell_angle_beta   90.14930976
_cell_angle_gamma   120.01810569
_symmetry_Int_Tables_number   1
_chemical_formula_structural   Na3MgTi(PO4)3
_chemical_formula_sum   'Na18 Mg6 Ti6 P18 O72'
_cell_volume   1492.60931071
_cell_formula_units_Z   6
loop_
 _symmetry_equiv_pos_site_id
 _symmetry_equiv_pos_as_xyz
  1  'x, y, z'
loop_
 _atom_site_type_symbol
 _atom_site_label
 _atom_site_symmetry_multiplicity
 _atom_site_fract_x
 _atom_site_fract_y
 _atom_site_fract_z
 _atom_site_occupancy
  Na  Na0  1  0.98731420  0.97210200  0.49609013  1
  Na  Na1  1  0.98731420  0.01521221  0.99609013  1
  Na  Na2  1  0.66682398  0.33633199  0.82933242  1
  Na  Na3  1  0.66682398  0.33049099  0.32933242  1
  Na  Na4  1  0.32934402  0.66293377  0.16266134  1
  Na  Na5  1  0.32934402  0.66641125  0.66266134  1
  Na  Na6  1  0.36933713  0.36208444  0.24747859  1
  Na  Na7  1  0.98996213  0.63287866  0.24714157  1
  Na  Na8  1  0.98996213  0.35708348  0.74714157  1
  Na  Na9  1  0.36933713  0.00725269  0.74747859  1
  Na  Na10  1  0.30725334  0.34189224  0.58072082  1
  Na  Na11  1  0.65985908  0.96630473  0.58031732  1
  Na  Na12  1  0.30725334  0.96536010  0.08072082  1
  Na  Na13  1  0.65985908  0.69355335  0.08031732  1
  Na  Na14  1  0.97524340  0.67736259  0.91364825  1
  Na  Na15  1  0.32590602  0.29809637  0.91497672  1
  Na  Na16  1  0.97524340  0.29788181  0.41364825  1
  Na  Na17  1  0.32590602  0.02781065  0.41497672  1
  Mg  Mg18  1  0.99402853  0.99525827  0.35169708  1
  Mg  Mg19  1  0.99402853  0.99877026  0.85169708  1
  Mg  Mg20  1  0.66776982  0.33919545  0.68506433  1
  Mg  Mg21  1  0.66776982  0.32857337  0.18506433  1
  Mg  Mg22  1  0.32961483  0.66146604  0.01855562  1
  Mg  Mg23  1  0.32961483  0.66814979  0.51855562  1
  Ti  Ti24  1  0.99742742  0.99302397  0.64879827  1
  Ti  Ti25  1  0.99742742  0.00440345  0.14879827  1
  Ti  Ti26  1  0.67067343  0.32626331  0.98187651  1
  Ti  Ti27  1  0.67067343  0.34440912  0.48187651  1
  Ti  Ti28  1  0.34126734  0.67282277  0.31534991  1
  Ti  Ti29  1  0.34126734  0.66844557  0.81534991  1
  P  P30  1  0.29288513  0.99855625  0.25188644  1
  P  P31  1  0.70644336  0.71140154  0.25026882  1
  P  P32  1  0.00010804  0.29403468  0.25361861  1
  P  P33  1  0.29288513  0.29432888  0.75188644  1
  P  P34  1  0.00010804  0.70607336  0.75361861  1
  P  P35  1  0.70644336  0.99504181  0.75026882  1
  P  P36  1  0.95995412  0.33285635  0.58549851  1
  P  P37  1  0.37214708  0.04131072  0.58513973  1
  P  P38  1  0.67015425  0.62725794  0.58532928  1
  P  P39  1  0.95995412  0.62709677  0.08549851  1
  P  P40  1  0.67015425  0.04289531  0.08532928  1
  P  P41  1  0.37214708  0.33083536  0.08513973  1
  P  P42  1  0.62779881  0.66718125  0.92055160  1
  P  P43  1  0.04051328  0.37539378  0.91657553  1
  P  P44  1  0.33904361  0.96165059  0.91843843  1
  P  P45  1  0.62779881  0.96061856  0.42055160  1
  P  P46  1  0.33904361  0.37739402  0.41843843  1
  P  P47  1  0.04051328  0.66512050  0.41657553  1
  O  O48  1  0.20962591  0.02323453  0.30870501  1
  O  O49  1  0.82332274  0.79698303  0.30388507  1
  O  O50  1  0.98488708  0.19663164  0.31196714  1
  O  O51  1  0.20962591  0.18639138  0.80870501  1
  O  O52  1  0.98488708  0.78825544  0.81196714  1
  O  O53  1  0.82332274  0.02633971  0.80388507  1
  O  O54  1  0.79297514  0.97157902  0.69018619  1
  O  O55  1  0.16932985  0.20067944  0.69440047  1
  O  O56  1  0.02300486  0.83223635  0.69788369  1
  O  O57  1  0.79297514  0.82139612  0.19018619  1
  O  O58  1  0.02300486  0.19076850  0.19788369  1
  O  O59  1  0.16932985  0.96865040  0.19440047  1
  O  O60  1  0.87528036  0.34847745  0.64315965  1
  O  O61  1  0.47952321  0.12484402  0.64221618  1
  O  O62  1  0.63867838  0.51260729  0.63951165  1
  O  O63  1  0.87528036  0.52680191  0.14315965  1
  O  O64  1  0.63867838  0.12607009  0.13951165  1
  O  O65  1  0.47952321  0.35467819  0.14221618  1
  O  O66  1  0.46577104  0.30131663  0.02789049  1
  O  O67  1  0.83960941  0.53123814  0.02783550  1
  O  O68  1  0.69401592  0.15974162  0.02670942  1
  O  O69  1  0.46577104  0.16445341  0.52789049  1
  O  O70  1  0.69401592  0.53427330  0.52670942  1
  O  O71  1  0.83960941  0.30837027  0.52783550  1
  O  O72  1  0.54653549  0.68455484  0.97860461  1
  O  O73  1  0.15520743  0.46376405  0.97092198  1
  O  O74  1  0.31308448  0.85358305  0.97507317  1
  O  O75  1  0.54653549  0.86198165  0.47860461  1
  O  O76  1  0.31308448  0.45950243  0.47507317  1
  O  O77  1  0.15520743  0.69144437  0.47092198  1
  O  O78  1  0.12770317  0.63429683  0.35757076  1
  O  O79  1  0.50047587  0.85862741  0.36455068  1
  O  O80  1  0.35906532  0.49143991  0.36004320  1
  O  O81  1  0.12770317  0.49340735  0.85757076  1
  O  O82  1  0.35906532  0.86762641  0.86004320  1
  O  O83  1  0.50047587  0.64184946  0.86455068  1
  O  O84  1  0.01754958  0.82310759  0.40928389  1
  O  O85  1  0.81186984  0.99252293  0.41194872  1
  O  O86  1  0.18102944  0.19271727  0.41159225  1
  O  O87  1  0.01754958  0.19444199  0.90928389  1
  O  O88  1  0.18102944  0.98831218  0.91159225  1
  O  O89  1  0.81186984  0.81934691  0.91194872  1
  O  O90  1  0.96841587  0.15819905  0.58628398  1
  O  O91  1  0.19082639  0.03319040  0.58870554  1
  O  O92  1  0.83922219  0.81060034  0.58845832  1
  O  O93  1  0.96841587  0.81021682  0.08628398  1
  O  O94  1  0.83922219  0.02862185  0.08845832  1
  O  O95  1  0.19082639  0.15763598  0.08870554  1
  O  O96  1  0.67692036  0.15136683  0.74363487  1
  O  O97  1  0.47208550  0.31367965  0.74383716  1
  O  O98  1  0.84862692  0.52137757  0.74540050  1
  O  O99  1  0.67692036  0.52555253  0.24363487  1
  O  O100  1  0.84862692  0.32724836  0.24540050  1
  O  O101  1  0.47208550  0.15840485  0.24383716  1
  O  O102  1  0.63450284  0.49249739  0.92030278  1
  O  O103  1  0.85976033  0.36902569  0.92135274  1
  O  O104  1  0.50645385  0.14716931  0.92113024  1
  O  O105  1  0.63450284  0.14200445  0.42030278  1
  O  O106  1  0.50645385  0.35928354  0.42113024  1
  O  O107  1  0.85976033  0.49073364  0.42135274  1
  O  O108  1  0.35192374  0.49023765  0.07729436  1
  O  O109  1  0.14563138  0.66117785  0.07857279  1
  O  O110  1  0.51373643  0.85871738  0.07704427  1
  O  O111  1  0.35192374  0.86168709  0.57729436  1
  O  O112  1  0.51373643  0.65502005  0.57704427  1
  O  O113  1  0.14563138  0.48445453  0.57857279  1
  O  O114  1  0.30027768  0.82517306  0.25515874  1
  O  O115  1  0.52118648  0.69420422  0.25520940  1
  O  O116  1  0.17571316  0.47510707  0.25265873  1
  O  O117  1  0.30027768  0.47510562  0.75515874  1
  O  O118  1  0.17571316  0.70060709  0.75265873  1
  O  O119  1  0.52118648  0.82698325  0.75520940  1
