# generated using pymatgen
data_Na2Ti4Si5Sn4S7O48
_symmetry_space_group_name_H-M   'P 1'
_cell_length_a   17.52675951
_cell_length_b   8.77829316
_cell_length_c   22.72139922
_cell_angle_alpha   90.05060438
_cell_angle_beta   90.14830369
_cell_angle_gamma   120.13395219
_symmetry_Int_Tables_number   1
_chemical_formula_structural   Na2Ti4Si5Sn4S7O48
_chemical_formula_sum   'Na6 Ti12 Si15 Sn12 S21 O144'
_cell_volume   3023.33856205
_cell_formula_units_Z   3
loop_
 _symmetry_equiv_pos_site_id
 _symmetry_equiv_pos_as_xyz
  1  'x, y, z'
loop_
 _atom_site_type_symbol
 _atom_site_label
 _atom_site_symmetry_multiplicity
 _atom_site_fract_x
 _atom_site_fract_y
 _atom_site_fract_z
 _atom_site_occupancy
  Na  Na0  1  0.99470981  0.99830587  0.50073680  1
  Na  Na1  1  0.49392200  0.99554672  0.99271512  1
  Na  Na2  1  0.34019711  0.34796402  0.83591538  1
  Na  Na3  1  0.83322396  0.34152490  0.83036496  1
  Na  Na4  1  0.33588878  0.32985866  0.33117090  1
  Na  Na5  1  0.83351891  0.32931826  0.33985367  1
  Ti  Ti6  1  0.00395504  0.99167381  0.35805235  1
  Ti  Ti7  1  0.50229111  0.99975675  0.85253216  1
  Ti  Ti8  1  0.99734597  0.99345296  0.64679031  1
  Ti  Ti9  1  0.49690201  0.00324102  0.14431036  1
  Ti  Ti10  1  0.83878989  0.34805045  0.69122431  1
  Ti  Ti11  1  0.34037184  0.33145795  0.19018954  1
  Ti  Ti12  1  0.34535542  0.36788147  0.97447656  1
  Ti  Ti13  1  0.84009977  0.31929688  0.97768201  1
  Ti  Ti14  1  0.34159985  0.36088036  0.48100865  1
  Ti  Ti15  1  0.84281295  0.31868322  0.47747546  1
  Ti  Ti16  1  0.16018020  0.68051894  0.31034822  1
  Ti  Ti17  1  0.65318540  0.63849938  0.80692935  1
  Si  Si18  1  0.14382292  0.01017894  0.24900204  1
  Si  Si19  1  0.50414730  0.29031812  0.25011750  1
  Si  Si20  1  0.64316615  0.27954642  0.74817025  1
  Si  Si21  1  0.00416703  0.71714752  0.75026541  1
  Si  Si22  1  0.49902738  0.71015622  0.75238195  1
  Si  Si23  1  0.97431387  0.32418811  0.58705094  1
  Si  Si24  1  0.33579888  0.63523641  0.58406068  1
  Si  Si25  1  0.47516019  0.62306787  0.08595009  1
  Si  Si26  1  0.83466181  0.03801147  0.08341079  1
  Si  Si27  1  0.31384348  0.67492272  0.91421115  1
  Si  Si28  1  0.02150208  0.37088222  0.91609000  1
  Si  Si29  1  0.52408077  0.37285103  0.91675497  1
  Si  Si30  1  0.81268218  0.95274211  0.41339180  1
  Si  Si31  1  0.02290730  0.66405260  0.41780559  1
  Si  Si32  1  0.52019066  0.67022110  0.41653273  1
  Sn  Sn33  1  0.49730247  -0.00122217  0.35449040  1
  Sn  Sn34  1  0.99584910  0.99325430  0.85510617  1
  Sn  Sn35  1  0.50446430  0.99396331  0.64647718  1
  Sn  Sn36  1  0.00305523  0.00412656  0.14396519  1
  Sn  Sn37  1  0.33927886  0.35067887  0.68630981  1
  Sn  Sn38  1  0.83462145  0.33035071  0.18277590  1
  Sn  Sn39  1  0.17051922  0.65747699  0.01723164  1
  Sn  Sn40  1  0.66037539  0.66242919  0.02287611  1
  Sn  Sn41  1  0.16061178  0.65983607  0.52520938  1
  Sn  Sn42  1  0.67089410  0.68372219  0.51820761  1
  Sn  Sn43  1  0.65962731  0.66193302  0.31325683  1
  Sn  Sn44  1  0.16144868  0.65877327  0.81259394  1
  S  S45  1  0.64607418  0.00539570  0.24769514  1
  S  S46  1  0.35327988  0.70769733  0.24909749  1
  S  S47  1  0.85485332  0.70647888  0.25006569  1
  S  S48  1  0.00088312  0.29377955  0.25227023  1
  S  S49  1  0.14381390  0.28411855  0.74833151  1
  S  S50  1  0.35335547  0.00025653  0.74977151  1
  S  S51  1  0.85429859  0.99991900  0.74935485  1
  S  S52  1  0.48098530  0.33498230  0.58105728  1
  S  S53  1  0.19000422  0.05050881  0.58379162  1
  S  S54  1  0.69336367  0.05283956  0.58289637  1
  S  S55  1  0.83143961  0.61765647  0.58298819  1
  S  S56  1  0.98051819  0.62409461  0.08081719  1
  S  S57  1  0.33068078  0.04412835  0.08324714  1
  S  S58  1  0.19321708  0.33567796  0.08351023  1
  S  S59  1  0.68804935  0.33053289  0.08284198  1
  S  S60  1  0.80899773  0.66113182  0.91771650  1
  S  S61  1  0.16847113  0.96250163  0.91868100  1
  S  S62  1  0.66817685  0.95946654  0.91551607  1
  S  S63  1  0.30816558  0.95459578  0.41681956  1
  S  S64  1  0.16797441  0.37696057  0.41472677  1
  S  S65  1  0.66852384  0.37524325  0.41828595  1
  O  O66  1  0.09288026  0.03221458  0.30573081  1
  O  O67  1  0.60891667  0.03325735  0.30279702  1
  O  O68  1  0.40946223  0.77823067  0.30318243  1
  O  O69  1  0.91069165  0.78697849  0.30203480  1
  O  O70  1  0.47967912  0.16701456  0.30871934  1
  O  O71  1  0.98391680  0.18005368  0.30309905  1
  O  O72  1  0.10563443  0.18257409  0.80298488  1
  O  O73  1  0.59585306  0.15729045  0.80563793  1
  O  O74  1  0.48213418  0.80461680  0.80819362  1
  O  O75  1  0.97971415  0.79199533  0.80851183  1
  O  O76  1  0.40911010  0.03436485  0.80192068  1
  O  O77  1  0.91172824  0.04495896  0.80288859  1
  O  O78  1  0.39047106  0.97437023  0.69509968  1
  O  O79  1  0.89976342  0.97715769  0.69736736  1
  O  O80  1  0.08898683  0.19765228  0.69573004  1
  O  O81  1  0.58248543  0.21388888  0.68877616  1
  O  O82  1  0.01054040  0.84040010  0.69307735  1
  O  O83  1  0.51679462  0.81483162  0.69124083  1
  O  O84  1  0.39682832  0.82129051  0.19788308  1
  O  O85  1  0.89206940  0.80772449  0.19539073  1
  O  O86  1  0.01276842  0.22047698  0.19679606  1
  O  O87  1  0.51047496  0.18033815  0.19337429  1
  O  O88  1  0.08097718  0.95390631  0.19092218  1
  O  O89  1  0.59301001  0.98555968  0.19575018  1
  O  O90  1  0.44365922  0.36645195  0.63564951  1
  O  O91  1  0.92129188  0.34772206  0.64119483  1
  O  O92  1  0.24301819  0.12592308  0.63855716  1
  O  O93  1  0.74447540  0.13493113  0.63589464  1
  O  O94  1  0.31098253  0.50228346  0.63953611  1
  O  O95  1  0.81958977  0.51494654  0.63673496  1
  O  O96  1  0.42206794  0.49429379  0.14149392  1
  O  O97  1  0.94448638  0.52101398  0.13730125  1
  O  O98  1  0.31959033  0.12445779  0.13746357  1
  O  O99  1  0.81342040  0.11807020  0.14252418  1
  O  O100  1  0.24395979  0.35515313  0.13716836  1
  O  O101  1  0.74064216  0.36458493  0.13923589  1
  O  O102  1  0.23217441  0.31142521  0.03019063  1
  O  O103  1  0.73097542  0.30371797  0.03238429  1
  O  O104  1  0.41443491  0.53634975  0.02665864  1
  O  O105  1  0.92217127  0.53301307  0.03082321  1
  O  O106  1  0.34597968  0.15006174  0.03071629  1
  O  O107  1  0.84820086  0.17244201  0.02758120  1
  O  O108  1  0.23193940  0.15942387  0.53155605  1
  O  O109  1  0.73525286  0.15517573  0.52881142  1
  O  O110  1  0.34970268  0.52782988  0.52691101  1
  O  O111  1  0.84589729  0.54028788  0.52997890  1
  O  O112  1  0.42295427  0.31053142  0.52950388  1
  O  O113  1  0.91460982  0.29338771  0.52622687  1
  O  O114  1  0.27973255  0.71998705  0.97548318  1
  O  O115  1  0.77188984  0.69415281  0.97153031  1
  O  O116  1  0.07528568  0.45146150  0.97697444  1
  O  O117  1  0.58378211  0.45163121  0.97584155  1
  O  O118  1  0.15042446  0.84882671  0.97148591  1
  O  O119  1  0.65412663  0.85729370  0.97046922  1
  O  O120  1  0.27018850  0.84665130  0.46991682  1
  O  O121  1  0.78026653  0.83793951  0.47376303  1
  O  O122  1  0.15236622  0.45153349  0.46864383  1
  O  O123  1  0.65163636  0.45426121  0.47072844  1
  O  O124  1  0.08606999  0.71470691  0.47439649  1
  O  O125  1  0.57740715  0.70050250  0.47578684  1
  O  O126  1  0.07050989  0.63388382  0.35962192  1
  O  O127  1  0.55335324  0.61751067  0.35737953  1
  O  O128  1  0.25445168  0.86673441  0.36310927  1
  O  O129  1  0.75156964  0.87201166  0.35497407  1
  O  O130  1  0.18299588  0.48569970  0.36236613  1
  O  O131  1  0.68670096  0.48477538  0.36454806  1
  O  O132  1  0.05513794  0.49261710  0.85794595  1
  O  O133  1  0.56856725  0.50409089  0.86027478  1
  O  O134  1  0.18623103  0.88823081  0.86521797  1
  O  O135  1  0.68591894  0.88380578  0.86418504  1
  O  O136  1  0.25045644  0.62927944  0.85667140  1
  O  O137  1  0.75710712  0.63972521  0.86478519  1
  O  O138  1  0.01217939  0.83836870  0.40733722  1
  O  O139  1  0.50739548  0.83904901  0.40836047  1
  O  O140  1  0.39698587  0.97562231  0.41070636  1
  O  O141  1  0.91264379  0.98846296  0.40264159  1
  O  O142  1  0.08738978  0.19937355  0.40865754  1
  O  O143  1  0.58799719  0.20073901  0.41096007  1
  O  O144  1  0.00762519  0.17611607  0.90851636  1
  O  O145  1  0.51141957  0.17938164  0.90730388  1
  O  O146  1  0.08827028  0.97657695  0.91115175  1
  O  O147  1  0.58968721  0.97975437  0.91044500  1
  O  O148  1  0.41254124  0.83974054  0.90795398  1
  O  O149  1  0.89952275  0.81818217  0.91306505  1
  O  O150  1  0.48565102  0.17334175  0.58542669  1
  O  O151  1  0.98365702  0.14854103  0.59546748  1
  O  O152  1  0.10106083  0.03454286  0.58977848  1
  O  O153  1  0.60479060  0.03473877  0.58442295  1
  O  O154  1  0.42361353  0.82441629  0.58846456  1
  O  O155  1  0.91099860  0.79960821  0.58953964  1
  O  O156  1  0.48408246  0.81760114  0.09743685  1
  O  O157  1  0.98516840  0.79577077  0.08585736  1
  O  O158  1  0.41028937  0.02103672  0.09052543  1
  O  O159  1  0.92504752  0.03203594  0.09074466  1
  O  O160  1  0.10252405  0.17766174  0.08757635  1
  O  O161  1  0.60001826  0.16791783  0.08993466  1
  O  O162  1  0.34192775  0.15967292  0.74398824  1
  O  O163  1  0.84420482  0.15634641  0.74143223  1
  O  O164  1  0.23117504  0.29397514  0.74410724  1
  O  O165  1  0.74053795  0.29851134  0.73897928  1
  O  O166  1  0.41200068  0.50877571  0.75117350  1
  O  O167  1  0.91580984  0.52205222  0.74044918  1
  O  O168  1  0.34231091  0.53029399  0.24154347  1
  O  O169  1  0.84736953  0.52562902  0.24419665  1
  O  O170  1  0.41621744  0.30997713  0.24008756  1
  O  O171  1  0.92092607  0.31882323  0.24742641  1
  O  O172  1  0.24091121  0.17983578  0.24091901  1
  O  O173  1  0.73614175  0.17160185  0.24496778  1
  O  O174  1  0.31844578  0.49149680  0.92325686  1
  O  O175  1  0.81731230  0.50102924  0.92499339  1
  O  O176  1  0.42521632  0.35341609  0.92620284  1
  O  O177  1  0.92235841  0.35336005  0.92536669  1
  O  O178  1  0.24585864  0.13735473  0.92761810  1
  O  O179  1  0.74700177  0.14263192  0.92352661  1
  O  O180  1  0.31475886  0.12830711  0.42217958  1
  O  O181  1  0.81884972  0.14503337  0.42366790  1
  O  O182  1  0.24542654  0.35082104  0.42225608  1
  O  O183  1  0.74591887  0.35417512  0.42658736  1
  O  O184  1  0.42160996  0.48974884  0.42589072  1
  O  O185  1  0.92423502  0.49371507  0.42471053  1
  O  O186  1  0.18373404  0.49728261  0.08110003  1
  O  O187  1  0.67850135  0.48639681  0.07792196  1
  O  O188  1  0.06928920  0.64598100  0.07537362  1
  O  O189  1  0.57040511  0.64331981  0.07943805  1
  O  O190  1  0.25004856  0.86542503  0.07921178  1
  O  O191  1  0.75168058  0.84896108  0.07136357  1
  O  O192  1  0.17994145  0.87459388  0.57844525  1
  O  O193  1  0.68473161  0.87281675  0.58002747  1
  O  O194  1  0.25056848  0.65073348  0.57092521  1
  O  O195  1  0.75064453  0.63450636  0.57814303  1
  O  O196  1  0.06825151  0.49720167  0.57881613  1
  O  O197  1  0.56962711  0.49256963  0.57448981  1
  O  O198  1  0.15592632  0.83706729  0.26388287  1
  O  O199  1  0.65677247  0.84976887  0.25157940  1
  O  O200  1  0.26687244  0.69356526  0.25842564  1
  O  O201  1  0.76643703  0.68169298  0.25694791  1
  O  O202  1  0.08033280  0.46894618  0.25962665  1
  O  O203  1  0.59370480  0.47960152  0.25362377  1
  O  O204  1  0.15421211  0.46076706  0.75133801  1
  O  O205  1  0.65928469  0.47717651  0.76239096  1
  O  O206  1  0.09336156  0.70713468  0.75345964  1
  O  O207  1  0.58710772  0.69379776  0.76235320  1
  O  O208  1  0.26525496  0.84349606  0.75707231  1
  O  O209  1  0.77001699  0.84070465  0.75731459  1
