# generated using pymatgen
data_MgMn2Te2(MoO6)2
_symmetry_space_group_name_H-M   'P 1'
_cell_length_a   5.28748000
_cell_length_b   5.28773100
_cell_length_c   10.22921000
_cell_angle_alpha   90.00000000
_cell_angle_beta   90.00000000
_cell_angle_gamma   90.00195046
_symmetry_Int_Tables_number   1
_chemical_formula_structural   MgMn2Te2(MoO6)2
_chemical_formula_sum   'Mg1 Mn2 Te2 Mo2 O12'
_cell_volume   285.99614910
_cell_formula_units_Z   1
loop_
 _symmetry_equiv_pos_site_id
 _symmetry_equiv_pos_as_xyz
  1  'x, y, z'
loop_
 _atom_site_type_symbol
 _atom_site_label
 _atom_site_symmetry_multiplicity
 _atom_site_fract_x
 _atom_site_fract_y
 _atom_site_fract_z
 _atom_site_occupancy
  Mg  Mg0  1  0.50000000  0.50000000  0.50000500  1
  Mn  Mn1  1  0.00000000  0.00000000  0.99995400  1
  Mn  Mn2  1  0.50000000  0.50000000  0.00003100  1
  Te  Te3  1  0.00000000  0.50000000  0.77746800  1
  Te  Te4  1  0.50000000  0.00000000  0.22252800  1
  Mo  Mo5  1  0.50000000  0.00000000  0.72836300  1
  Mo  Mo6  1  0.00000000  0.50000000  0.27165500  1
  O  O7  1  0.36175000  0.76124000  0.61757400  1
  O  O8  1  0.23874500  0.36172500  0.38244300  1
  O  O9  1  0.63825000  0.23876000  0.61757400  1
  O  O10  1  0.76125500  0.63827500  0.38244300  1
  O  O11  1  0.26074800  0.20919900  0.81832000  1
  O  O12  1  0.20927300  0.73917100  0.18166800  1
  O  O13  1  0.73925200  0.79080100  0.81832000  1
  O  O14  1  0.79072700  0.26082900  0.18166800  1
  O  O15  1  0.79633800  0.30688100  0.89758400  1
  O  O16  1  0.69315600  0.79638900  0.10240900  1
  O  O17  1  0.20366200  0.69311900  0.89758400  1
  O  O18  1  0.30684400  0.20361100  0.10240900  1
