# generated using pymatgen
data_Na42Nb16Zn8Si33(SO48)3
_symmetry_space_group_name_H-M   'P 1'
_cell_length_a   18.26425929
_cell_length_b   9.14047339
_cell_length_c   22.48237536
_cell_angle_alpha   89.95864772
_cell_angle_beta   90.13730531
_cell_angle_gamma   120.08122146
_symmetry_Int_Tables_number   1
_chemical_formula_structural   Na42Nb16Zn8Si33(SO48)3
_chemical_formula_sum   'Na42 Nb16 Zn8 Si33 S3 O144'
_cell_volume   3247.77727146
_cell_formula_units_Z   1
loop_
 _symmetry_equiv_pos_site_id
 _symmetry_equiv_pos_as_xyz
  1  'x, y, z'
loop_
 _atom_site_type_symbol
 _atom_site_label
 _atom_site_symmetry_multiplicity
 _atom_site_fract_x
 _atom_site_fract_y
 _atom_site_fract_z
 _atom_site_occupancy
  Na  Na0  1  0.31404423  0.98216589  0.25374772  1
  Na  Na1  1  0.81539058  0.98346268  0.25424273  1
  Na  Na2  1  0.17951994  0.38282375  0.25318583  1
  Na  Na3  1  0.68028073  0.38413910  0.25321982  1
  Na  Na4  1  0.00662248  0.63572841  0.25880261  1
  Na  Na5  1  0.50581541  0.63373676  0.25721788  1
  Na  Na6  1  0.31541949  0.64840506  0.75476853  1
  Na  Na7  1  0.80922393  0.63875775  0.75354326  1
  Na  Na8  1  0.00492376  0.38063647  0.75590070  1
  Na  Na9  1  0.51170210  0.37887452  0.75589849  1
  Na  Na10  1  0.17990364  0.97599986  0.75362240  1
  Na  Na11  1  0.67989391  0.97920630  0.75353823  1
  Na  Na12  1  0.14264698  0.31996826  0.58472979  1
  Na  Na13  1  0.64178816  0.31595452  0.59078663  1
  Na  Na14  1  0.01613804  0.71449878  0.58899878  1
  Na  Na15  1  0.51854757  0.72189680  0.58982370  1
  Na  Na16  1  0.34200577  0.96275004  0.58962460  1
  Na  Na17  1  0.84152129  0.96713006  0.58974396  1
  Na  Na18  1  0.34015891  0.71746322  0.08901027  1
  Na  Na19  1  0.84030976  0.71773360  0.08952576  1
  Na  Na20  1  0.01827260  0.31786509  0.08906673  1
  Na  Na21  1  0.51699606  0.31597493  0.08838277  1
  Na  Na22  1  0.48536424  0.66358581  0.91438405  1
  Na  Na23  1  0.98813063  0.66075583  0.91445351  1
  Na  Na24  1  0.34661000  0.02755581  0.91533719  1
  Na  Na25  1  0.84394957  0.02756058  0.91422894  1
  Na  Na26  1  0.66584958  0.30575967  0.91388043  1
  Na  Na27  1  0.48733427  0.31404556  0.41472206  1
  Na  Na28  1  0.34331818  0.66065408  0.41424266  1
  Na  Na29  1  0.84563046  0.65986385  0.41481616  1
  Na  Na30  1  0.00344318  0.00556810  0.50507969  1
  Na  Na31  1  0.50489592  0.00011951  0.50763147  1
  Na  Na32  1  0.00965343  0.00844486  0.00959350  1
  Na  Na33  1  0.50387480  0.99893415  0.00846386  1
  Na  Na34  1  0.33100358  0.33343984  0.83628298  1
  Na  Na35  1  0.83282703  0.33280765  0.83244867  1
  Na  Na36  1  0.32930153  0.32677629  0.33453091  1
  Na  Na37  1  0.83534431  0.32781052  0.33709408  1
  Na  Na38  1  0.16662106  0.66455940  0.17152924  1
  Na  Na39  1  0.66728484  0.66427312  0.17183358  1
  Na  Na40  1  0.16754203  0.67778408  0.67242447  1
  Na  Na41  1  0.66662313  0.66584343  0.67634544  1
  Nb  Nb42  1  0.99320935  -0.00028434  0.35747428  1
  Nb  Nb43  1  0.49409766  0.99680055  0.35610867  1
  Nb  Nb44  1  0.99491563  0.99245703  0.85609997  1
  Nb  Nb45  1  0.49836875  0.99899463  0.85149845  1
  Nb  Nb46  1  0.33912182  0.33538480  0.68495013  1
  Nb  Nb47  1  0.83268886  0.33312610  0.68818537  1
  Nb  Nb48  1  0.33764626  0.33991904  0.18440212  1
  Nb  Nb49  1  0.83858879  0.34195947  0.18487521  1
  Nb  Nb50  1  0.32995338  0.33417284  0.98075202  1
  Nb  Nb51  1  0.83340269  0.33321313  0.98158906  1
  Nb  Nb52  1  0.33032105  0.33016607  0.47938532  1
  Nb  Nb53  1  0.83483490  0.32924401  0.47889095  1
  Nb  Nb54  1  0.16696588  0.66884868  0.01975944  1
  Nb  Nb55  1  0.66602275  0.66871522  0.02102965  1
  Nb  Nb56  1  0.16452592  0.66424987  0.51790447  1
  Nb  Nb57  1  0.66678611  0.66745986  0.51874712  1
  Zn  Zn58  1  0.99395954  0.98398540  0.64639262  1
  Zn  Zn59  1  0.49985590  0.99956651  0.65121581  1
  Zn  Zn60  1  0.99727383  0.00292219  0.14592824  1
  Zn  Zn61  1  0.49696463  0.00267797  0.14516377  1
  Zn  Zn62  1  0.16522807  0.65479276  0.32135949  1
  Zn  Zn63  1  0.66732447  0.65681897  0.32092475  1
  Zn  Zn64  1  0.16746734  0.67768716  0.82189724  1
  Zn  Zn65  1  0.66616550  0.66637256  0.81674942  1
  Si  Si66  1  0.35229823  0.70776101  0.24653135  1
  Si  Si67  1  0.85317844  0.70964667  0.24712573  1
  Si  Si68  1  0.00142850  0.29353924  0.24680588  1
  Si  Si69  1  0.50125492  0.29418745  0.24684028  1
  Si  Si70  1  0.64523129  0.29256403  0.74666952  1
  Si  Si71  1  0.00253232  0.70999664  0.74674244  1
  Si  Si72  1  0.50006838  0.70777194  0.74675117  1
  Si  Si73  1  0.35125282  0.99581776  0.74645907  1
  Si  Si74  1  0.85409659  0.99906679  0.74646767  1
  Si  Si75  1  0.48136599  0.33436262  0.58053089  1
  Si  Si76  1  0.98002445  0.33514822  0.58448269  1
  Si  Si77  1  0.18725633  0.03996531  0.58408868  1
  Si  Si78  1  0.68859682  0.04210201  0.58260766  1
  Si  Si79  1  0.33214078  0.62443509  0.58298009  1
  Si  Si80  1  0.83214616  0.62190288  0.58174073  1
  Si  Si81  1  0.48196502  0.63154876  0.08183224  1
  Si  Si82  1  0.98329084  0.63320365  0.08218996  1
  Si  Si83  1  0.33053566  0.04038972  0.08251172  1
  Si  Si84  1  0.83049035  0.03897701  0.08381526  1
  Si  Si85  1  0.18545254  0.33011779  0.08428251  1
  Si  Si86  1  0.68583347  0.32940637  0.08353902  1
  Si  Si87  1  0.30999737  0.66284268  0.91329320  1
  Si  Si88  1  0.80958175  0.66227819  0.91551075  1
  Si  Si89  1  0.02303640  0.37581063  0.91486002  1
  Si  Si90  1  0.52036175  0.37538745  0.91538623  1
  Si  Si91  1  0.16722500  0.96181727  0.91484617  1
  Si  Si92  1  0.66663924  0.95804527  0.91435845  1
  Si  Si93  1  0.30770930  0.95712551  0.41352859  1
  Si  Si94  1  0.80796905  0.95769947  0.41311292  1
  Si  Si95  1  0.16478744  0.37118137  0.41445917  1
  Si  Si96  1  0.66734475  0.37138429  0.41517626  1
  Si  Si97  1  0.02150644  0.66786521  0.41294392  1
  Si  Si98  1  0.52213870  0.66973354  0.41428573  1
  S  S99  1  0.14431046  0.00337101  0.24873900  1
  S  S100  1  0.64373572  0.00335681  0.24844382  1
  S  S101  1  0.14559469  0.28811798  0.74872748  1
  O  O102  1  0.10500880  0.03034106  0.30333975  1
  O  O103  1  0.60363466  0.02930956  0.30360267  1
  O  O104  1  0.41616438  0.80180083  0.30725051  1
  O  O105  1  0.91610755  0.80019476  0.30742143  1
  O  O106  1  0.48619844  0.16594880  0.30680236  1
  O  O107  1  0.98595463  0.16104298  0.30494059  1
  O  O108  1  0.10323345  0.17787556  0.80207457  1
  O  O109  1  0.59797087  0.16531348  0.80689012  1
  O  O110  1  0.48259526  0.80020342  0.80663780  1
  O  O111  1  0.98801577  0.80925229  0.80648405  1
  O  O112  1  0.41525278  0.03181033  0.80659597  1
  O  O113  1  0.91728361  0.02961162  0.80708678  1
  O  O114  1  0.39346208  0.97141364  0.68798316  1
  O  O115  1  0.89795219  0.97557508  0.68870922  1
  O  O116  1  0.09734795  0.21306471  0.69398414  1
  O  O117  1  0.58944769  0.21110695  0.68822687  1
  O  O118  1  0.02072926  0.82698588  0.68916094  1
  O  O119  1  0.51329312  0.81615933  0.68799426  1
  O  O120  1  0.39771097  0.81931536  0.18931318  1
  O  O121  1  0.89709804  0.81892614  0.18895491  1
  O  O122  1  0.01746900  0.21303924  0.18869872  1
  O  O123  1  0.51771043  0.21151038  0.18962413  1
  O  O124  1  0.09439126  0.97973201  0.19574566  1
  O  O125  1  0.59429412  0.97978407  0.19625487  1
  O  O126  1  0.43383720  0.36638335  0.64018463  1
  O  O127  1  0.93434759  0.36935100  0.64279831  1
  O  O128  1  0.25010589  0.13452645  0.64279462  1
  O  O129  1  0.75091382  0.13343442  0.64181730  1
  O  O130  1  0.31602726  0.49617908  0.64121727  1
  O  O131  1  0.81655674  0.49858514  0.64083691  1
  O  O132  1  0.43388640  0.50038496  0.14076041  1
  O  O133  1  0.93395590  0.50120541  0.14061710  1
  O  O134  1  0.31860803  0.13691118  0.14189349  1
  O  O135  1  0.81857447  0.13664843  0.14226538  1
  O  O136  1  0.25018689  0.36443508  0.14250547  1
  O  O137  1  0.75072054  0.36312751  0.14141045  1
  O  O138  1  0.24030131  0.31835707  0.02807785  1
  O  O139  1  0.73899810  0.31892365  0.02553336  1
  O  O140  1  0.42078446  0.52664782  0.02521866  1
  O  O141  1  0.92098208  0.52565588  0.02557945  1
  O  O142  1  0.34164155  0.16336800  0.02583178  1
  O  O143  1  0.84032168  0.16054613  0.02621006  1
  O  O144  1  0.24052196  0.16540376  0.52831313  1
  O  O145  1  0.74167170  0.16814657  0.52762574  1
  O  O146  1  0.34183442  0.52205908  0.52591112  1
  O  O147  1  0.84333906  0.52370840  0.52491599  1
  O  O148  1  0.41967997  0.31692193  0.52496096  1
  O  O149  1  0.91786392  0.31242125  0.52823517  1
  O  O150  1  0.26477105  0.69718645  0.97230531  1
  O  O151  1  0.76744278  0.69995152  0.97438318  1
  O  O152  1  0.08142372  0.46868800  0.97458746  1
  O  O153  1  0.58353212  0.46751904  0.97417874  1
  O  O154  1  0.14969837  0.82922942  0.97127444  1
  O  O155  1  0.65166225  0.82958488  0.97200886  1
  O  O156  1  0.26547694  0.83357857  0.47296539  1
  O  O157  1  0.76458922  0.83201028  0.47223362  1
  O  O158  1  0.15268531  0.46741930  0.47411202  1
  O  O159  1  0.64947431  0.46550119  0.47320891  1
  O  O160  1  0.08211708  0.69276177  0.47313521  1
  O  O161  1  0.58160262  0.69349419  0.47400981  1
  O  O162  1  0.05896401  0.63653485  0.35393089  1
  O  O163  1  0.55685070  0.62359737  0.35635545  1
  O  O164  1  0.25802254  0.88224599  0.35323529  1
  O  O165  1  0.75747066  0.88223881  0.35302884  1
  O  O166  1  0.19245515  0.48863163  0.35684145  1
  O  O167  1  0.68935687  0.48454999  0.35659357  1
  O  O168  1  0.05645829  0.49025544  0.85640549  1
  O  O169  1  0.55594497  0.49047859  0.85743892  1
  O  O170  1  0.19051036  0.89746069  0.85572317  1
  O  O171  1  0.69100784  0.89079209  0.85660052  1
  O  O172  1  0.25766963  0.63172581  0.85335422  1
  O  O173  1  0.75442823  0.62123334  0.85678843  1
  O  O174  1  0.00891200  0.83616582  0.41038473  1
  O  O175  1  0.50898748  0.83598902  0.41000527  1
  O  O176  1  0.40483652  0.97382216  0.41080978  1
  O  O177  1  0.90283284  0.96804813  0.41109254  1
  O  O178  1  0.08105626  0.18243354  0.40891403  1
  O  O179  1  0.57910939  0.18604626  0.40946906  1
  O  O180  1  0.00932200  0.18253852  0.90946141  1
  O  O181  1  0.51204483  0.18575744  0.91145194  1
  O  O182  1  0.07982718  0.97303424  0.90930353  1
  O  O183  1  0.58047705  0.97413777  0.91148903  1
  O  O184  1  0.40588693  0.83777576  0.91075810  1
  O  O185  1  0.90597345  0.83640711  0.91095530  1
  O  O186  1  0.48880528  0.16847885  0.58245311  1
  O  O187  1  0.99220723  0.17340514  0.58675406  1
  O  O188  1  0.09679488  0.02734892  0.58536443  1
  O  O189  1  0.59670726  0.02216321  0.58354711  1
  O  O190  1  0.41508293  0.80709003  0.58336314  1
  O  O191  1  0.91470167  0.80717647  0.58259421  1
  O  O192  1  0.48547110  0.80737233  0.08645561  1
  O  O193  1  0.98521010  0.80762423  0.08573812  1
  O  O194  1  0.41378433  0.02418640  0.08296592  1
  O  O195  1  0.91424384  0.02522137  0.08257396  1
  O  O196  1  0.09308142  0.17146400  0.08582032  1
  O  O197  1  0.59304533  0.17136582  0.08471444  1
  O  O198  1  0.34568977  0.17615727  0.74483718  1
  O  O199  1  0.85119346  0.18017776  0.74574068  1
  O  O200  1  0.23169855  0.29984265  0.74704371  1
  O  O201  1  0.73899469  0.29876816  0.74515107  1
  O  O202  1  0.40795023  0.51796201  0.74472968  1
  O  O203  1  0.91102688  0.52524923  0.74536180  1
  O  O204  1  0.34670973  0.51607404  0.24537547  1
  O  O205  1  0.84628783  0.51588475  0.24459000  1
  O  O206  1  0.40892692  0.29742955  0.24557156  1
  O  O207  1  0.90906107  0.29733955  0.24512439  1
  O  O208  1  0.23167538  0.16440758  0.24611835  1
  O  O209  1  0.73094562  0.16381676  0.24671216  1
  O  O210  1  0.32983569  0.50684510  0.92395058  1
  O  O211  1  0.82801549  0.50415339  0.92471506  1
  O  O212  1  0.42420966  0.34574211  0.92562572  1
  O  O213  1  0.92559260  0.34635196  0.92537373  1
  O  O214  1  0.25036838  0.14890247  0.92643254  1
  O  O215  1  0.74839042  0.15158360  0.92536132  1
  O  O216  1  0.33005366  0.15335862  0.42409162  1
  O  O217  1  0.82557356  0.14870968  0.42476649  1
  O  O218  1  0.24933264  0.35182724  0.42676945  1
  O  O219  1  0.75072671  0.35265721  0.42662547  1
  O  O220  1  0.42546924  0.50470479  0.42511260  1
  O  O221  1  0.92490208  0.50709812  0.42500623  1
  O  O222  1  0.18497391  0.51078333  0.07713199  1
  O  O223  1  0.68516295  0.51044390  0.07710164  1
  O  O224  1  0.07139032  0.62765639  0.07779105  1
  O  O225  1  0.57090689  0.62694892  0.07756088  1
  O  O226  1  0.24543648  0.85182642  0.07675811  1
  O  O227  1  0.74537046  0.85118424  0.07775912  1
  O  O228  1  0.18362051  0.85676213  0.57732373  1
  O  O229  1  0.68480123  0.85739978  0.57626690  1
  O  O230  1  0.24381531  0.63225853  0.57783609  1
  O  O231  1  0.74430734  0.63237024  0.57651543  1
  O  O232  1  0.07262985  0.51239988  0.57787217  1
  O  O233  1  0.57234036  0.51240565  0.57777777  1
  O  O234  1  0.15832298  0.85814702  0.25455190  1
  O  O235  1  0.65707235  0.85684124  0.25546398  1
  O  O236  1  0.25893353  0.68416852  0.25269402  1
  O  O237  1  0.75910830  0.68420405  0.25258836  1
  O  O238  1  0.07944379  0.48469090  0.25386220  1
  O  O239  1  0.57926475  0.48561008  0.25381016  1
  O  O240  1  0.15729630  0.45800531  0.75504239  1
  O  O241  1  0.66007913  0.48011070  0.75462770  1
  O  O242  1  0.08066937  0.67558246  0.75401953  1
  O  O243  1  0.57871042  0.67719707  0.75433295  1
  O  O244  1  0.25798371  0.83289761  0.75333554  1
  O  O245  1  0.76054776  0.83946521  0.75337200  1
