# generated using pymatgen
data_NdMgCu(WO4)2
_symmetry_space_group_name_H-M   'P 1'
_cell_length_a   5.41969776
_cell_length_b   6.04886748
_cell_length_c   6.17607922
_cell_angle_alpha   107.54134742
_cell_angle_beta   89.36108620
_cell_angle_gamma   117.51385201
_symmetry_Int_Tables_number   1
_chemical_formula_structural   NdMgCu(WO4)2
_chemical_formula_sum   'Nd1 Mg1 Cu1 W2 O8'
_cell_volume   169.24564684
_cell_formula_units_Z   1
loop_
 _symmetry_equiv_pos_site_id
 _symmetry_equiv_pos_as_xyz
  1  'x, y, z'
loop_
 _atom_site_type_symbol
 _atom_site_label
 _atom_site_symmetry_multiplicity
 _atom_site_fract_x
 _atom_site_fract_y
 _atom_site_fract_z
 _atom_site_occupancy
  Nd  Nd0  1  0.39684484  0.91025180  0.33544016  1
  Mg  Mg1  1  0.93031726  0.99688430  0.03949095  1
  Cu  Cu2  1  0.79688929  0.65206879  0.47932917  1
  W  W3  1  0.13228243  0.41882144  0.66724518  1
  W  W4  1  0.61017828  0.39589417  0.95188601  1
  O  O5  1  0.87605294  0.18637538  0.36820011  1
  O  O6  1  0.40311329  0.64567635  0.53427014  1
  O  O7  1  0.87029768  0.22171051  0.86673752  1
  O  O8  1  0.44898572  0.64563929  0.97581618  1
  O  O9  1  0.36225896  0.15992720  0.08899234  1
  O  O10  1  0.91103139  0.70739877  0.19930643  1
  O  O11  1  0.32722994  0.19804867  0.65238202  1
  O  O12  1  0.89061598  0.61465333  0.75980479  1
