# generated using pymatgen
data_TaAl3P2(SO6)4
_symmetry_space_group_name_H-M   'P 1'
_cell_length_a   8.40804279
_cell_length_b   8.41860691
_cell_length_c   21.85755282
_cell_angle_alpha   89.67092705
_cell_angle_beta   90.26879294
_cell_angle_gamma   119.85073065
_symmetry_Int_Tables_number   1
_chemical_formula_structural   TaAl3P2(SO6)4
_chemical_formula_sum   'Ta3 Al9 P6 S12 O72'
_cell_volume   1341.87003868
_cell_formula_units_Z   3
loop_
 _symmetry_equiv_pos_site_id
 _symmetry_equiv_pos_as_xyz
  1  'x, y, z'
loop_
 _atom_site_type_symbol
 _atom_site_label
 _atom_site_symmetry_multiplicity
 _atom_site_fract_x
 _atom_site_fract_y
 _atom_site_fract_z
 _atom_site_occupancy
  Ta  Ta0  1  0.66681684  0.33223648  0.97390526  1
  Ta  Ta1  1  0.32046532  0.65876316  0.31079730  1
  Ta  Ta2  1  0.33867392  0.67183977  0.80720462  1
  Al  Al3  1  0.99620584  0.00017363  0.35629975  1
  Al  Al4  1  0.99341088  0.00331368  0.85645862  1
  Al  Al5  1  0.99263913  0.99717176  0.64375851  1
  Al  Al6  1  0.00143387  0.00609466  0.14524417  1
  Al  Al7  1  0.66662387  0.32795917  0.68703032  1
  Al  Al8  1  0.67309379  0.33410617  0.18841525  1
  Al  Al9  1  0.67272136  0.33821213  0.48087063  1
  Al  Al10  1  0.33219818  0.66601742  0.01848584  1
  Al  Al11  1  0.32804040  0.67150807  0.52333289  1
  P  P12  1  0.98614252  0.26897617  0.24869673  1
  P  P13  1  0.73024225  0.01502388  0.74739693  1
  P  P14  1  0.62473558  0.68180473  0.91845455  1
  P  P15  1  0.05891348  0.37719837  0.91773466  1
  P  P16  1  0.31581147  0.94311911  0.91759364  1
  P  P17  1  0.03740250  0.67000280  0.42135193  1
  S  S18  1  0.28773118  0.01140637  0.24831304  1
  S  S19  1  0.72105734  0.71281202  0.24851909  1
  S  S20  1  0.28651042  0.27555690  0.74762233  1
  S  S21  1  0.98781008  0.71340147  0.74760019  1
  S  S22  1  0.95563279  0.33354831  0.58344077  1
  S  S23  1  0.37844448  0.04724224  0.58316517  1
  S  S24  1  0.66493896  0.62010503  0.58329416  1
  S  S25  1  0.96097844  0.62804502  0.08610965  1
  S  S26  1  0.66387100  0.03767143  0.08619576  1
  S  S27  1  0.37549631  0.33452705  0.08637816  1
  S  S28  1  0.62480092  0.95831333  0.41962887  1
  S  S29  1  0.33318148  0.37273835  0.42032008  1
  O  O30  1  0.20742745  0.03670143  0.30389204  1
  O  O31  1  0.83090416  0.79153258  0.30392223  1
  O  O32  1  0.96456349  0.15997855  0.30691469  1
  O  O33  1  0.20904354  0.16912281  0.80349055  1
  O  O34  1  0.96410291  0.79294983  0.80342241  1
  O  O35  1  0.83851861  0.03746963  0.80561679  1
  O  O36  1  0.80662218  0.96998176  0.69138018  1
  O  O37  1  0.17125533  0.19782585  0.69312926  1
  O  O38  1  0.03047896  0.83081351  0.69313748  1
  O  O39  1  0.79930812  0.82791504  0.19395656  1
  O  O40  1  0.03121186  0.19373775  0.19253801  1
  O  O41  1  0.17025248  0.96777240  0.19402739  1
  O  O42  1  0.87405078  0.37017598  0.63754087  1
  O  O43  1  0.49578990  0.12964268  0.63764963  1
  O  O44  1  0.63127705  0.50317244  0.63812179  1
  O  O45  1  0.87254878  0.50710451  0.13940690  1
  O  O46  1  0.63153926  0.12570102  0.13919546  1
  O  O47  1  0.49548499  0.36517753  0.13989174  1
  O  O48  1  0.45882686  0.29969186  0.03100895  1
  O  O49  1  0.84193629  0.54567626  0.03069665  1
  O  O50  1  0.70163881  0.15786693  0.03082421  1
  O  O51  1  0.46127639  0.16348321  0.52810746  1
  O  O52  1  0.69895087  0.53723352  0.52873414  1
  O  O53  1  0.83719755  0.29677963  0.52875240  1
  O  O54  1  0.53612142  0.70526186  0.97527684  1
  O  O55  1  0.16870014  0.46466841  0.97534200  1
  O  O56  1  0.29349127  0.83197234  0.97497236  1
  O  O57  1  0.54009570  0.83654934  0.47247292  1
  O  O58  1  0.30006935  0.46076056  0.47238888  1
  O  O59  1  0.16988347  0.70384697  0.47379587  1
  O  O60  1  0.12948137  0.63316131  0.36190851  1
  O  O61  1  0.50817606  0.87500175  0.36282046  1
  O  O62  1  0.37130398  0.49265771  0.36305270  1
  O  O63  1  0.13239565  0.49973842  0.86009749  1
  O  O64  1  0.36587867  0.86814280  0.86030814  1
  O  O65  1  0.50079959  0.63196806  0.86067095  1
  O  O66  1  0.02495384  0.83856678  0.40465425  1
  O  O67  1  0.80418785  0.97435363  0.40890579  1
  O  O68  1  0.17006178  0.19574954  0.40829219  1
  O  O69  1  0.03226306  0.19058829  0.90764590  1
  O  O70  1  0.15795902  0.97128815  0.90425391  1
  O  O71  1  0.81208103  0.83840283  0.90712449  1
  O  O72  1  0.97636843  0.17114837  0.59216466  1
  O  O73  1  0.19531715  0.02654733  0.59247744  1
  O  O74  1  0.82971689  0.80154497  0.59159597  1
  O  O75  1  0.97661329  0.80830275  0.09485888  1
  O  O76  1  0.82866578  0.02141249  0.09385610  1
  O  O77  1  0.19593598  0.16842805  0.09360791  1
  O  O78  1  0.69736364  0.17533172  0.73813647  1
  O  O79  1  0.47201457  0.30505337  0.73914366  1
  O  O80  1  0.82943601  0.53053798  0.73879279  1
  O  O81  1  0.69434848  0.52880678  0.23960718  1
  O  O82  1  0.82664418  0.30279885  0.23918279  1
  O  O83  1  0.46983449  0.16990063  0.23922674  1
  O  O84  1  0.63969448  0.50444696  0.92673684  1
  O  O85  1  0.86497862  0.35957001  0.92672658  1
  O  O86  1  0.49308301  0.13507762  0.92660028  1
  O  O87  1  0.63942810  0.13757510  0.42761940  1
  O  O88  1  0.49647767  0.35516950  0.42778798  1
  O  O89  1  0.85288244  0.49805074  0.42905631  1
  O  O90  1  0.35872916  0.49760435  0.07699307  1
  O  O91  1  0.13998427  0.64295025  0.07672842  1
  O  O92  1  0.50086436  0.85897317  0.07655310  1
  O  O93  1  0.36253381  0.86560782  0.57464415  1
  O  O94  1  0.50131353  0.63953938  0.57326259  1
  O  O95  1  0.13818378  0.49643345  0.57401990  1
  O  O96  1  0.31096684  0.84482500  0.25630518  1
  O  O97  1  0.53568037  0.69586646  0.25725965  1
  O  O98  1  0.16258703  0.46577881  0.25820851  1
  O  O99  1  0.30329402  0.46184946  0.75483708  1
  O  O100  1  0.15516397  0.69191226  0.75463401  1
  O  O101  1  0.53376120  0.83988222  0.75641604  1
