# generated using pymatgen
data_MgFe6(OF)6
_symmetry_space_group_name_H-M   'P 1'
_cell_length_a   5.04303881
_cell_length_b   7.97926780
_cell_length_c   5.94381822
_cell_angle_alpha   100.71094518
_cell_angle_beta   94.21980274
_cell_angle_gamma   88.09821159
_symmetry_Int_Tables_number   1
_chemical_formula_structural   MgFe6(OF)6
_chemical_formula_sum   'Mg1 Fe6 O6 F6'
_cell_volume   234.32713115
_cell_formula_units_Z   1
loop_
 _symmetry_equiv_pos_site_id
 _symmetry_equiv_pos_as_xyz
  1  'x, y, z'
loop_
 _atom_site_type_symbol
 _atom_site_label
 _atom_site_symmetry_multiplicity
 _atom_site_fract_x
 _atom_site_fract_y
 _atom_site_fract_z
 _atom_site_occupancy
  Mg  Mg0  1  0.50936409  0.69000768  0.68220617  1
  Fe  Fe1  1  0.55259795  0.66987026  0.15956817  1
  Fe  Fe2  1  0.36258375  0.01273866  0.52325160  1
  Fe  Fe3  1  0.57468107  0.33678617  0.78677141  1
  Fe  Fe4  1  0.00047627  0.66227306  0.67145016  1
  Fe  Fe5  1  0.96840296  0.33566414  0.32247602  1
  Fe  Fe6  1  0.03059676  0.96127693  0.02144935  1
  O  O7  1  0.76066351  0.45542008  0.58869878  1
  O  O8  1  0.78450790  0.77794320  0.94039507  1
  O  O9  1  0.72150441  0.42639981  0.09499599  1
  O  O10  1  0.27025910  0.24476343  0.55754118  1
  O  O11  1  0.29000457  0.87921022  0.22958332  1
  O  O12  1  0.22777276  0.87902700  0.73098105  1
  F  F13  1  0.81202977  0.10406017  0.27306741  1
  F  F14  1  0.68878480  0.09825927  0.74913922  1
  F  F15  1  0.70995888  0.79273931  0.47685717  1
  F  F16  1  0.31532186  0.55017667  0.85894722  1
  F  F17  1  0.16885968  0.20370829  0.05948755  1
  F  F18  1  0.22384988  0.55300965  0.39217817  1
