# generated using pymatgen
data_K2(NbCl3)3
_symmetry_space_group_name_H-M   'P 1'
_cell_length_a   9.77709131
_cell_length_b   9.77709131
_cell_length_c   9.63134031
_cell_angle_alpha   77.23656880
_cell_angle_beta   77.23656880
_cell_angle_gamma   117.60736643
_symmetry_Int_Tables_number   1
_chemical_formula_structural   K2(NbCl3)3
_chemical_formula_sum   'K4 Nb6 Cl18'
_cell_volume   737.91810376
_cell_formula_units_Z   2
loop_
 _symmetry_equiv_pos_site_id
 _symmetry_equiv_pos_as_xyz
  1  'x, y, z'
loop_
 _atom_site_type_symbol
 _atom_site_label
 _atom_site_symmetry_multiplicity
 _atom_site_fract_x
 _atom_site_fract_y
 _atom_site_fract_z
 _atom_site_occupancy
  K  K0  1  0.44768730  0.76917797  0.67369112  1
  K  K1  1  0.23082203  0.55231270  0.32630888  1
  K  K2  1  0.55231270  0.23082203  0.32630888  1
  K  K3  1  0.76917797  0.44768730  0.67369112  1
  Nb  Nb4  1  0.22258238  0.04729697  0.85778366  1
  Nb  Nb5  1  0.95270303  0.77741762  0.14221634  1
  Nb  Nb6  1  0.04729697  0.22258238  0.85778366  1
  Nb  Nb7  1  0.77741762  0.95270303  0.14221634  1
  Nb  Nb8  1  0.12176525  0.12176525  0.12829376  1
  Nb  Nb9  1  0.87823475  0.87823475  0.87170624  1
  Cl  Cl10  1  0.87959830  0.08691080  0.31789344  1
  Cl  Cl11  1  0.49493443  0.89159590  0.32562994  1
  Cl  Cl12  1  0.27419673  0.27419673  0.28619478  1
  Cl  Cl13  1  0.72580327  0.72580327  0.71380522  1
  Cl  Cl14  1  0.89159590  0.49493443  0.32562994  1
  Cl  Cl15  1  0.50506557  0.10840410  0.67437006  1
  Cl  Cl16  1  0.67833849  0.67833849  0.33478078  1
  Cl  Cl17  1  0.32166151  0.32166151  0.66521922  1
  Cl  Cl18  1  0.79213029  0.20786971  -0.00000000  1
  Cl  Cl19  1  0.20786971  0.79213029  -0.00000000  1
  Cl  Cl20  1  0.08691080  0.87959830  0.31789344  1
  Cl  Cl21  1  0.19806133  0.40747921  0.98326790  1
  Cl  Cl22  1  0.40747921  0.19806133  0.98326790  1
  Cl  Cl23  1  0.80193867  0.59252079  0.01673210  1
  Cl  Cl24  1  0.59252079  0.80193867  0.01673210  1
  Cl  Cl25  1  0.91308920  0.12040170  0.68210656  1
  Cl  Cl26  1  0.12040170  0.91308920  0.68210656  1
  Cl  Cl27  1  0.10840410  0.50506557  0.67437006  1
