# generated using pymatgen
data_FePO4
_symmetry_space_group_name_H-M   'P 1'
_cell_length_a   9.94159881
_cell_length_b   5.88451141
_cell_length_c   4.84497310
_cell_angle_alpha   90.01454756
_cell_angle_beta   89.79203129
_cell_angle_gamma   90.04013452
_symmetry_Int_Tables_number   1
_chemical_formula_structural   FePO4
_chemical_formula_sum   'Fe4 P4 O16'
_cell_volume   283.43601382
_cell_formula_units_Z   4
loop_
 _symmetry_equiv_pos_site_id
 _symmetry_equiv_pos_as_xyz
  1  'x, y, z'
loop_
 _atom_site_type_symbol
 _atom_site_label
 _atom_site_symmetry_multiplicity
 _atom_site_fract_x
 _atom_site_fract_y
 _atom_site_fract_z
 _atom_site_occupancy
  Fe  Fe0  1  0.77452900  0.24974300  0.53200600  1
  Fe  Fe1  1  0.72469600  0.75003900  0.03376600  1
  Fe  Fe2  1  0.27814300  0.24774900  0.95584600  1
  Fe  Fe3  1  0.21881800  0.74565600  0.44097300  1
  P  P4  1  0.10095600  0.25025900  0.41750000  1
  P  P5  1  0.39877800  0.74931500  0.91766700  1
  P  P6  1  0.59443000  0.24988300  0.08460900  1
  P  P7  1  0.90452900  0.74968900  0.58337100  1
  O  O8  1  0.54984200  0.74944700  0.85574400  1
  O  O9  1  0.88134300  0.74986600  0.27252600  1
  O  O10  1  0.82914700  0.95271300  0.73149400  1
  O  O11  1  0.82916900  0.54688600  0.73188100  1
  O  O12  1  0.05468100  0.75281400  0.65361500  1
  O  O13  1  0.12210100  0.25038100  0.72965100  1
  O  O14  1  0.17442600  0.04912700  0.26336900  1
  O  O15  1  0.17511300  0.45348600  0.26433700  1
  O  O16  1  0.32594400  0.54359800  0.77554900  1
  O  O17  1  0.67036200  0.45261000  0.23243700  1
  O  O18  1  0.38185000  0.75311700  0.23516100  1
  O  O19  1  0.44462900  0.25046900  0.15412300  1
  O  O20  1  0.95068300  0.25109300  0.35480000  1
  O  O21  1  0.61900400  0.24965700  0.77381100  1
  O  O22  1  0.67042500  0.04720700  0.23214100  1
  O  O23  1  0.32640300  0.95518800  0.77362800  1
