# generated using pymatgen
data_Na4MgV4O10
_symmetry_space_group_name_H-M   'P 1'
_cell_length_a   5.64702745
_cell_length_b   5.66282364
_cell_length_c   8.63277385
_cell_angle_alpha   110.17529415
_cell_angle_beta   111.35533961
_cell_angle_gamma   90.81269439
_symmetry_Int_Tables_number   1
_chemical_formula_structural   Na4MgV4O10
_chemical_formula_sum   'Na4 Mg1 V4 O10'
_cell_volume   238.22522498
_cell_formula_units_Z   1
loop_
 _symmetry_equiv_pos_site_id
 _symmetry_equiv_pos_as_xyz
  1  'x, y, z'
loop_
 _atom_site_type_symbol
 _atom_site_label
 _atom_site_symmetry_multiplicity
 _atom_site_fract_x
 _atom_site_fract_y
 _atom_site_fract_z
 _atom_site_occupancy
  Na  Na0  1  0.70598484  0.14710935  0.17609106  1
  Na  Na1  1  0.39571882  0.85982922  0.78629674  1
  Na  Na2  1  0.09754869  0.55242092  0.20644058  1
  Na  Na3  1  0.90352887  0.41858242  0.79530314  1
  Mg  Mg4  1  0.42463513  0.01999652  0.30664926  1
  V  V5  1  0.01341325  0.00084520  0.98776335  1
  V  V6  1  0.51443037  0.49577596  0.99757479  1
  V  V7  1  0.16222958  0.17530498  0.51735665  1
  V  V8  1  0.71086026  0.79109403  0.50628976  1
  O  O9  1  0.25622368  0.23339521  0.98922284  1
  O  O10  1  0.32574859  0.79158773  0.06063891  1
  O  O11  1  0.75110838  0.23338951  0.95456289  1
  O  O12  1  0.80307974  0.76802117  0.00640381  1
  O  O13  1  0.14676944  0.20787607  0.29273067  1
  O  O14  1  0.90448159  0.79216922  0.72041077  1
  O  O15  1  0.68844591  0.56970611  0.29899136  1
  O  O16  1  0.33037769  0.42904670  0.73056912  1
  O  O17  1  0.79701828  0.09710899  0.47488862  1
  O  O18  1  0.37139889  0.88102669  0.48087668  1
