# generated using pymatgen
data_Na6Zr4Ti4Si7S5O48
_symmetry_space_group_name_H-M   'P 1'
_cell_length_a   17.90986248
_cell_length_b   8.91299420
_cell_length_c   22.95709174
_cell_angle_alpha   89.92460740
_cell_angle_beta   89.97206816
_cell_angle_gamma   119.83210686
_symmetry_Int_Tables_number   1
_chemical_formula_structural   Na6Zr4Ti4Si7S5O48
_chemical_formula_sum   'Na18 Zr12 Ti12 Si21 S15 O144'
_cell_volume   3179.03186739
_cell_formula_units_Z   3
loop_
 _symmetry_equiv_pos_site_id
 _symmetry_equiv_pos_as_xyz
  1  'x, y, z'
loop_
 _atom_site_type_symbol
 _atom_site_label
 _atom_site_symmetry_multiplicity
 _atom_site_fract_x
 _atom_site_fract_y
 _atom_site_fract_z
 _atom_site_occupancy
  Na  Na0  1  0.99930125  0.62995998  0.25174985  1
  Na  Na1  1  0.49903240  0.64229859  0.24580525  1
  Na  Na2  1  0.99983207  0.35566305  0.75266835  1
  Na  Na3  1  0.49923549  0.37001347  0.75362512  1
  Na  Na4  1  0.66634076  0.31588725  0.91780030  1
  Na  Na5  1  0.16698725  0.02088440  0.41490800  1
  Na  Na6  1  0.99807823  0.98950767  0.50572081  1
  Na  Na7  1  0.49666758  0.99473718  0.49543072  1
  Na  Na8  1  0.99703834  0.99855571  0.99725288  1
  Na  Na9  1  0.49760097  0.00340288  0.00795393  1
  Na  Na10  1  0.33174037  0.33477321  0.83501464  1
  Na  Na11  1  0.83393253  0.33403999  0.83520710  1
  Na  Na12  1  0.33349514  0.33472080  0.32959394  1
  Na  Na13  1  0.83116263  0.32526713  0.32991243  1
  Na  Na14  1  0.17505545  0.67210320  0.16865952  1
  Na  Na15  1  0.66994560  0.66755369  0.16010043  1
  Na  Na16  1  0.17503321  0.67889103  0.66451048  1
  Na  Na17  1  0.67319030  0.67670261  0.67050498  1
  Zr  Zr18  1  0.99728494  0.99385736  0.35071547  1
  Zr  Zr19  1  0.49710217  0.00005341  0.85191112  1
  Zr  Zr20  1  0.32255178  0.32363549  0.69034628  1
  Zr  Zr21  1  0.82667959  0.33213024  0.68613850  1
  Zr  Zr22  1  0.33200631  0.32783475  0.18317152  1
  Zr  Zr23  1  0.82226283  0.31975359  0.18976047  1
  Zr  Zr24  1  0.83417944  0.33924543  0.98082918  1
  Zr  Zr25  1  0.33434898  0.32998189  0.48041956  1
  Zr  Zr26  1  0.16830525  0.67410874  0.30865735  1
  Zr  Zr27  1  0.66684491  0.67211993  0.31027355  1
  Zr  Zr28  1  0.16877506  0.66428413  0.81249221  1
  Zr  Zr29  1  0.66837873  0.66304873  0.81051932  1
  Ti  Ti30  1  0.49541870  0.97003259  0.35427036  1
  Ti  Ti31  1  0.99500801  0.02098049  0.85702138  1
  Ti  Ti32  1  0.99866282  0.00270023  0.64508477  1
  Ti  Ti33  1  0.49869527  0.99537187  0.65556240  1
  Ti  Ti34  1  0.99957180  0.00332527  0.15535673  1
  Ti  Ti35  1  0.49657066  0.97815565  0.13907739  1
  Ti  Ti36  1  0.34647455  0.33475471  0.98542248  1
  Ti  Ti37  1  0.83922994  0.36062353  0.48210602  1
  Ti  Ti38  1  0.16585679  0.66499327  0.01954217  1
  Ti  Ti39  1  0.66413934  0.63941093  0.02045062  1
  Ti  Ti40  1  0.17215714  0.69802039  0.51666017  1
  Ti  Ti41  1  0.66555088  0.66838483  0.51886498  1
  Si  Si42  1  0.14691733  0.00864684  0.24959797  1
  Si  Si43  1  0.63646983  0.00225818  0.25024480  1
  Si  Si44  1  0.35864675  0.71624478  0.24726433  1
  Si  Si45  1  0.85392826  0.71040062  0.24778982  1
  Si  Si46  1  0.99976051  0.28971101  0.24949624  1
  Si  Si47  1  0.13675482  0.27351421  0.75134075  1
  Si  Si48  1  0.64411377  0.28500769  0.75008342  1
  Si  Si49  1  0.50030896  0.71010677  0.74964121  1
  Si  Si50  1  0.35343245  0.99577142  0.74820054  1
  Si  Si51  1  0.85876242  0.99914215  0.74789896  1
  Si  Si52  1  0.18267796  0.03757761  0.58275216  1
  Si  Si53  1  0.83207381  0.63486958  0.58265205  1
  Si  Si54  1  0.48447724  0.62464300  0.08250275  1
  Si  Si55  1  0.33169942  0.03233516  0.08241150  1
  Si  Si56  1  0.68286598  0.32662832  0.08306957  1
  Si  Si57  1  0.81470183  0.67792788  0.91770311  1
  Si  Si58  1  0.02366707  0.38066849  0.91762308  1
  Si  Si59  1  0.51833285  0.37525284  0.91730098  1
  Si  Si60  1  0.31734558  0.95762460  0.41519503  1
  Si  Si61  1  0.01990282  0.66296800  0.41771476  1
  Si  Si62  1  0.52364270  0.66954469  0.41736231  1
  S  S63  1  0.49960848  0.27987350  0.25104050  1
  S  S64  1  0.00028974  0.71829329  0.74967898  1
  S  S65  1  0.48384080  0.33393770  0.58336885  1
  S  S66  1  0.97995095  0.33588230  0.58128631  1
  S  S67  1  0.68649818  0.04000350  0.57979187  1
  S  S68  1  0.33397672  0.63383934  0.58278466  1
  S  S69  1  0.98386384  0.63377993  0.08358659  1
  S  S70  1  0.83569504  0.03631973  0.08301133  1
  S  S71  1  0.18540169  0.33197446  0.07978662  1
  S  S72  1  0.30951646  0.65960319  0.92059112  1
  S  S73  1  0.16738346  0.95848132  0.91876777  1
  S  S74  1  0.66609063  0.95373890  0.91880998  1
  S  S75  1  0.80957952  0.95976664  0.42071145  1
  S  S76  1  0.16577752  0.38007451  0.41957711  1
  S  S77  1  0.66825044  0.37800471  0.41960998  1
  O  O78  1  0.10434162  0.02931484  0.31047996  1
  O  O79  1  0.59215834  0.02618366  0.30958393  1
  O  O80  1  0.41891421  0.80675522  0.30676521  1
  O  O81  1  0.91309125  0.79152185  0.30617010  1
  O  O82  1  0.48892682  0.18140546  0.30465525  1
  O  O83  1  0.98346743  0.17319287  0.30788058  1
  O  O84  1  0.09089968  0.15614420  0.80896681  1
  O  O85  1  0.60442697  0.17828743  0.81009985  1
  O  O86  1  0.48355112  0.79412624  0.80725800  1
  O  O87  1  0.98671368  0.79135998  0.80286703  1
  O  O88  1  0.41308971  0.03402230  0.80574530  1
  O  O89  1  0.91955289  0.03380383  0.80648003  1
  O  O90  1  0.40338959  0.97111851  0.69154078  1
  O  O91  1  0.90741594  0.97460440  0.69126786  1
  O  O92  1  0.07754844  0.18390386  0.69310934  1
  O  O93  1  0.58103302  0.18587578  0.69339944  1
  O  O94  1  0.01193080  0.81857770  0.69603707  1
  O  O95  1  0.51199129  0.83486800  0.69236111  1
  O  O96  1  0.40647361  0.83820833  0.19140381  1
  O  O97  1  0.90393295  0.83594455  0.19164078  1
  O  O98  1  0.01205987  0.18931611  0.19279319  1
  O  O99  1  0.51222898  0.20762536  0.19751079  1
  O  O100  1  0.08119052  0.97685049  0.19402699  1
  O  O101  1  0.57761051  0.96729095  0.19300740  1
  O  O102  1  0.44705840  0.36518450  0.63618982  1
  O  O103  1  0.94176254  0.36106478  0.63548597  1
  O  O104  1  0.24724452  0.12686050  0.63733165  1
  O  O105  1  0.73888872  0.11396928  0.63395117  1
  O  O106  1  0.32241509  0.52675197  0.63511437  1
  O  O107  1  0.81507823  0.50466716  0.63716520  1
  O  O108  1  0.44189612  0.51177573  0.14162446  1
  O  O109  1  0.94704567  0.52915936  0.13652362  1
  O  O110  1  0.30981284  0.11618693  0.13832047  1
  O  O111  1  0.82469190  0.12189977  0.13529719  1
  O  O112  1  0.23773152  0.36332922  0.13386501  1
  O  O113  1  0.74823538  0.36637259  0.13736770  1
  O  O114  1  0.22868546  0.30980298  0.02861684  1
  O  O115  1  0.72673819  0.29858552  0.02415945  1
  O  O116  1  0.41710154  0.52195961  0.02764991  1
  O  O117  1  0.92858350  0.54605472  0.03206396  1
  O  O118  1  0.34454904  0.16314551  0.02670025  1
  O  O119  1  0.84872975  0.14673523  0.03104471  1
  O  O120  1  0.22550031  0.15183518  0.52378512  1
  O  O121  1  0.73185266  0.15023856  0.52917629  1
  O  O122  1  0.34709509  0.55024104  0.53086294  1
  O  O123  1  0.84458372  0.52633446  0.52682802  1
  O  O124  1  0.42829344  0.31108387  0.53198825  1
  O  O125  1  0.92199133  0.31164796  0.53074672  1
  O  O126  1  0.26624528  0.68614165  0.97126655  1
  O  O127  1  0.76481359  0.69912428  0.97431195  1
  O  O128  1  0.08754493  0.48778278  0.97243433  1
  O  O129  1  0.58464013  0.47554471  0.97184163  1
  O  O130  1  0.15711614  0.84519926  0.96984514  1
  O  O131  1  0.65679742  0.85086498  0.97099736  1
  O  O132  1  0.26661985  0.83735557  0.47388233  1
  O  O133  1  0.76581895  0.84529259  0.47186818  1
  O  O134  1  0.15693037  0.46536079  0.47212682  1
  O  O135  1  0.65877576  0.47036164  0.47094747  1
  O  O136  1  0.08587279  0.68953614  0.47273157  1
  O  O137  1  0.58750706  0.68711628  0.47294132  1
  O  O138  1  0.05649541  0.62865635  0.35793362  1
  O  O139  1  0.56609638  0.63739067  0.35965145  1
  O  O140  1  0.24952173  0.86949457  0.36222155  1
  O  O141  1  0.75978593  0.87981878  0.36678127  1
  O  O142  1  0.17729693  0.47806697  0.36589897  1
  O  O143  1  0.68598820  0.48471231  0.36649385  1
  O  O144  1  0.06483074  0.49178776  0.85790331  1
  O  O145  1  0.55797098  0.48381148  0.85696403  1
  O  O146  1  0.18216834  0.87946426  0.86526687  1
  O  O147  1  0.67782094  0.87846833  0.86461413  1
  O  O148  1  0.25973652  0.64273299  0.86599939  1
  O  O149  1  0.75111862  0.63173562  0.86133769  1
  O  O150  1  0.01418869  0.84085404  0.41836744  1
  O  O151  1  0.51823209  0.84747147  0.41300040  1
  O  O152  1  0.41303985  0.98391545  0.40915004  1
  O  O153  1  0.89586222  0.97566207  0.41695099  1
  O  O154  1  0.08939357  0.20222461  0.41645795  1
  O  O155  1  0.59073245  0.20858187  0.41494769  1
  O  O156  1  0.01804873  0.19060664  0.91268653  1
  O  O157  1  0.51423150  0.18701747  0.91645369  1
  O  O158  1  0.08745771  0.96679729  0.91325813  1
  O  O159  1  0.58990506  0.97863620  0.91479719  1
  O  O160  1  0.39565403  0.81543270  0.91605609  1
  O  O161  1  0.91169189  0.84175003  0.90756213  1
  O  O162  1  0.49280326  0.17814320  0.58733506  1
  O  O163  1  0.98535196  0.17470055  0.58556285  1
  O  O164  1  0.08763591  0.01547183  0.59396839  1
  O  O165  1  0.60037611  0.02250678  0.58614144  1
  O  O166  1  0.41174101  0.80787784  0.58807537  1
  O  O167  1  0.91813311  0.82117022  0.58961571  1
  O  O168  1  0.48796462  0.81121151  0.08674086  1
  O  O169  1  0.99268775  0.80750262  0.08756317  1
  O  O170  1  0.41711899  0.01720897  0.08953625  1
  O  O171  1  0.91412365  0.01982324  0.08845012  1
  O  O172  1  0.09868553  0.17803779  0.08676698  1
  O  O173  1  0.58816475  0.16165584  0.09371672  1
  O  O174  1  0.35214421  0.17570894  0.74134899  1
  O  O175  1  0.85788567  0.18245076  0.74074840  1
  O  O176  1  0.23416082  0.30652117  0.74688480  1
  O  O177  1  0.73947844  0.30618392  0.74426749  1
  O  O178  1  0.41794499  0.51840033  0.73956763  1
  O  O179  1  0.92523344  0.53647168  0.74256146  1
  O  O180  1  0.35536662  0.52912917  0.24450384  1
  O  O181  1  0.85260371  0.52801080  0.24160950  1
  O  O182  1  0.42386197  0.31003459  0.24674243  1
  O  O183  1  0.91791434  0.31821425  0.24064936  1
  O  O184  1  0.24159265  0.17622137  0.24488887  1
  O  O185  1  0.73473900  0.16359614  0.24807664  1
  O  O186  1  0.31504346  0.50068965  0.92591121  1
  O  O187  1  0.82027809  0.49817659  0.92477284  1
  O  O188  1  0.42213094  0.35486757  0.92639714  1
  O  O189  1  0.92711349  0.34956530  0.92565117  1
  O  O190  1  0.24343791  0.13251977  0.92572773  1
  O  O191  1  0.74362992  0.13233552  0.92231965  1
  O  O192  1  0.32010438  0.14406717  0.42479174  1
  O  O193  1  0.81678188  0.13082421  0.42832102  1
  O  O194  1  0.24317427  0.35632707  0.42374127  1
  O  O195  1  0.74596271  0.35535591  0.42864118  1
  O  O196  1  0.42756082  0.50600808  0.42712346  1
  O  O197  1  0.92357392  0.48973795  0.43005434  1
  O  O198  1  0.17696294  0.49170381  0.07328727  1
  O  O199  1  0.67740061  0.50517022  0.07557916  1
  O  O200  1  0.07075436  0.65061246  0.07427480  1
  O  O201  1  0.58044864  0.65438732  0.06999958  1
  O  O202  1  0.24604023  0.84239436  0.06682482  1
  O  O203  1  0.75681033  0.86633375  0.07726795  1
  O  O204  1  0.17432871  0.84343551  0.57451427  1
  O  O205  1  0.67822401  0.86432633  0.57347888  1
  O  O206  1  0.25422045  0.64517551  0.57637483  1
  O  O207  1  0.74605048  0.64934355  0.56769714  1
  O  O208  1  0.06679689  0.48697152  0.57368326  1
  O  O209  1  0.57088196  0.49116906  0.57382000  1
  O  O210  1  0.14706804  0.82567317  0.25094816  1
  O  O211  1  0.64513323  0.82521931  0.25707549  1
  O  O212  1  0.26359532  0.69256053  0.25509327  1
  O  O213  1  0.75927746  0.68937744  0.25349720  1
  O  O214  1  0.08530775  0.47933325  0.25189129  1
  O  O215  1  0.57735224  0.46164415  0.25692710  1
  O  O216  1  0.14406304  0.46640793  0.75568597  1
  O  O217  1  0.64760411  0.47031356  0.75045774  1
  O  O218  1  0.07768635  0.69455304  0.75442645  1
  O  O219  1  0.58558453  0.69089192  0.75134509  1
  O  O220  1  0.25837107  0.82808929  0.75244280  1
  O  O221  1  0.76348070  0.83537359  0.75378648  1
