# generated using pymatgen
data_Na3TaGaSi2PO12
_symmetry_space_group_name_H-M   'P 1'
_cell_length_a   8.92119452
_cell_length_b   8.92119421
_cell_length_c   22.29825504
_cell_angle_alpha   89.22306333
_cell_angle_beta   90.77693666
_cell_angle_gamma   119.56059774
_symmetry_Int_Tables_number   1
_chemical_formula_structural   Na3TaGaSi2PO12
_chemical_formula_sum   'Na18 Ta6 Ga6 Si12 P6 O72'
_cell_volume   1543.47637112
_cell_formula_units_Z   6
loop_
 _symmetry_equiv_pos_site_id
 _symmetry_equiv_pos_as_xyz
  1  'x, y, z'
loop_
 _atom_site_type_symbol
 _atom_site_label
 _atom_site_symmetry_multiplicity
 _atom_site_fract_x
 _atom_site_fract_y
 _atom_site_fract_z
 _atom_site_occupancy
  Na  Na0  1  0.99793138  0.99584381  0.49505112  1
  Na  Na1  1  0.00415619  0.00206862  0.99505112  1
  Na  Na2  1  0.66459838  0.32917681  0.82838412  1
  Na  Na3  1  0.67082319  0.33540162  0.32838412  1
  Na  Na4  1  0.33126438  0.66251081  0.16171812  1
  Na  Na5  1  0.33748919  0.66873562  0.66171812  1
  Na  Na6  1  0.64255040  0.00949783  0.24930740  1
  Na  Na7  1  0.98965805  0.62675411  0.24864596  1
  Na  Na8  1  0.99050217  0.35744960  0.74930740  1
  Na  Na9  1  0.37324589  0.01034195  0.74864596  1
  Na  Na10  1  0.30921740  0.34283083  0.58264040  1
  Na  Na11  1  0.65632505  0.96008711  0.58197896  1
  Na  Na12  1  0.65716917  0.69078260  0.08264040  1
  Na  Na13  1  0.03991289  0.34367495  0.08197896  1
  Na  Na14  1  0.97588340  0.67616483  0.91597440  1
  Na  Na15  1  0.32299105  0.29342111  0.91531296  1
  Na  Na16  1  0.32383517  0.02411660  0.41597440  1
  Na  Na17  1  0.70657889  0.67700895  0.41531296  1
  Ta  Ta18  1  0.99734346  0.99523896  0.64621921  1
  Ta  Ta19  1  0.00476104  0.00265654  0.14621921  1
  Ta  Ta20  1  0.66401046  0.32857196  0.97955221  1
  Ta  Ta21  1  0.67142804  0.33598954  0.47955221  1
  Ta  Ta22  1  0.33067646  0.66190596  0.31288621  1
  Ta  Ta23  1  0.33809404  0.66932354  0.81288621  1
  Ga  Ga24  1  0.98638124  0.99452865  0.35171016  1
  Ga  Ga25  1  0.00547135  0.01361876  0.85171016  1
  Ga  Ga26  1  0.65304824  0.32786165  0.68504316  1
  Ga  Ga27  1  0.67213835  0.34695176  0.18504316  1
  Ga  Ga28  1  0.31971424  0.66119565  0.01837716  1
  Ga  Ga29  1  0.33880435  0.68028576  0.51837716  1
  Si  Si30  1  0.70869999  0.70460265  0.25101515  1
  Si  Si31  1  0.99734728  0.28735373  0.25081289  1
  Si  Si32  1  0.29539735  0.29130001  0.75101515  1
  Si  Si33  1  0.71264627  0.00265272  0.75081289  1
  Si  Si34  1  0.37536699  0.03793565  0.58434815  1
  Si  Si35  1  0.66401428  0.62068673  0.58414589  1
  Si  Si36  1  0.96206435  0.62463301  0.08434815  1
  Si  Si37  1  0.37931327  0.33598572  0.08414589  1
  Si  Si38  1  0.04203299  0.37126965  0.91768215  1
  Si  Si39  1  0.33068028  0.95402073  0.91747989  1
  Si  Si40  1  0.62873035  0.95796701  0.41768215  1
  Si  Si41  1  0.04597927  0.66931972  0.41747989  1
  P  P42  1  0.29297565  0.00708597  0.25290673  1
  P  P43  1  0.99291403  0.70702435  0.75290673  1
  P  P44  1  0.95964265  0.34041897  0.58623973  1
  P  P45  1  0.65958103  0.04035735  0.08623973  1
  P  P46  1  0.62630865  0.67375297  0.91957373  1
  P  P47  1  0.32624703  0.37369135  0.41957373  1
  O  O48  1  0.21091766  0.02939320  0.30899496  1
  O  O49  1  0.82938480  0.78857069  0.30964820  1
  O  O50  1  0.96394158  0.16244388  0.30740041  1
  O  O51  1  0.21142931  0.17061520  0.80964820  1
  O  O52  1  0.97060680  0.78908234  0.80899496  1
  O  O53  1  0.83755612  0.03605842  0.80740041  1
  O  O54  1  0.79950611  0.96905818  0.69018493  1
  O  O55  1  0.16515778  0.19954801  0.69170996  1
  O  O56  1  0.03017625  0.83072543  0.69676134  1
  O  O57  1  0.80045199  0.83484222  0.19170996  1
  O  O58  1  0.03094182  0.20049389  0.19018493  1
  O  O59  1  0.16927457  0.96982375  0.19676134  1
  O  O60  1  0.87758466  0.36272620  0.64232796  1
  O  O61  1  0.49605180  0.12190369  0.64298120  1
  O  O62  1  0.63060858  0.49577688  0.64073341  1
  O  O63  1  0.87809631  0.50394820  0.14298120  1
  O  O64  1  0.63727380  0.12241534  0.14232796  1
  O  O65  1  0.50422312  0.36939142  0.14073341  1
  O  O66  1  0.46617311  0.30239118  0.02351793  1
  O  O67  1  0.83182478  0.53288101  0.02504296  1
  O  O68  1  0.69684325  0.16405843  0.03009434  1
  O  O69  1  0.46711899  0.16817522  0.52504296  1
  O  O70  1  0.69760882  0.53382689  0.52351793  1
  O  O71  1  0.83594157  0.30315675  0.53009434  1
  O  O72  1  0.54425066  0.69606020  0.97566196  1
  O  O73  1  0.16271780  0.45523769  0.97631520  1
  O  O74  1  0.29727458  0.82911088  0.97406741  1
  O  O75  1  0.54476231  0.83728220  0.47631520  1
  O  O76  1  0.30393980  0.45574934  0.47566196  1
  O  O77  1  0.17088912  0.70272542  0.47406741  1
  O  O78  1  0.13283911  0.63572518  0.35685193  1
  O  O79  1  0.49849078  0.86621501  0.35837696  1
  O  O80  1  0.36350925  0.49739243  0.36342834  1
  O  O81  1  0.13378499  0.50150922  0.85837696  1
  O  O82  1  0.36427482  0.86716089  0.85685193  1
  O  O83  1  0.50260757  0.63649075  0.86342834  1
  O  O84  1  0.02651086  0.84145315  0.40990066  1
  O  O85  1  0.81618447  0.97414603  0.41108281  1
  O  O86  1  0.17787762  0.19116352  0.41031237  1
  O  O87  1  0.02585397  0.18381553  0.91108281  1
  O  O88  1  0.15854685  0.97348914  0.90990066  1
  O  O89  1  0.80883648  0.82212238  0.91031237  1
  O  O90  1  0.96938067  0.16691649  0.58901712  1
  O  O91  1  0.18723637  0.03303613  0.58992761  1
  O  O92  1  0.83526603  0.81706727  0.58939101  1
  O  O93  1  0.96696387  0.81276363  0.08992761  1
  O  O94  1  0.83308351  0.03061933  0.08901712  1
  O  O95  1  0.18293273  0.16473397  0.08939101  1
  O  O96  1  0.69317786  0.17478615  0.74323366  1
  O  O97  1  0.48285147  0.30747903  0.74441581  1
  O  O98  1  0.84454462  0.52449652  0.74364537  1
  O  O99  1  0.69252097  0.51714853  0.24441581  1
  O  O100  1  0.82521385  0.30682214  0.24323366  1
  O  O101  1  0.47550348  0.15545538  0.24364537  1
  O  O102  1  0.63604767  0.50024949  0.92235012  1
  O  O103  1  0.85390337  0.36636913  0.92326061  1
  O  O104  1  0.50193303  0.15040027  0.92272401  1
  O  O105  1  0.63363087  0.14609663  0.42326061  1
  O  O106  1  0.49975051  0.36395233  0.42235012  1
  O  O107  1  0.84959973  0.49806697  0.42272401  1
  O  O108  1  0.35984386  0.50812015  0.07656766  1
  O  O109  1  0.14951747  0.64081303  0.07774981  1
  O  O110  1  0.51121062  0.85783052  0.07697937  1
  O  O111  1  0.35918697  0.85048253  0.57774981  1
  O  O112  1  0.49187985  0.64015614  0.57656766  1
  O  O113  1  0.14216948  0.48878938  0.57697937  1
  O  O114  1  0.30271367  0.83358349  0.25568412  1
  O  O115  1  0.52056937  0.69970313  0.25659461  1
  O  O116  1  0.16859903  0.48373427  0.25605801  1
  O  O117  1  0.30029687  0.47943063  0.75659461  1
  O  O118  1  0.16641651  0.69728633  0.75568412  1
  O  O119  1  0.51626573  0.83140097  0.75605801  1
