# generated using pymatgen
data_Na10Ca2Hf6Si7S5O48
_symmetry_space_group_name_H-M   'P 1'
_cell_length_a   18.34825958
_cell_length_b   9.17954338
_cell_length_c   23.11145812
_cell_angle_alpha   89.99287059
_cell_angle_beta   89.94557444
_cell_angle_gamma   119.99438893
_symmetry_Int_Tables_number   1
_chemical_formula_structural   Na10Ca2Hf6Si7S5O48
_chemical_formula_sum   'Na30 Ca6 Hf18 Si21 S15 O144'
_cell_volume   3371.30608972
_cell_formula_units_Z   3
loop_
 _symmetry_equiv_pos_site_id
 _symmetry_equiv_pos_as_xyz
  1  'x, y, z'
loop_
 _atom_site_type_symbol
 _atom_site_label
 _atom_site_symmetry_multiplicity
 _atom_site_fract_x
 _atom_site_fract_y
 _atom_site_fract_z
 _atom_site_occupancy
  Na  Na0  1  0.81630821  0.01143523  0.24953883  1
  Na  Na1  1  0.18911100  0.38031642  0.24753956  1
  Na  Na2  1  0.69091759  0.36180380  0.25495378  1
  Na  Na3  1  0.99094675  0.61064595  0.25475621  1
  Na  Na4  1  0.49484899  0.63922065  0.24416874  1
  Na  Na5  1  0.31761371  0.62125548  0.75026235  1
  Na  Na6  1  0.99488444  0.34958226  0.74614264  1
  Na  Na7  1  0.49088620  0.37441940  0.75441317  1
  Na  Na8  1  0.19327710  0.02369460  0.74726729  1
  Na  Na9  1  0.68859298  0.99551463  0.74830962  1
  Na  Na10  1  0.14862005  0.32696215  0.57972735  1
  Na  Na11  1  0.01677194  0.69042529  0.58355669  1
  Na  Na12  1  0.48969346  0.66512649  0.91790626  1
  Na  Na13  1  0.99576888  0.68139185  0.92150472  1
  Na  Na14  1  0.84760647  0.02193439  0.91336401  1
  Na  Na15  1  0.49611019  0.31339198  0.42105918  1
  Na  Na16  1  0.16325344  0.02211989  0.42006123  1
  Na  Na17  1  0.34883007  0.66931116  0.41241206  1
  Na  Na18  1  0.99687962  0.00386115  0.50036669  1
  Na  Na19  1  0.51424717  0.01096135  0.49421584  1
  Na  Na20  1  0.01241934  0.01585203  0.99465444  1
  Na  Na21  1  0.50453767  0.01308478  0.00125375  1
  Na  Na22  1  0.32738072  0.31527678  0.82949090  1
  Na  Na23  1  0.83147038  0.33071875  0.83250781  1
  Na  Na24  1  0.33772999  0.34454686  0.33223777  1
  Na  Na25  1  0.83100234  0.33823643  0.33063075  1
  Na  Na26  1  0.17520066  0.67048173  0.16478559  1
  Na  Na27  1  0.65976389  0.67187757  0.16238242  1
  Na  Na28  1  0.16976241  0.67816880  0.66365913  1
  Na  Na29  1  0.67368124  0.68020545  0.66515555  1
  Ca  Ca30  1  0.33076881  0.32578921  0.68489024  1
  Ca  Ca31  1  0.83795524  0.33125008  0.68233769  1
  Ca  Ca32  1  0.33978937  0.34506930  0.18145095  1
  Ca  Ca33  1  0.83201659  0.33103249  0.18513279  1
  Ca  Ca34  1  0.16425668  0.66754535  0.01593318  1
  Ca  Ca35  1  0.66331174  0.66142390  0.51551942  1
  Hf  Hf36  1  0.99598798  0.99833928  0.35464194  1
  Hf  Hf37  1  0.50228166  0.99095460  0.35446662  1
  Hf  Hf38  1  0.00122569  0.01268642  0.85470018  1
  Hf  Hf39  1  0.49930132  0.00337183  0.85478582  1
  Hf  Hf40  1  0.99855769  0.01803828  0.64626737  1
  Hf  Hf41  1  0.49616544  0.98919839  0.64929544  1
  Hf  Hf42  1  0.99531377  0.00452758  0.14833794  1
  Hf  Hf43  1  0.49561151  0.97146970  0.14619458  1
  Hf  Hf44  1  0.33624221  0.32502463  0.98110588  1
  Hf  Hf45  1  0.83184822  0.33688077  0.97728183  1
  Hf  Hf46  1  0.33016067  0.32387747  0.47969635  1
  Hf  Hf47  1  0.83575695  0.33971904  0.47803981  1
  Hf  Hf48  1  0.66114548  0.66040356  0.01375010  1
  Hf  Hf49  1  0.16394866  0.66978541  0.51367354  1
  Hf  Hf50  1  0.16874676  0.66287493  0.31744939  1
  Hf  Hf51  1  0.66552798  0.66245983  0.31752074  1
  Hf  Hf52  1  0.16580581  0.67013215  0.81763162  1
  Hf  Hf53  1  0.67039521  0.67605765  0.81759996  1
  Si  Si54  1  0.64332054  0.99140797  0.25043348  1
  Si  Si55  1  0.35060173  0.70959945  0.25236730  1
  Si  Si56  1  0.85296228  0.71394401  0.25142877  1
  Si  Si57  1  0.00432890  0.29499413  0.25139836  1
  Si  Si58  1  0.14393513  0.29768315  0.75048487  1
  Si  Si59  1  0.50423967  0.71387132  0.75285070  1
  Si  Si60  1  0.35317748  0.99236124  0.75182446  1
  Si  Si61  1  0.85081006  0.99061093  0.75186842  1
  Si  Si62  1  0.98247383  0.33725084  0.58267424  1
  Si  Si63  1  0.18222067  0.02868564  0.58507602  1
  Si  Si64  1  0.48511690  0.63140410  0.08251597  1
  Si  Si65  1  0.81147932  0.66651651  0.91755671  1
  Si  Si66  1  0.01932485  0.37264029  0.91752341  1
  Si  Si67  1  0.51986479  0.37192854  0.91452029  1
  Si  Si68  1  0.16815962  0.96854017  0.91569003  1
  Si  Si69  1  0.66551906  0.96031239  0.91707241  1
  Si  Si70  1  0.31275311  0.95778456  0.41617849  1
  Si  Si71  1  0.16545919  0.37082431  0.41842541  1
  Si  Si72  1  0.66776663  0.36807981  0.41555912  1
  Si  Si73  1  0.01805226  0.66361015  0.41375571  1
  Si  Si74  1  0.51840728  0.66506386  0.41750689  1
  S  S75  1  0.14071644  0.99458955  0.25045009  1
  S  S76  1  0.50204803  0.28857613  0.25161109  1
  S  S77  1  0.64081308  0.28754789  0.75016778  1
  S  S78  1  0.00156010  0.71352700  0.75146452  1
  S  S79  1  0.48168056  0.32569192  0.58467152  1
  S  S80  1  0.68235662  0.03984829  0.58451508  1
  S  S81  1  0.33590140  0.63569643  0.58169847  1
  S  S82  1  0.83427609  0.62799064  0.58397522  1
  S  S83  1  0.98069357  0.63642343  0.08456182  1
  S  S84  1  0.33705094  0.03989647  0.08462780  1
  S  S85  1  0.83423561  0.03361960  0.08185804  1
  S  S86  1  0.18272928  0.32448417  0.08466917  1
  S  S87  1  0.68370360  0.33428276  0.08292693  1
  S  S88  1  0.31489906  0.66423635  0.91568038  1
  S  S89  1  0.81424185  0.96504031  0.41608398  1
  O  O90  1  0.10150980  0.01600103  0.30383622  1
  O  O91  1  0.59543007  0.01974348  0.30448299  1
  O  O92  1  0.40799462  0.80599804  0.30819352  1
  O  O93  1  0.91462537  0.81132043  0.30612919  1
  O  O94  1  0.49361977  0.19277725  0.30478684  1
  O  O95  1  0.99755477  0.17586519  0.30571621  1
  O  O96  1  0.09237458  0.16873827  0.80261525  1
  O  O97  1  0.60031038  0.18350982  0.80236431  1
  O  O98  1  0.49804719  0.81442789  0.80911565  1
  O  O99  1  0.99323523  0.79567745  0.80370907  1
  O  O100  1  0.41457011  0.01169075  0.80586436  1
  O  O101  1  0.90744593  0.00989317  0.80829341  1
  O  O102  1  0.40181397  0.96864140  0.69433010  1
  O  O103  1  0.90107948  0.97807974  0.69427834  1
  O  O104  1  0.08746277  0.20912815  0.69069884  1
  O  O105  1  0.58850648  0.20412045  0.69790610  1
  O  O106  1  0.01137346  0.81201422  0.69825265  1
  O  O107  1  0.51809928  0.83888102  0.69584423  1
  O  O108  1  0.39997482  0.82146816  0.19397712  1
  O  O109  1  0.90201633  0.83727948  0.19454130  1
  O  O110  1  0.01843330  0.20136771  0.19370715  1
  O  O111  1  0.51277106  0.20750734  0.19973484  1
  O  O112  1  0.08730693  0.97411269  0.19892915  1
  O  O113  1  0.58372417  0.96724655  0.19317225  1
  O  O114  1  0.44199926  0.34308973  0.63744215  1
  O  O115  1  0.95572231  0.38582135  0.64293842  1
  O  O116  1  0.22983259  0.09900484  0.64504010  1
  O  O117  1  0.72669464  0.11605489  0.63927442  1
  O  O118  1  0.32318715  0.53851826  0.63497811  1
  O  O119  1  0.82300599  0.53060874  0.63651342  1
  O  O120  1  0.45299795  0.54180005  0.14436633  1
  O  O121  1  0.93979153  0.54021257  0.13735343  1
  O  O122  1  0.32489870  0.11511529  0.13667657  1
  O  O123  1  0.82308212  0.10433481  0.13565973  1
  O  O124  1  0.22656546  0.33685916  0.13963964  1
  O  O125  1  0.72917400  0.35796625  0.13743074  1
  O  O126  1  0.22933791  0.30803818  0.03446571  1
  O  O127  1  0.73076757  0.31190406  0.03384817  1
  O  O128  1  0.42141307  0.52714809  0.02731946  1
  O  O129  1  0.92792324  0.54690626  0.03237714  1
  O  O130  1  0.34412406  0.14598799  0.03223095  1
  O  O131  1  0.84447262  0.14267548  0.03115163  1
  O  O132  1  0.23153709  0.16073075  0.52955365  1
  O  O133  1  0.72801932  0.14827328  0.53398962  1
  O  O134  1  0.34736589  0.55069415  0.53047855  1
  O  O135  1  0.84393362  0.53879655  0.53221643  1
  O  O136  1  0.42913306  0.30953555  0.53229926  1
  O  O137  1  0.91763979  0.31665442  0.52993223  1
  O  O138  1  0.28023164  0.69393730  0.96737750  1
  O  O139  1  0.76862988  0.70531389  0.97236232  1
  O  O140  1  0.07424607  0.44461234  0.97340304  1
  O  O141  1  0.58016128  0.46633956  0.96976433  1
  O  O142  1  0.14349719  0.84583836  0.96981233  1
  O  O143  1  0.64896596  0.83166400  0.96982603  1
  O  O144  1  0.26888231  0.83231967  0.47081276  1
  O  O145  1  0.77979216  0.86606758  0.46783504  1
  O  O146  1  0.15455941  0.45914276  0.47568153  1
  O  O147  1  0.64381240  0.44229096  0.46969893  1
  O  O148  1  0.07978247  0.69879703  0.46993762  1
  O  O149  1  0.57372619  0.70490222  0.47339650  1
  O  O150  1  0.06238975  0.63930344  0.35573897  1
  O  O151  1  0.56263570  0.63096855  0.35932069  1
  O  O152  1  0.24891929  0.87346947  0.36102372  1
  O  O153  1  0.76210437  0.88170736  0.36318972  1
  O  O154  1  0.18425178  0.49404212  0.36154478  1
  O  O155  1  0.68241835  0.48817614  0.35643461  1
  O  O156  1  0.06190062  0.49493732  0.85934937  1
  O  O157  1  0.56117591  0.49115879  0.85666648  1
  O  O158  1  0.18266352  0.87673539  0.85685640  1
  O  O159  1  0.68629479  0.88225680  0.85879140  1
  O  O160  1  0.26276644  0.64332440  0.86288189  1
  O  O161  1  0.75182877  0.63398042  0.86077597  1
  O  O162  1  0.01352734  0.83754584  0.40856909  1
  O  O163  1  0.49688774  0.81703228  0.40805346  1
  O  O164  1  0.40723206  0.98868132  0.40863251  1
  O  O165  1  0.90058560  0.98933438  0.40774275  1
  O  O166  1  0.08768622  0.17912376  0.41008498  1
  O  O167  1  0.58184821  0.18581690  0.40441168  1
  O  O168  1  0.99669036  0.17736254  0.90810212  1
  O  O169  1  0.50798127  0.18461481  0.90922632  1
  O  O170  1  0.08254318  0.98000732  0.90395150  1
  O  O171  1  0.58064846  0.97327811  0.91073331  1
  O  O172  1  0.40224228  0.81147810  0.90751555  1
  O  O173  1  0.90674855  0.82644198  0.90922676  1
  O  O174  1  0.48725686  0.16756589  0.58770572  1
  O  O175  1  0.99066455  0.16463887  0.58572515  1
  O  O176  1  0.08616760  0.00785322  0.58809086  1
  O  O177  1  0.59679834  0.02783694  0.58688315  1
  O  O178  1  0.41309991  0.80603340  0.58627140  1
  O  O179  1  0.91704615  0.79168045  0.58712259  1
  O  O180  1  0.49054586  0.82026507  0.08418947  1
  O  O181  1  0.98677765  0.80601806  0.08742161  1
  O  O182  1  0.41817204  0.03806767  0.08726244  1
  O  O183  1  0.91400825  0.02342868  0.08562771  1
  O  O184  1  0.09738348  0.16525248  0.08648179  1
  O  O185  1  0.59834849  0.18268175  0.08573348  1
  O  O186  1  0.34518178  0.15880328  0.75098408  1
  O  O187  1  0.84041735  0.15835291  0.75145797  1
  O  O188  1  0.23745408  0.32481965  0.74942713  1
  O  O189  1  0.72443974  0.30324376  0.74578054  1
  O  O190  1  0.42014095  0.53312310  0.74907505  1
  O  O191  1  0.92919938  0.54067347  0.74942968  1
  O  O192  1  0.33995560  0.52132436  0.25222227  1
  O  O193  1  0.84252406  0.52917743  0.24805730  1
  O  O194  1  0.42988267  0.31721490  0.24905668  1
  O  O195  1  0.92012671  0.30786347  0.24848790  1
  O  O196  1  0.22436471  0.14601262  0.24567674  1
  O  O197  1  0.73641829  0.15331887  0.24767564  1
  O  O198  1  0.32487997  0.51266058  0.91971998  1
  O  O199  1  0.82449305  0.50224033  0.92791085  1
  O  O200  1  0.42787253  0.36285255  0.92489066  1
  O  O201  1  0.92405279  0.35796609  0.92511980  1
  O  O202  1  0.25140323  0.15697377  0.92461645  1
  O  O203  1  0.75121709  0.14286436  0.92848615  1
  O  O204  1  0.32064211  0.14372651  0.42674061  1
  O  O205  1  0.82202416  0.13413029  0.42025808  1
  O  O206  1  0.25262688  0.35806821  0.42559238  1
  O  O207  1  0.75021153  0.34373011  0.42410425  1
  O  O208  1  0.42422099  0.48974412  0.42410708  1
  O  O209  1  0.92515114  0.49869829  0.42489125  1
  O  O210  1  0.17264080  0.47297498  0.07995721  1
  O  O211  1  0.67643898  0.48665200  0.07335275  1
  O  O212  1  0.06525164  0.65752691  0.08111404  1
  O  O213  1  0.58045389  0.65887417  0.07362730  1
  O  O214  1  0.26617201  0.86844228  0.07813225  1
  O  O215  1  0.76129355  0.86268313  0.07443534  1
  O  O216  1  0.16779950  0.83898077  0.57363674  1
  O  O217  1  0.67248984  0.87140407  0.58027102  1
  O  O218  1  0.25981961  0.65167544  0.57452719  1
  O  O219  1  0.76471898  0.66097537  0.57754252  1
  O  O220  1  0.07952648  0.49422321  0.57210897  1
  O  O221  1  0.56674043  0.47259446  0.58075909  1
  O  O222  1  0.14517423  0.83762740  0.25391602  1
  O  O223  1  0.64855811  0.81708632  0.25696291  1
  O  O224  1  0.25629553  0.69005524  0.25515590  1
  O  O225  1  0.76083666  0.70447644  0.25683460  1
  O  O226  1  0.08876784  0.48306239  0.25537929  1
  O  O227  1  0.58205559  0.46033455  0.25528358  1
  O  O228  1  0.14774252  0.48102305  0.75750144  1
  O  O229  1  0.64486108  0.45242016  0.75469453  1
  O  O230  1  0.08155424  0.70306453  0.75511310  1
  O  O231  1  0.58893103  0.69474922  0.75522678  1
  O  O232  1  0.26055782  0.81790270  0.75651419  1
  O  O233  1  0.75619341  0.82233067  0.75428985  1
