# generated using pymatgen
data_Na10Nb7In(SiO4)12
_symmetry_space_group_name_H-M   'P 1'
_cell_length_a   18.15058282
_cell_length_b   9.08083919
_cell_length_c   22.75930313
_cell_angle_alpha   90.00511198
_cell_angle_beta   89.99578190
_cell_angle_gamma   120.04015576
_symmetry_Int_Tables_number   1
_chemical_formula_structural   Na10Nb7In(SiO4)12
_chemical_formula_sum   'Na30 Nb21 In3 Si36 O144'
_cell_volume   3247.35880084
_cell_formula_units_Z   3
loop_
 _symmetry_equiv_pos_site_id
 _symmetry_equiv_pos_as_xyz
  1  'x, y, z'
loop_
 _atom_site_type_symbol
 _atom_site_label
 _atom_site_symmetry_multiplicity
 _atom_site_fract_x
 _atom_site_fract_y
 _atom_site_fract_z
 _atom_site_occupancy
  Na  Na0  1  0.81619328  0.00768718  0.24800851  1
  Na  Na1  1  0.18424118  0.36689539  0.24936818  1
  Na  Na2  1  0.68645751  0.36549849  0.24747875  1
  Na  Na3  1  0.99624590  0.62449849  0.24800802  1
  Na  Na4  1  0.31627815  0.62501940  0.74837709  1
  Na  Na5  1  0.81664670  0.62517098  0.74797364  1
  Na  Na6  1  0.99584902  0.36631060  0.74756060  1
  Na  Na7  1  0.49569576  0.36575026  0.74761754  1
  Na  Na8  1  0.18756149  0.00837105  0.74853519  1
  Na  Na9  1  0.68769668  0.00886068  0.74811997  1
  Na  Na10  1  0.15281358  0.33712930  0.58412586  1
  Na  Na11  1  0.65376610  0.33709767  0.58360157  1
  Na  Na12  1  0.33281787  0.97075599  0.58372589  1
  Na  Na13  1  0.83325058  0.97244875  0.58355893  1
  Na  Na14  1  0.65161368  0.96894139  0.08462993  1
  Na  Na15  1  0.83188494  0.69326061  0.08374449  1
  Na  Na16  1  0.01628653  0.33703573  0.08303548  1
  Na  Na17  1  0.48331711  0.29914537  0.41662663  1
  Na  Na18  1  0.99991371  0.99341006  0.49747033  1
  Na  Na19  1  0.50104306  0.98851115  0.49825863  1
  Na  Na20  1  0.00387385  -0.00010892  0.99762992  1
  Na  Na21  1  0.49635392  0.00043467  0.99949998  1
  Na  Na22  1  0.33307195  0.33313587  0.83466178  1
  Na  Na23  1  0.83350311  0.33322001  0.83384555  1
  Na  Na24  1  0.33325158  0.33330387  0.33222831  1
  Na  Na25  1  0.83303266  0.33248518  0.33330953  1
  Na  Na26  1  0.17290504  0.68077204  0.16456132  1
  Na  Na27  1  0.65989658  0.65821598  0.16620310  1
  Na  Na28  1  0.16292901  0.66658288  0.66564310  1
  Na  Na29  1  0.66309803  0.66688203  0.66543836  1
  Nb  Nb30  1  0.00013076  0.00049219  0.35627453  1
  Nb  Nb31  1  0.49909810  0.99555968  0.35374211  1
  Nb  Nb32  1  0.00018276  0.00092255  0.85721737  1
  Nb  Nb33  1  0.49990867  0.99957853  0.85716380  1
  Nb  Nb34  1  0.99979710  0.99570716  0.64571815  1
  Nb  Nb35  1  0.50039655  0.99659928  0.64574148  1
  Nb  Nb36  1  0.00372695  0.00056809  0.14544320  1
  Nb  Nb37  1  0.49634129  0.99855605  0.14491440  1
  Nb  Nb38  1  0.33664531  0.33349931  0.18636647  1
  Nb  Nb39  1  0.33283713  0.33256410  0.97817515  1
  Nb  Nb40  1  0.83352962  0.33416378  0.97785347  1
  Nb  Nb41  1  0.33027968  0.33486445  0.47898211  1
  Nb  Nb42  1  0.83420288  0.33403961  0.47778277  1
  Nb  Nb43  1  0.17058135  0.67404547  0.02028387  1
  Nb  Nb44  1  0.66290812  0.65957225  0.01877879  1
  Nb  Nb45  1  0.16387080  0.66591098  0.51783168  1
  Nb  Nb46  1  0.66539847  0.66857718  0.51827725  1
  Nb  Nb47  1  0.16963637  0.67192332  0.31360097  1
  Nb  Nb48  1  0.66434164  0.66626746  0.31325338  1
  Nb  Nb49  1  0.16677647  0.66646803  0.81602366  1
  Nb  Nb50  1  0.66684629  0.66659388  0.81568546  1
  In  In51  1  0.33393049  0.33421378  0.68396848  1
  In  In52  1  0.83386651  0.33436545  0.68355293  1
  In  In53  1  0.83260578  0.33292494  0.18401058  1
  Si  Si54  1  0.14585445  0.00059165  0.25119414  1
  Si  Si55  1  0.64256660  0.99632216  0.24932806  1
  Si  Si56  1  0.35593040  0.71045827  0.24985401  1
  Si  Si57  1  0.85573603  0.71265848  0.25051984  1
  Si  Si58  1  0.00055211  0.28945429  0.25080057  1
  Si  Si59  1  0.49846541  0.28665241  0.25062459  1
  Si  Si60  1  0.14361918  0.28897538  0.75077065  1
  Si  Si61  1  0.64368620  0.28887723  0.75091064  1
  Si  Si62  1  0.00074423  0.71206732  0.75183882  1
  Si  Si63  1  0.50074098  0.71201123  0.75171918  1
  Si  Si64  1  0.35542507  0.99856678  0.75099439  1
  Si  Si65  1  0.85546265  0.99891910  0.75109595  1
  Si  Si66  1  0.47973767  0.33681788  0.58333891  1
  Si  Si67  1  0.97957916  0.33667648  0.58403679  1
  Si  Si68  1  0.18673499  0.03850050  0.58395811  1
  Si  Si69  1  0.68770542  0.04109177  0.58334738  1
  Si  Si70  1  0.33377099  0.62595701  0.58363995  1
  Si  Si71  1  0.83403803  0.62417754  0.58300853  1
  Si  Si72  1  0.47675387  0.62167878  0.08226869  1
  Si  Si73  1  0.98027360  0.62481177  0.08338274  1
  Si  Si74  1  0.33311171  0.04621116  0.08254000  1
  Si  Si75  1  0.83279734  0.04081816  0.08330276  1
  Si  Si76  1  0.19130075  0.33653164  0.08363223  1
  Si  Si77  1  0.68645848  0.33243308  0.08341270  1
  Si  Si78  1  0.31224404  0.66479475  0.91695952  1
  Si  Si79  1  0.81186036  0.66620338  0.91755290  1
  Si  Si80  1  0.02192060  0.37773560  0.91839623  1
  Si  Si81  1  0.51935421  0.37400386  0.91601443  1
  Si  Si82  1  0.16729719  0.95823956  0.91708563  1
  Si  Si83  1  0.66708353  0.95827283  0.91744941  1
  Si  Si84  1  0.31189310  0.95770862  0.41750592  1
  Si  Si85  1  0.81171611  0.95709683  0.41622546  1
  Si  Si86  1  0.16643704  0.37660388  0.41610258  1
  Si  Si87  1  0.66841386  0.37671025  0.41591505  1
  Si  Si88  1  0.02100723  0.66557075  0.41497623  1
  Si  Si89  1  0.52068969  0.66923385  0.41659837  1
  O  O90  1  0.09895564  0.03243322  0.30689556  1
  O  O91  1  0.59301707  0.02393536  0.30581322  1
  O  O92  1  0.41547301  0.80596066  0.30744716  1
  O  O93  1  0.91903798  0.81236947  0.30597077  1
  O  O94  1  0.48558576  0.17223158  0.30977944  1
  O  O95  1  0.98829314  0.16446829  0.30633235  1
  O  O96  1  0.09427437  0.16382741  0.80616319  1
  O  O97  1  0.59429131  0.16361002  0.80615189  1
  O  O98  1  0.48755496  0.81006906  0.80704484  1
  O  O99  1  0.98754131  0.81061909  0.80706355  1
  O  O100  1  0.41812863  0.02451084  0.80619107  1
  O  O101  1  0.91792384  0.02424374  0.80632997  1
  O  O102  1  0.39980361  0.96656460  0.69151204  1
  O  O103  1  0.89960482  0.96648254  0.69162422  1
  O  O104  1  0.08331791  0.20064312  0.69134390  1
  O  O105  1  0.58332612  0.20105063  0.69140672  1
  O  O106  1  0.01672753  0.83776116  0.69360613  1
  O  O107  1  0.51675815  0.83780314  0.69361458  1
  O  O108  1  0.40245084  0.83283872  0.19293338  1
  O  O109  1  0.90038475  0.83422009  0.19165380  1
  O  O110  1  0.01690624  0.20012715  0.19197626  1
  O  O111  1  0.51624859  0.19454607  0.19437952  1
  O  O112  1  0.08221249  0.96680458  0.19368232  1
  O  O113  1  0.58496759  0.97093435  0.19061840  1
  O  O114  1  0.44625866  0.37153909  0.64416910  1
  O  O115  1  0.94732896  0.37222003  0.64530437  1
  O  O116  1  0.24283063  0.10430157  0.64320808  1
  O  O117  1  0.74252362  0.10347137  0.64346466  1
  O  O118  1  0.30847934  0.51244838  0.64265605  1
  O  O119  1  0.80825071  0.51340849  0.64290295  1
  O  O120  1  0.43074497  0.50098539  0.14032027  1
  O  O121  1  0.94742187  0.51450323  0.14333779  1
  O  O122  1  0.31955524  0.13959104  0.14058414  1
  O  O123  1  0.80901593  0.10411664  0.14311910  1
  O  O124  1  0.24778647  0.36102549  0.14311016  1
  O  O125  1  0.74284833  0.38318078  0.14305221  1
  O  O126  1  0.23654716  0.30533951  0.02685010  1
  O  O127  1  0.73572005  0.30037320  0.02806578  1
  O  O128  1  0.41657982  0.52758582  0.02576186  1
  O  O129  1  0.91438385  0.53011401  0.02804787  1
  O  O130  1  0.34757141  0.16727158  0.02583217  1
  O  O131  1  0.85044419  0.17168293  0.02814190  1
  O  O132  1  0.23562580  0.16938488  0.52801569  1
  O  O133  1  0.73515774  0.17059157  0.52793152  1
  O  O134  1  0.34732818  0.52696954  0.52724092  1
  O  O135  1  0.84746363  0.52645373  0.52707202  1
  O  O136  1  0.41689965  0.30081882  0.52594941  1
  O  O137  1  0.91445582  0.29966822  0.52849818  1
  O  O138  1  0.26378679  0.69331716  0.97276876  1
  O  O139  1  0.76478954  0.69302977  0.97459356  1
  O  O140  1  0.08181844  0.46868576  0.97563426  1
  O  O141  1  0.58241400  0.47283209  0.97184206  1
  O  O142  1  0.15382825  0.83275513  0.97263550  1
  O  O143  1  0.65302591  0.83782718  0.97489569  1
  O  O144  1  0.26671143  0.83971105  0.47524619  1
  O  O145  1  0.76579418  0.83743904  0.47413011  1
  O  O146  1  0.15431748  0.46869030  0.47434345  1
  O  O147  1  0.65108796  0.46684820  0.47312318  1
  O  O148  1  0.08310927  0.69244126  0.47167904  1
  O  O149  1  0.58208135  0.69370703  0.47304569  1
  O  O150  1  0.06788981  0.63876121  0.35707520  1
  O  O151  1  0.56790210  0.63462495  0.36042332  1
  O  O152  1  0.25027610  0.86078486  0.36043522  1
  O  O153  1  0.75096984  0.86238480  0.35836389  1
  O  O154  1  0.18062221  0.49652038  0.35804930  1
  O  O155  1  0.68000282  0.49604415  0.35786225  1
  O  O156  1  0.06824018  0.49702894  0.85895805  1
  O  O157  1  0.56753785  0.49558610  0.85767732  1
  O  O158  1  0.18025991  0.86456214  0.85789042  1
  O  O159  1  0.68022592  0.86354342  0.85877878  1
  O  O160  1  0.25220059  0.63931840  0.85791162  1
  O  O161  1  0.75169112  0.63949916  0.85863657  1
  O  O162  1  0.01314332  0.83605989  0.40911892  1
  O  O163  1  0.51170917  0.83749593  0.41025925  1
  O  O164  1  0.40736552  0.98300412  0.41066318  1
  O  O165  1  0.90555529  0.97475981  0.40921100  1
  O  O166  1  0.08231736  0.18879774  0.40995251  1
  O  O167  1  0.58000728  0.19228668  0.40956111  1
  O  O168  1  0.01265507  0.19019111  0.90954605  1
  O  O169  1  0.51286240  0.18933229  0.90950819  1
  O  O170  1  0.08204866  0.97429037  0.90968883  1
  O  O171  1  0.58219608  0.97476192  0.90953577  1
  O  O172  1  0.40513982  0.83603447  0.90945069  1
  O  O173  1  0.90515363  0.83599666  0.90985571  1
  O  O174  1  0.48821727  0.16202245  0.58821370  1
  O  O175  1  0.98839953  0.16231393  0.58862033  1
  O  O176  1  0.09439614  0.03106668  0.58859673  1
  O  O177  1  0.59427460  0.03030333  0.58907496  1
  O  O178  1  0.41770587  0.81826283  0.58848151  1
  O  O179  1  0.91733381  0.81815278  0.58885063  1
  O  O180  1  0.49026959  0.81379560  0.09012069  1
  O  O181  1  0.98522610  0.81180813  0.08923891  1
  O  O182  1  0.41768665  0.02620376  0.09146811  1
  O  O183  1  0.91961145  0.02449416  0.08856142  1
  O  O184  1  0.09407136  0.16779529  0.09112480  1
  O  O185  1  0.59359324  0.15710510  0.08854837  1
  O  O186  1  0.34546881  0.16545233  0.74880054  1
  O  O187  1  0.84524868  0.16539593  0.74892948  1
  O  O188  1  0.23702215  0.30844132  0.74828795  1
  O  O189  1  0.73709788  0.30857699  0.74834762  1
  O  O190  1  0.41696988  0.52616695  0.74853694  1
  O  O191  1  0.91686612  0.52625851  0.74860942  1
  O  O192  1  0.34208495  0.51857928  0.24396916  1
  O  O193  1  0.84631426  0.52624914  0.24881284  1
  O  O194  1  0.41517225  0.30938262  0.24338123  1
  O  O195  1  0.91640698  0.30692814  0.24879121  1
  O  O196  1  0.23772019  0.17328744  0.24349389  1
  O  O197  1  0.73606829  0.16559273  0.24910960  1
  O  O198  1  0.32012808  0.49518297  0.92322851  1
  O  O199  1  0.81978925  0.49555719  0.92402269  1
  O  O200  1  0.42710545  0.35906018  0.92288622  1
  O  O201  1  0.92804602  0.36069754  0.92434092  1
  O  O202  1  0.25197000  0.14450842  0.92333734  1
  O  O203  1  0.75248772  0.14460257  0.92404646  1
  O  O204  1  0.32376394  0.14878056  0.42348264  1
  O  O205  1  0.82013408  0.14383357  0.42432831  1
  O  O206  1  0.25221536  0.35946494  0.42361318  1
  O  O207  1  0.75228735  0.35776781  0.42337296  1
  O  O208  1  0.42933324  0.49254013  0.42366232  1
  O  O209  1  0.92808450  0.49547608  0.42402826  1
  O  O210  1  0.17551267  0.49909648  0.07726604  1
  O  O211  1  0.67747124  0.50263273  0.07281889  1
  O  O212  1  0.07385719  0.64319905  0.07321051  1
  O  O213  1  0.57374882  0.64931496  0.07674945  1
  O  O214  1  0.24907858  0.85624369  0.07640640  1
  O  O215  1  0.74975384  0.84882241  0.07378251  1
  O  O216  1  0.17775473  0.85170953  0.57321828  1
  O  O217  1  0.67793560  0.85239282  0.57319894  1
  O  O218  1  0.25057831  0.65110974  0.57338105  1
  O  O219  1  0.75069897  0.65076240  0.57285215  1
  O  O220  1  0.07737329  0.49642748  0.57411444  1
  O  O221  1  0.57759506  0.49631469  0.57394676  1
  O  O222  1  0.15039646  0.82498284  0.25646756  1
  O  O223  1  0.65365957  0.82748211  0.25721072  1
  O  O224  1  0.26002270  0.68706943  0.25699891  1
  O  O225  1  0.76132902  0.69792726  0.25618727  1
  O  O226  1  0.08771807  0.47754562  0.25624114  1
  O  O227  1  0.58681656  0.47313346  0.25703370  1
  O  O228  1  0.15024665  0.47718172  0.75606346  1
  O  O229  1  0.65043864  0.47732903  0.75616432  1
  O  O230  1  0.08820951  0.69913509  0.75595245  1
  O  O231  1  0.58836650  0.69958168  0.75597596  1
  O  O232  1  0.26127201  0.82333990  0.75595555  1
  O  O233  1  0.76125873  0.82336891  0.75617091  1
