# generated using pymatgen
data_Na7CaSc3(PO4)6
_symmetry_space_group_name_H-M   'P 1'
_cell_length_a   9.17827136
_cell_length_b   9.18528040
_cell_length_c   22.46414285
_cell_angle_alpha   90.01753473
_cell_angle_beta   90.00593607
_cell_angle_gamma   119.98528625
_symmetry_Int_Tables_number   1
_chemical_formula_structural   Na7CaSc3(PO4)6
_chemical_formula_sum   'Na21 Ca3 Sc9 P18 O72'
_cell_volume   1640.35606373
_cell_formula_units_Z   3
loop_
 _symmetry_equiv_pos_site_id
 _symmetry_equiv_pos_as_xyz
  1  'x, y, z'
loop_
 _atom_site_type_symbol
 _atom_site_label
 _atom_site_symmetry_multiplicity
 _atom_site_fract_x
 _atom_site_fract_y
 _atom_site_fract_z
 _atom_site_occupancy
  Na  Na0  1  0.63950771  0.00549460  0.24362340  1
  Na  Na1  1  0.36647045  0.35844042  0.24449352  1
  Na  Na2  1  0.99304883  0.63535881  0.24319094  1
  Na  Na3  1  0.63350577  0.62861712  0.74667137  1
  Na  Na4  1  0.99303103  0.36568181  0.74823159  1
  Na  Na5  1  0.37442972  0.00550907  0.74756649  1
  Na  Na6  1  0.02608907  0.69176897  0.58342584  1
  Na  Na7  1  0.66466225  0.97477602  0.58287406  1
  Na  Na8  1  0.31128328  0.97537154  0.08253788  1
  Na  Na9  1  0.66386274  0.69025387  0.08306728  1
  Na  Na10  1  0.69705726  0.03091752  0.92031557  1
  Na  Na11  1  0.33232993  0.30113870  0.91919017  1
  Na  Na12  1  0.96661987  0.29537854  0.41322608  1
  Na  Na13  1  0.32781788  0.03192050  0.41384056  1
  Na  Na14  1  0.70644562  0.67346808  0.41363506  1
  Na  Na15  1  0.01415489  0.01479014  0.50229631  1
  Na  Na16  1  0.00011414  0.99962357  0.00285387  1
  Na  Na17  1  0.68166907  0.34928664  0.83601344  1
  Na  Na18  1  0.66691104  0.33343706  0.32798979  1
  Na  Na19  1  0.31556169  0.64888212  0.16287451  1
  Na  Na20  1  0.33318051  0.64882077  0.66343232  1
  Ca  Ca21  1  -0.00027412  0.00013506  0.35020638  1
  Ca  Ca22  1  0.66184355  0.33345172  0.68124504  1
  Ca  Ca23  1  0.67297856  0.33508718  0.17536221  1
  Sc  Sc24  1  0.99977839  0.99387716  0.85417125  1
  Sc  Sc25  1  0.00574753  0.00548602  0.64792455  1
  Sc  Sc26  1  0.00017893  0.00611018  0.14925343  1
  Sc  Sc27  1  0.67613960  0.33957848  0.98400825  1
  Sc  Sc28  1  0.66270329  0.33286267  0.48527578  1
  Sc  Sc29  1  0.32514509  0.66207394  0.01479835  1
  Sc  Sc30  1  0.33318527  0.66142884  0.51825619  1
  Sc  Sc31  1  0.33360923  0.66663356  0.31530400  1
  Sc  Sc32  1  0.32911300  0.66557436  0.81680802  1
  P  P33  1  0.29996523  0.99545504  0.25058805  1
  P  P34  1  0.69489517  0.70013788  0.25082900  1
  P  P35  1  0.00450350  0.30410723  0.25334301  1
  P  P36  1  0.28837151  0.29496552  0.75394769  1
  P  P37  1  0.00696039  0.71137611  0.74959972  1
  P  P38  1  0.70516808  0.99346247  0.75178389  1
  P  P39  1  0.96915812  0.33253558  0.58373691  1
  P  P40  1  0.36056461  0.02659704  0.58308859  1
  P  P41  1  0.66926192  0.64143186  0.58423447  1
  P  P42  1  0.97403155  0.64265265  0.08479095  1
  P  P43  1  0.66504422  0.02431605  0.08115186  1
  P  P44  1  0.36165214  0.33348386  0.08136528  1
  P  P45  1  0.62743735  0.66421918  0.91641930  1
  P  P46  1  0.03376331  0.36874553  0.91399861  1
  P  P47  1  0.33692059  0.96759512  0.91649994  1
  P  P48  1  0.62324198  0.96567832  0.41854990  1
  P  P49  1  0.34229977  0.37672050  0.41637778  1
  P  P50  1  0.03489844  0.65805155  0.41875611  1
  O  O51  1  0.22735732  0.01937010  0.30880950  1
  O  O52  1  0.79075595  0.77278770  0.30918249  1
  O  O53  1  0.98131174  0.21429067  0.31297650  1
  O  O54  1  0.20274958  0.19483740  0.81108208  1
  O  O55  1  0.99258647  0.80945605  0.80301120  1
  O  O56  1  0.81187854  0.00960690  0.80740271  1
  O  O57  1  0.79137272  0.97526962  0.69482080  1
  O  O58  1  0.17774336  0.20159858  0.69920245  1
  O  O59  1  0.02465020  0.81029408  0.69138323  1
  O  O60  1  0.79267588  0.81470874  0.19668807  1
  O  O61  1  0.02213411  0.20036762  0.20161436  1
  O  O62  1  0.18620358  0.97926123  0.19620321  1
  O  O63  1  0.90009373  0.36524073  0.64141396  1
  O  O64  1  0.46263886  0.09516740  0.64058588  1
  O  O65  1  0.64460475  0.54932867  0.64323425  1
  O  O66  1  0.91635303  0.55799287  0.14537775  1
  O  O67  1  0.63039260  0.09070762  0.13885666  1
  O  O68  1  0.46309594  0.36907617  0.13927358  1
  O  O69  1  0.45859367  0.30747650  0.02864681  1
  O  O70  1  0.84433680  0.53643646  0.03534107  1
  O  O71  1  0.68473884  0.13952689  0.02720808  1
  O  O72  1  0.45553913  0.13950726  0.52863359  1
  O  O73  1  0.69058713  0.54354267  0.53108404  1
  O  O74  1  0.84861177  0.30843149  0.53050253  1
  O  O75  1  0.54090660  0.68983254  0.97122193  1
  O  O76  1  0.15317623  0.46216502  0.96617350  1
  O  O77  1  0.31911255  0.86270049  0.97239937  1
  O  O78  1  0.53055607  0.86064130  0.47376516  1
  O  O79  1  0.32776815  0.47539556  0.46916176  1
  O  O80  1  0.14054611  0.67281933  0.47412845  1
  O  O81  1  0.12243321  0.64044243  0.36201925  1
  O  O82  1  0.51937223  0.87767590  0.36158354  1
  O  O83  1  0.36010169  0.47567957  0.35803326  1
  O  O84  1  0.11124517  0.46788390  0.85563137  1
  O  O85  1  0.35858260  0.87978888  0.86056329  1
  O  O86  1  0.51568755  0.63774640  0.86054587  1
  O  O87  1  0.01530117  0.81554874  0.41827191  1
  O  O88  1  0.80039914  0.98531283  0.41874485  1
  O  O89  1  0.18600412  0.19910163  0.41792186  1
  O  O90  1  0.01542825  0.18948876  0.91313292  1
  O  O91  1  0.18314550  0.99485368  0.91352878  1
  O  O92  1  0.80236061  0.82579844  0.91222716  1
  O  O93  1  0.97560205  0.16657624  0.58638276  1
  O  O94  1  0.18254127  0.00753694  0.58541873  1
  O  O95  1  0.83497713  0.81702212  0.58467136  1
  O  O96  1  0.98339263  0.81815884  0.08483114  1
  O  O97  1  0.82336836  0.00379982  0.08491624  1
  O  O98  1  0.18944141  0.16699743  0.08542322  1
  O  O99  1  0.68564249  0.15111477  0.75049949  1
  O  O100  1  0.46523439  0.31410709  0.75138766  1
  O  O101  1  0.84936369  0.53441242  0.75021429  1
  O  O102  1  0.66863983  0.52107240  0.24531249  1
  O  O103  1  0.85100809  0.32817398  0.24592873  1
  O  O104  1  0.47935671  0.14800312  0.24491857  1
  O  O105  1  0.64067548  0.50221294  0.92210073  1
  O  O106  1  0.85398613  0.34387283  0.92118639  1
  O  O107  1  0.50023374  0.14478589  0.92009718  1
  O  O108  1  0.63772646  0.14281749  0.42078675  1
  O  O109  1  0.50523351  0.36330295  0.42103684  1
  O  O110  1  0.85749683  0.49585746  0.42159551  1
  O  O111  1  0.34210218  0.48940307  0.07145710  1
  O  O112  1  0.15362662  0.67281799  0.07360345  1
  O  O113  1  0.50788245  0.84510810  0.07320725  1
  O  O114  1  0.33657766  0.84616525  0.57651707  1
  O  O115  1  0.51969391  0.67412864  0.57667959  1
  O  O116  1  0.14593865  0.48828727  0.57552943  1
  O  O117  1  0.30653627  0.82816445  0.25173052  1
  O  O118  1  0.52067626  0.69307262  0.25152417  1
  O  O119  1  0.17070760  0.47877242  0.25233754  1
  O  O120  1  0.30423981  0.47305927  0.75432326  1
  O  O121  1  0.16977545  0.69733358  0.75375690  1
  O  O122  1  0.52778436  0.83060425  0.75467903  1
