# generated using pymatgen
data_Y3NbP2(SO6)4
_symmetry_space_group_name_H-M   'P 1'
_cell_length_a   9.16126340
_cell_length_b   9.16918071
_cell_length_c   23.56057386
_cell_angle_alpha   90.02601964
_cell_angle_beta   89.94812315
_cell_angle_gamma   119.97882592
_symmetry_Int_Tables_number   1
_chemical_formula_structural   Y3NbP2(SO6)4
_chemical_formula_sum   'Y9 Nb3 P6 S12 O72'
_cell_volume   1714.33165134
_cell_formula_units_Z   3
loop_
 _symmetry_equiv_pos_site_id
 _symmetry_equiv_pos_as_xyz
  1  'x, y, z'
loop_
 _atom_site_type_symbol
 _atom_site_label
 _atom_site_symmetry_multiplicity
 _atom_site_fract_x
 _atom_site_fract_y
 _atom_site_fract_z
 _atom_site_occupancy
  Y  Y0  1  0.99810178  0.00004724  0.35678852  1
  Y  Y1  1  0.99511337  0.00159558  0.85928842  1
  Y  Y2  1  0.99106921  0.99553203  0.65027894  1
  Y  Y3  1  0.00226508  0.00896180  0.14311162  1
  Y  Y4  1  0.66619033  0.32875555  0.69339965  1
  Y  Y5  1  0.67197735  0.33509319  0.19359267  1
  Y  Y6  1  0.67206727  0.33639217  0.47388491  1
  Y  Y7  1  0.33239907  0.66645574  0.02283476  1
  Y  Y8  1  0.32966230  0.67041322  0.52706875  1
  Nb  Nb9  1  0.66713079  0.33348449  0.97079658  1
  Nb  Nb10  1  0.31977825  0.65803786  0.31269623  1
  Nb  Nb11  1  0.34027387  0.67183171  0.81877564  1
  P  P12  1  0.01302451  0.29543005  0.25069815  1
  P  P13  1  0.69753246  0.98436697  0.75320637  1
  P  P14  1  0.61070418  0.65098812  0.91788509  1
  P  P15  1  0.04323441  0.39179350  0.91753706  1
  P  P16  1  0.34680177  0.95894660  0.91774611  1
  P  P17  1  0.04929647  0.66290611  0.41600890  1
  S  S18  1  0.28642087  0.98373664  0.25099924  1
  S  S19  1  0.69543384  0.71466903  0.25137226  1
  S  S20  1  0.28796083  0.30766395  0.75362495  1
  S  S21  1  0.02006130  0.71191032  0.75377023  1
  S  S22  1  0.95046505  0.32609749  0.58373236  1
  S  S23  1  0.37590450  0.05272344  0.58347033  1
  S  S24  1  0.67227129  0.62131962  0.58327629  1
  S  S25  1  0.93594889  0.61462059  0.07984934  1
  S  S26  1  0.67446822  0.06331041  0.07981369  1
  S  S27  1  0.38893525  0.32423046  0.08017998  1
  S  S28  1  0.60658357  0.94513489  0.41382042  1
  S  S29  1  0.33991279  0.39169949  0.41416573  1
  O  O30  1  0.21151891  0.01435459  0.30123207  1
  O  O31  1  0.80430857  0.78735508  0.30122219  1
  O  O32  1  0.98343687  0.18691583  0.30277334  1
  O  O33  1  0.21397674  0.19718223  0.80289876  1
  O  O34  1  0.98732294  0.78894169  0.80294781  1
  O  O35  1  0.81151198  0.01730011  0.80418078  1
  O  O36  1  0.76672219  0.94196640  0.70008711  1
  O  O37  1  0.18285743  0.23705350  0.70246734  1
  O  O38  1  0.05665825  0.81758027  0.70253891  1
  O  O39  1  0.76921586  0.82107794  0.20047387  1
  O  O40  1  0.05250813  0.22248136  0.19789845  1
  O  O41  1  0.17873154  0.94644422  0.20041117  1
  O  O42  1  0.87010044  0.35142605  0.63415630  1
  O  O43  1  0.48144908  0.13605583  0.63372771  1
  O  O44  1  0.64974770  0.51799741  0.63400703  1
  O  O45  1  0.85784770  0.51296212  0.13097023  1
  O  O46  1  0.65118820  0.14025808  0.13118437  1
  O  O47  1  0.48840009  0.34620501  0.13151920  1
  O  O48  1  0.47711778  0.30640959  0.02874679  1
  O  O49  1  0.82976602  0.52623147  0.02835590  1
  O  O50  1  0.69411505  0.17025277  0.02858984  1
  O  O51  1  0.45528956  0.15134845  0.53123780  1
  O  O52  1  0.69173294  0.53967435  0.53144861  1
  O  O53  1  0.84949175  0.30446924  0.53193102  1
  O  O54  1  0.53846774  0.68232592  0.97101006  1
  O  O55  1  0.14283022  0.46352959  0.97152996  1
  O  O56  1  0.31654866  0.85678105  0.97110384  1
  O  O57  1  0.53399463  0.84534751  0.46527778  1
  O  O58  1  0.31598918  0.46822218  0.46493615  1
  O  O59  1  0.15840879  0.68921372  0.46752407  1
  O  O60  1  0.15129408  0.64453003  0.36153988  1
  O  O61  1  0.50057869  0.85289186  0.36265730  1
  O  O62  1  0.35901604  0.50068704  0.36240147  1
  O  O63  1  0.13102152  0.51474037  0.86653226  1
  O  O64  1  0.38317219  0.86899007  0.86671893  1
  O  O65  1  0.48639999  0.61547101  0.86654187  1
  O  O66  1  0.03374861  0.81657736  0.40299596  1
  O  O67  1  0.77597414  0.96741586  0.40566433  1
  O  O68  1  0.19107474  0.22523459  0.40527085  1
  O  O69  1  0.00595549  0.21496667  0.90506994  1
  O  O70  1  0.21039466  0.99777544  0.90265386  1
  O  O71  1  0.78795077  0.78703371  0.90425823  1
  O  O72  1  0.96735625  0.17512926  0.59078883  1
  O  O73  1  0.20739758  0.03385374  0.59113262  1
  O  O74  1  0.82554347  0.78877077  0.58956808  1
  O  O75  1  0.94502044  0.77952148  0.08530913  1
  O  O76  1  0.83030010  0.05301953  0.08462790  1
  O  O77  1  0.22343039  0.16691484  0.08462831  1
  O  O78  1  0.65803573  0.12575790  0.74306703  1
  O  O79  1  0.46118825  0.34165616  0.74418691  1
  O  O80  1  0.87805705  0.54057584  0.74430275  1
  O  O81  1  0.66417935  0.54223507  0.24233610  1
  O  O82  1  0.87179975  0.33488715  0.24127763  1
  O  O83  1  0.45743620  0.12626325  0.24227208  1
  O  O84  1  0.61565830  0.47989664  0.92717725  1
  O  O85  1  0.86366596  0.38168064  0.92742607  1
  O  O86  1  0.51797123  0.13569455  0.92748910  1
  O  O87  1  0.61278828  0.10834197  0.41663884  1
  O  O88  1  0.49458918  0.38180931  0.41604326  1
  O  O89  1  0.88151528  0.49856645  0.41727948  1
  O  O90  1  0.36730889  0.47161779  0.07354610  1
  O  O91  1  0.10458884  0.63472652  0.07337137  1
  O  O92  1  0.52633116  0.89501209  0.07311064  1
  O  O93  1  0.36084248  0.88419974  0.57836742  1
  O  O94  1  0.52218572  0.64070731  0.57650975  1
  O  O95  1  0.11991106  0.47657515  0.57752728  1
  O  O96  1  0.30566606  0.83054834  0.26150931  1
  O  O97  1  0.52744412  0.70145547  0.26274780  1
  O  O98  1  0.17771296  0.47624956  0.26386143  1
  O  O99  1  0.29828358  0.47496781  0.76614861  1
  O  O100  1  0.17514364  0.69778190  0.76604422  1
  O  O101  1  0.51982393  0.81975795  0.76933816  1
