# generated using pymatgen
data_Na10La8Si5S7O48
_symmetry_space_group_name_H-M   'P 1'
_cell_length_a   19.31929537
_cell_length_b   9.65755720
_cell_length_c   24.95546154
_cell_angle_alpha   90.02985164
_cell_angle_beta   89.65602548
_cell_angle_gamma   119.94802562
_symmetry_Int_Tables_number   1
_chemical_formula_structural   Na10La8Si5S7O48
_chemical_formula_sum   'Na30 La24 Si15 S21 O144'
_cell_volume   4034.33932808
_cell_formula_units_Z   3
loop_
 _symmetry_equiv_pos_site_id
 _symmetry_equiv_pos_as_xyz
  1  'x, y, z'
loop_
 _atom_site_type_symbol
 _atom_site_label
 _atom_site_symmetry_multiplicity
 _atom_site_fract_x
 _atom_site_fract_y
 _atom_site_fract_z
 _atom_site_occupancy
  Na  Na0  1  0.33035791  0.00106905  0.24892140  1
  Na  Na1  1  0.82928432  -0.00001678  0.24958867  1
  Na  Na2  1  0.18201486  0.38003121  0.24233359  1
  Na  Na3  1  0.68214693  0.38087335  0.24316164  1
  Na  Na4  1  0.99139614  0.61949267  0.25736803  1
  Na  Na5  1  0.49272833  0.62018863  0.25820400  1
  Na  Na6  1  0.83078205  0.65711202  0.74800937  1
  Na  Na7  1  0.99090672  0.36411681  0.75737436  1
  Na  Na8  1  0.49331920  0.34959252  0.75720032  1
  Na  Na9  1  0.17950706  0.98036921  0.74502069  1
  Na  Na10  1  0.02127502  0.71571665  0.58560938  1
  Na  Na11  1  0.32748456  0.96892249  0.59111491  1
  Na  Na12  1  0.02451279  0.32996820  0.08362179  1
  Na  Na13  1  0.52437612  0.32965939  0.08448180  1
  Na  Na14  1  0.15715826  0.29884161  0.92403260  1
  Na  Na15  1  0.65982526  0.30103191  0.92482252  1
  Na  Na16  1  0.15811837  0.01714839  0.42452058  1
  Na  Na17  1  0.65857903  0.01613014  0.42574759  1
  Na  Na18  1  0.00301338  0.99512435  0.50055271  1
  Na  Na19  1  0.51181801  0.98919443  0.49953267  1
  Na  Na20  1  0.00613966  0.01495447  0.99978576  1
  Na  Na21  1  0.50609319  0.01164282  0.00240897  1
  Na  Na22  1  0.34604722  0.33044451  0.83702776  1
  Na  Na23  1  0.84993934  0.33034915  0.83114783  1
  Na  Na24  1  0.35356336  0.36866353  0.33320715  1
  Na  Na25  1  0.85218816  0.36670516  0.33474516  1
  Na  Na26  1  0.17429249  0.64962905  0.16630258  1
  Na  Na27  1  0.67434716  0.64966671  0.16741077  1
  Na  Na28  1  0.17197602  0.68515565  0.67207245  1
  Na  Na29  1  0.67932978  0.71323211  0.66242892  1
  La  La30  1  0.98958163  0.98651003  0.34906068  1
  La  La31  1  0.49064458  0.98816974  0.34909627  1
  La  La32  1  0.99114676  0.99341358  0.84900013  1
  La  La33  1  0.48997567  0.00370107  0.85000834  1
  La  La34  1  0.99914150  0.99518506  0.65190760  1
  La  La35  1  0.50643171  0.99753841  0.64966958  1
  La  La36  1  0.00096788  0.00431124  0.15150263  1
  La  La37  1  0.50115081  0.00442679  0.15184366  1
  La  La38  1  0.32800967  0.32253929  0.67983644  1
  La  La39  1  0.82611519  0.30762165  0.68299326  1
  La  La40  1  0.33066175  0.34424982  0.17995418  1
  La  La41  1  0.83038328  0.34379223  0.17981977  1
  La  La42  1  0.33492978  0.33242160  0.98388590  1
  La  La43  1  0.83609169  0.33332137  0.98326814  1
  La  La44  1  0.33862404  0.34700891  0.48330989  1
  La  La45  1  0.83435850  0.33704510  0.48412300  1
  La  La46  1  0.16601309  0.65507529  0.01588210  1
  La  La47  1  0.66595779  0.65531733  0.01651620  1
  La  La48  1  0.16122290  0.66529787  0.51426443  1
  La  La49  1  0.66150430  0.67854253  0.51844888  1
  La  La50  1  0.15959100  0.65030163  0.31935099  1
  La  La51  1  0.65972557  0.64993303  0.32046587  1
  La  La52  1  0.16320202  0.66868810  0.81746548  1
  La  La53  1  0.66622630  0.67948980  0.81933648  1
  Si  Si54  1  0.34876536  0.70002972  0.24921686  1
  Si  Si55  1  0.84858599  0.69976637  0.24903319  1
  Si  Si56  1  0.99821268  0.29911840  0.24831967  1
  Si  Si57  1  0.49830776  0.29968551  0.24835637  1
  Si  Si58  1  0.99847607  0.69689489  0.74833764  1
  Si  Si59  1  0.35016241  0.00384816  0.74517530  1
  Si  Si60  1  0.84915888  0.99481303  0.74968104  1
  Si  Si61  1  0.18245539  0.03022347  0.58017538  1
  Si  Si62  1  0.68139558  0.03254599  0.58009977  1
  Si  Si63  1  0.17965056  0.33064554  0.08185267  1
  Si  Si64  1  0.67959303  0.33000600  0.08144975  1
  Si  Si65  1  0.01655459  0.36240520  0.91651380  1
  Si  Si66  1  0.51695995  0.36721287  0.91534008  1
  Si  Si67  1  0.01479095  0.67055038  0.41650247  1
  Si  Si68  1  0.51617894  0.67172097  0.41447721  1
  S  S69  1  0.15034295  0.99975226  0.25163184  1
  S  S70  1  0.65047639  0.99943232  0.25141337  1
  S  S71  1  0.14948436  0.29801231  0.75118315  1
  S  S72  1  0.64862417  0.30278763  0.75215789  1
  S  S73  1  0.49906197  0.69575197  0.75068349  1
  S  S74  1  0.48206399  0.32912868  0.58476877  1
  S  S75  1  0.98362070  0.33524140  0.58383303  1
  S  S76  1  0.33297773  0.63772181  0.58366684  1
  S  S77  1  0.83318112  0.63162112  0.58489704  1
  S  S78  1  0.48448470  0.63341513  0.08307407  1
  S  S79  1  0.98465240  0.63357955  0.08327667  1
  S  S80  1  0.33336549  0.03426149  0.08461073  1
  S  S81  1  0.83316647  0.03421275  0.08463321  1
  S  S82  1  0.31521507  0.66239438  0.91624474  1
  S  S83  1  0.81416708  0.66126140  0.91591755  1
  S  S84  1  0.16720793  0.97157395  0.91649940  1
  S  S85  1  0.66573881  0.97119199  0.91767992  1
  S  S86  1  0.31426689  0.96763164  0.41735114  1
  S  S87  1  0.81391396  0.96654256  0.41612881  1
  S  S88  1  0.16711153  0.36032176  0.41644272  1
  S  S89  1  0.66685142  0.36172279  0.41714567  1
  O  O90  1  0.11348853  0.02339235  0.30045787  1
  O  O91  1  0.61354504  0.02342003  0.30022087  1
  O  O92  1  0.40651643  0.78013317  0.30125126  1
  O  O93  1  0.90669050  0.77917703  0.30102438  1
  O  O94  1  0.48691326  0.18314726  0.29934817  1
  O  O95  1  0.98770102  0.18363704  0.29943680  1
  O  O96  1  0.11308337  0.20195261  0.80037759  1
  O  O97  1  0.61153509  0.20543549  0.80095325  1
  O  O98  1  0.49263676  0.77734025  0.79896430  1
  O  O99  1  0.98858710  0.79306493  0.79918075  1
  O  O100  1  0.40936904  0.03240307  0.79673114  1
  O  O101  1  0.90522112  0.02493208  0.80237407  1
  O  O102  1  0.39425602  0.98939777  0.69050817  1
  O  O103  1  0.89284665  0.96960040  0.69697510  1
  O  O104  1  0.09967430  0.21905230  0.70354688  1
  O  O105  1  0.59914858  0.22128396  0.70458041  1
  O  O106  1  0.01449097  0.80525846  0.69345259  1
  O  O107  1  0.50830138  0.79141748  0.70202522  1
  O  O108  1  0.39331935  0.81339451  0.19703438  1
  O  O109  1  0.89347990  0.81355843  0.19702823  1
  O  O110  1  0.01371571  0.22241558  0.19350832  1
  O  O111  1  0.51325740  0.22225588  0.19345153  1
  O  O112  1  0.09986891  0.97584767  0.20411677  1
  O  O113  1  0.59995862  0.97580896  0.20394230  1
  O  O114  1  0.44526516  0.35156496  0.63422723  1
  O  O115  1  0.94653777  0.35661623  0.63312846  1
  O  O116  1  0.23631249  0.11635689  0.63490129  1
  O  O117  1  0.73492292  0.12561590  0.63271834  1
  O  O118  1  0.32599876  0.54314295  0.63204437  1
  O  O119  1  0.82577306  0.54168089  0.63482515  1
  O  O120  1  0.44796867  0.53884892  0.13291952  1
  O  O121  1  0.94804575  0.53873141  0.13308033  1
  O  O122  1  0.32533204  0.10860989  0.13468661  1
  O  O123  1  0.82494715  0.10817114  0.13472025  1
  O  O124  1  0.22911431  0.34412499  0.13741880  1
  O  O125  1  0.72895734  0.34391535  0.13709680  1
  O  O126  1  0.22834340  0.32274270  0.02820737  1
  O  O127  1  0.72788916  0.32238286  0.02770029  1
  O  O128  1  0.43438710  0.54853135  0.03632802  1
  O  O129  1  0.93444278  0.54884450  0.03652267  1
  O  O130  1  0.34288877  0.13809628  0.03780232  1
  O  O131  1  0.84260458  0.13793491  0.03784169  1
  O  O132  1  0.23099093  0.13772433  0.52731035  1
  O  O133  1  0.72439976  0.13078446  0.52412609  1
  O  O134  1  0.34203831  0.55857766  0.53539218  1
  O  O135  1  0.84334114  0.54811619  0.53782495  1
  O  O136  1  0.43187342  0.31361183  0.53775828  1
  O  O137  1  0.93477303  0.31992646  0.53622278  1
  O  O138  1  0.27754835  0.68482660  0.96486029  1
  O  O139  1  0.77341764  0.68092218  0.96330994  1
  O  O140  1  0.07210932  0.45643989  0.96979048  1
  O  O141  1  0.57254212  0.45627534  0.96866915  1
  O  O142  1  0.16154315  0.87438396  0.96376647  1
  O  O143  1  0.65898075  0.87488817  0.96551909  1
  O  O144  1  0.27434921  0.86940124  0.46573680  1
  O  O145  1  0.77255458  0.86492887  0.46311477  1
  O  O146  1  0.16086969  0.44634585  0.46348519  1
  O  O147  1  0.66070700  0.44867113  0.46373057  1
  O  O148  1  0.07076497  0.68782987  0.46959092  1
  O  O149  1  0.57578903  0.69008386  0.46445554  1
  O  O150  1  0.05898233  0.65552211  0.36137954  1
  O  O151  1  0.55547634  0.65419402  0.35739620  1
  O  O152  1  0.26778680  0.88770572  0.36843627  1
  O  O153  1  0.76947860  0.89083823  0.36595629  1
  O  O154  1  0.17658569  0.45279168  0.36668636  1
  O  O155  1  0.67590856  0.45186796  0.36662444  1
  O  O156  1  0.06089903  0.46571733  0.86141084  1
  O  O157  1  0.56133772  0.46912301  0.86010776  1
  O  O158  1  0.17645403  0.89791970  0.86663880  1
  O  O159  1  0.67583570  0.89526172  0.86890461  1
  O  O160  1  0.26740679  0.64739259  0.86818944  1
  O  O161  1  0.76847336  0.64798409  0.86656500  1
  O  O162  1  0.01889138  0.84634653  0.41510288  1
  O  O163  1  0.51802896  0.84548629  0.41459975  1
  O  O164  1  0.39586344  0.99030858  0.41496096  1
  O  O165  1  0.89590602  0.99074363  0.41438580  1
  O  O166  1  0.09498935  0.19843282  0.41359893  1
  O  O167  1  0.59488011  0.19864202  0.41402341  1
  O  O168  1  0.01912675  0.19290119  0.91523530  1
  O  O169  1  0.51853760  0.19522236  0.91277347  1
  O  O170  1  0.09534987  0.99059812  0.91382433  1
  O  O171  1  0.59347751  0.98861294  0.91294178  1
  O  O172  1  0.39720590  0.80118999  0.91220731  1
  O  O173  1  0.89588898  0.80085812  0.91400304  1
  O  O174  1  0.48368780  0.17684021  0.58834081  1
  O  O175  1  0.99397118  0.19395011  0.58710349  1
  O  O176  1  0.09017108  0.99644466  0.58344974  1
  O  O177  1  0.59156733  0.01544081  0.58500017  1
  O  O178  1  0.40413325  0.80206035  0.58683003  1
  O  O179  1  0.90864471  0.79113562  0.58635040  1
  O  O180  1  0.49343436  0.79407439  0.08647618  1
  O  O181  1  0.99352895  0.79404647  0.08678831  1
  O  O182  1  0.40838870  0.02527698  0.08624234  1
  O  O183  1  0.90817490  0.02521574  0.08635629  1
  O  O184  1  0.08764365  0.17451164  0.08282699  1
  O  O185  1  0.58727272  0.17400575  0.08256073  1
  O  O186  1  0.34501885  0.17315827  0.74465326  1
  O  O187  1  0.84543285  0.16172970  0.74659467  1
  O  O188  1  0.22945568  0.31146821  0.74479181  1
  O  O189  1  0.73131753  0.33120259  0.74647582  1
  O  O190  1  0.42729348  0.53269678  0.74642956  1
  O  O191  1  0.91677846  0.51961895  0.74475875  1
  O  O192  1  0.33643158  0.51704903  0.24563650  1
  O  O193  1  0.83654600  0.51708624  0.24538268  1
  O  O194  1  0.41663986  0.31523180  0.24454751  1
  O  O195  1  0.91675555  0.31507779  0.24451822  1
  O  O196  1  0.23105188  0.14385506  0.24480299  1
  O  O197  1  0.73109139  0.14370234  0.24459668  1
  O  O198  1  0.31759721  0.51042081  0.92062372  1
  O  O199  1  0.81572826  0.50904319  0.92036078  1
  O  O200  1  0.42694009  0.34446946  0.92025962  1
  O  O201  1  0.92704043  0.34275767  0.92167839  1
  O  O202  1  0.23862404  0.13671843  0.91996601  1
  O  O203  1  0.73675841  0.13580760  0.92097349  1
  O  O204  1  0.31670526  0.12427875  0.42140342  1
  O  O205  1  0.81645988  0.12342801  0.42052804  1
  O  O206  1  0.23840171  0.33878827  0.42047880  1
  O  O207  1  0.73825174  0.33988917  0.42045539  1
  O  O208  1  0.42699402  0.51159296  0.42055358  1
  O  O209  1  0.92616388  0.51060013  0.42139284  1
  O  O210  1  0.16719443  0.49058303  0.08094497  1
  O  O211  1  0.66679394  0.48981866  0.08074283  1
  O  O212  1  0.06395516  0.64325308  0.07804095  1
  O  O213  1  0.56371809  0.64292353  0.07789622  1
  O  O214  1  0.26205518  0.87429809  0.07865843  1
  O  O215  1  0.76195630  0.87408702  0.07862312  1
  O  O216  1  0.17923670  0.85279841  0.57906767  1
  O  O217  1  0.67316102  0.85288335  0.58098151  1
  O  O218  1  0.26090831  0.65563643  0.57936950  1
  O  O219  1  0.76225098  0.65010227  0.57869173  1
  O  O220  1  0.06317096  0.48513868  0.57877386  1
  O  O221  1  0.56352250  0.46799585  0.57936190  1
  O  O222  1  0.16005646  0.85632502  0.25642871  1
  O  O223  1  0.66017474  0.85614469  0.25617287  1
  O  O224  1  0.26008837  0.68707849  0.25491436  1
  O  O225  1  0.75997146  0.68688420  0.25482888  1
  O  O226  1  0.07862604  0.48061714  0.25319114  1
  O  O227  1  0.57890177  0.48049690  0.25323329  1
  O  O228  1  0.15675314  0.45835533  0.75527100  1
  O  O229  1  0.65288051  0.46156042  0.75624611  1
  O  O230  1  0.07892235  0.67573135  0.75317048  1
  O  O231  1  0.57041498  0.67307997  0.75353592  1
  O  O232  1  0.25824736  0.85353127  0.75236709  1
  O  O233  1  0.76279171  0.82472921  0.75548609  1
