# generated using pymatgen
data_Na2Ta3InSi2(PO6)4
_symmetry_space_group_name_H-M   'P 1'
_cell_length_a   8.82370185
_cell_length_b   8.83593282
_cell_length_c   22.91287550
_cell_angle_alpha   90.06067950
_cell_angle_beta   89.97642533
_cell_angle_gamma   119.95791012
_symmetry_Int_Tables_number   1
_chemical_formula_structural   Na2Ta3InSi2(PO6)4
_chemical_formula_sum   'Na6 Ta9 In3 Si6 P12 O72'
_cell_volume   1547.73729855
_cell_formula_units_Z   3
loop_
 _symmetry_equiv_pos_site_id
 _symmetry_equiv_pos_as_xyz
  1  'x, y, z'
loop_
 _atom_site_type_symbol
 _atom_site_label
 _atom_site_symmetry_multiplicity
 _atom_site_fract_x
 _atom_site_fract_y
 _atom_site_fract_z
 _atom_site_occupancy
  Na  Na0  1  0.99644809  -0.00002289  0.49421158  1
  Na  Na1  1  0.00072472  0.00025135  0.00094890  1
  Na  Na2  1  0.66838236  0.33367938  0.83197591  1
  Na  Na3  1  0.66609996  0.33342831  0.32679761  1
  Na  Na4  1  0.33374895  0.66242892  0.16451280  1
  Na  Na5  1  0.32821630  0.66294883  0.66692622  1
  Ta  Ta6  1  0.00084853  0.00032953  0.85715330  1
  Ta  Ta7  1  0.99916506  0.00159465  0.64456150  1
  Ta  Ta8  1  0.00194380  0.00228534  0.14634608  1
  Ta  Ta9  1  0.66178938  0.33171657  0.97818213  1
  Ta  Ta10  1  0.66969781  0.32947626  0.47813128  1
  Ta  Ta11  1  0.33327679  0.66400583  0.01928635  1
  Ta  Ta12  1  0.33535279  0.66716402  0.51992047  1
  Ta  Ta13  1  0.33654478  0.67054454  0.31046274  1
  Ta  Ta14  1  0.33275650  0.66624807  0.81316232  1
  In  In15  1  0.99785178  0.00096645  0.35474970  1
  In  In16  1  0.66985043  0.33516662  0.68674534  1
  In  In17  1  0.66496420  0.33448633  0.18345777  1
  Si  Si18  1  0.95744732  0.33575392  0.58454648  1
  Si  Si19  1  0.37588600  0.33470894  0.08423672  1
  Si  Si20  1  0.61915242  0.66503333  0.91605200  1
  Si  Si21  1  0.04482704  0.38132124  0.91609052  1
  Si  Si22  1  0.33571106  0.95309179  0.91657762  1
  Si  Si23  1  0.62383442  0.95577019  0.41648314  1
  P  P24  1  0.28874255  -0.00029476  0.25157584  1
  P  P25  1  0.71149609  0.70947816  0.25103724  1
  P  P26  1  0.99938055  0.29094093  0.25086355  1
  P  P27  1  0.28590033  0.28729837  0.75033224  1
  P  P28  1  0.00182860  0.71495272  0.75051796  1
  P  P29  1  0.71164592  0.99711975  0.75078806  1
  P  P30  1  0.37736730  0.04390336  0.58325546  1
  P  P31  1  0.66614840  0.62143258  0.58339145  1
  P  P32  1  0.95754354  0.62409015  0.08329734  1
  P  P33  1  0.66598350  0.04201236  0.08318673  1
  P  P34  1  0.33712151  0.38260757  0.41674010  1
  P  P35  1  0.04706435  0.66520208  0.41675989  1
  O  O36  1  0.21049729  0.02525294  0.30654631  1
  O  O37  1  0.81379417  0.78856018  0.30625576  1
  O  O38  1  0.97316843  0.18717672  0.30585199  1
  O  O39  1  0.19021962  0.17559723  0.80434817  1
  O  O40  1  0.98824672  0.81312519  0.80455837  1
  O  O41  1  0.82508201  0.01377712  0.80446669  1
  O  O42  1  0.80447803  0.97536041  0.69519000  1
  O  O43  1  0.17104009  0.19441179  0.69487874  1
  O  O44  1  0.02431108  0.82752149  0.69507622  1
  O  O45  1  0.79916732  0.82678320  0.19596930  1
  O  O46  1  0.02585022  0.19728868  0.19568068  1
  O  O47  1  0.17031497  0.97294246  0.19627966  1
  O  O48  1  0.88931022  0.37900306  0.64258163  1
  O  O49  1  0.48282151  0.11055557  0.63861571  1
  O  O50  1  0.62284666  0.51539293  0.63884945  1
  O  O51  1  0.89354778  0.51827207  0.13850746  1
  O  O52  1  0.63059450  0.11014508  0.13865537  1
  O  O53  1  0.48590470  0.37715370  0.14232978  1
  O  O54  1  0.46974587  0.30304243  0.02654058  1
  O  O55  1  0.84007406  0.53483372  0.02907063  1
  O  O56  1  0.69855048  0.16045408  0.02890273  1
  O  O57  1  0.46401390  0.16303801  0.52904692  1
  O  O58  1  0.69487130  0.53424759  0.52914455  1
  O  O59  1  0.83064506  0.30346843  0.52671188  1
  O  O60  1  0.53174086  0.69957464  0.97294538  1
  O  O61  1  0.16815755  0.46944287  0.97268850  1
  O  O62  1  0.30077194  0.83333938  0.97343528  1
  O  O63  1  0.51896563  0.83777565  0.47312371  1
  O  O64  1  0.31668031  0.47604166  0.47132749  1
  O  O65  1  0.15736638  0.67872091  0.47132963  1
  O  O66  1  0.13082456  0.63348466  0.36179662  1
  O  O67  1  0.49697893  0.85870755  0.35920637  1
  O  O68  1  0.36056050  0.49621788  0.36183862  1
  O  O69  1  0.13704320  0.50180741  0.85808350  1
  O  O70  1  0.36467968  0.86206259  0.85822383  1
  O  O71  1  0.49807458  0.63433953  0.85812970  1
  O  O72  1  0.03244071  0.82758741  0.41515626  1
  O  O73  1  0.81354858  0.97771863  0.41695780  1
  O  O74  1  0.17856643  0.20225697  0.41492398  1
  O  O75  1  0.02581055  0.18923645  0.90640801  1
  O  O76  1  0.16518334  0.97682548  0.90656488  1
  O  O77  1  0.81189876  0.83687649  0.90662463  1
  O  O78  1  0.97630945  0.15826874  0.59152496  1
  O  O79  1  0.19079835  0.02178205  0.59036867  1
  O  O80  1  0.83333944  0.80609072  0.59102266  1
  O  O81  1  0.97206357  0.80760770  0.09071487  1
  O  O82  1  0.83118155  0.02022472  0.09035156  1
  O  O83  1  0.17934864  0.15706163  0.09141851  1
  O  O84  1  0.69245204  0.15827030  0.74855162  1
  O  O85  1  0.46552518  0.30406172  0.74711245  1
  O  O86  1  0.83749204  0.53617726  0.74950308  1
  O  O87  1  0.68249083  0.52531432  0.24563175  1
  O  O88  1  0.84429695  0.31948870  0.24309689  1
  O  O89  1  0.47466540  0.15082042  0.24480845  1
  O  O90  1  0.64244069  0.49547391  0.92522778  1
  O  O91  1  0.85386556  0.35964922  0.92562388  1
  O  O92  1  0.50838676  0.14501409  0.92464680  1
  O  O93  1  0.62919431  0.14569555  0.42470933  1
  O  O94  1  0.50832508  0.37541604  0.42539791  1
  O  O95  1  0.86300726  0.49772325  0.42523119  1
  O  O96  1  0.34442307  0.50049328  0.07329751  1
  O  O97  1  0.14508918  0.65651932  0.07257745  1
  O  O98  1  0.50647298  0.85761232  0.07274444  1
  O  O99  1  0.34838110  0.85791405  0.57176994  1
  O  O100  1  0.51081860  0.65441626  0.57224819  1
  O  O101  1  0.15403889  0.49836165  0.57177673  1
  O  O102  1  0.29512469  0.82329401  0.25644749  1
  O  O103  1  0.52496981  0.69696731  0.25677187  1
  O  O104  1  0.17288451  0.47300739  0.25611001  1
  O  O105  1  0.29625758  0.46779148  0.75484492  1
  O  O106  1  0.17177676  0.70264044  0.75537804  1
  O  O107  1  0.53144809  0.82630110  0.75500396  1
