# generated using pymatgen
data_Na3MgScP2SO12
_symmetry_space_group_name_H-M   'P 1'
_cell_length_a   9.00120860
_cell_length_b   8.97054742
_cell_length_c   22.40076097
_cell_angle_alpha   90.04979814
_cell_angle_beta   90.00000000
_cell_angle_gamma   120.11313051
_symmetry_Int_Tables_number   1
_chemical_formula_structural   Na3MgScP2SO12
_chemical_formula_sum   'Na18 Mg6 Sc6 P12 S6 O72'
_cell_volume   1564.64833227
_cell_formula_units_Z   6
loop_
 _symmetry_equiv_pos_site_id
 _symmetry_equiv_pos_as_xyz
  1  'x, y, z'
loop_
 _atom_site_type_symbol
 _atom_site_label
 _atom_site_symmetry_multiplicity
 _atom_site_fract_x
 _atom_site_fract_y
 _atom_site_fract_z
 _atom_site_occupancy
  Na  Na0  1  0.35751448  0.35548533  0.24667649  1
  Na  Na1  1  0.99905205  0.63062044  0.24555651  1
  Na  Na2  1  0.63156839  0.63062044  0.74555651  1
  Na  Na3  1  0.99797086  0.35548533  0.74667649  1
  Na  Na4  1  0.02418148  0.68881833  0.58000949  1
  Na  Na5  1  0.66571905  0.96395344  0.57888951  1
  Na  Na6  1  0.29823539  0.96395344  0.07888951  1
  Na  Na7  1  0.66463786  0.68881833  0.08000949  1
  Na  Na8  1  0.69084748  0.02215233  0.91334349  1
  Na  Na9  1  0.33238505  0.29728744  0.91222351  1
  Na  Na10  1  0.96490139  0.29728744  0.41222351  1
  Na  Na11  1  0.33130386  0.02215233  0.41334349  1
  Na  Na12  1  0.98291474  0.98693044  0.49611812  1
  Na  Na13  1  0.00401570  0.98693044  0.99611812  1
  Na  Na14  1  0.64958174  0.32026344  0.82945112  1
  Na  Na15  1  0.67068270  0.32026344  0.32945112  1
  Na  Na16  1  0.31624774  0.65359744  0.16278512  1
  Na  Na17  1  0.33734870  0.65359744  0.66278512  1
  Mg  Mg18  1  0.99127541  0.99502890  0.35014713  1
  Mg  Mg19  1  0.00375349  0.99502890  0.85014713  1
  Mg  Mg20  1  0.65794241  0.32836190  0.68348013  1
  Mg  Mg21  1  0.67042049  0.32836190  0.18348013  1
  Mg  Mg22  1  0.32460841  0.66169590  0.01681413  1
  Mg  Mg23  1  0.33708649  0.66169590  0.51681413  1
  Sc  Sc24  1  0.00178572  0.01303022  0.64957504  1
  Sc  Sc25  1  0.01124450  0.01303022  0.14957504  1
  Sc  Sc26  1  0.66845272  0.34636322  0.98290804  1
  Sc  Sc27  1  0.67791150  0.34636322  0.48290804  1
  Sc  Sc28  1  0.33511872  0.67969722  0.31624204  1
  Sc  Sc29  1  0.34457750  0.67969722  0.81624204  1
  P  P30  1  0.29826473  0.00505713  0.25138380  1
  P  P31  1  0.99713880  0.29498452  0.25362601  1
  P  P32  1  0.29784572  0.29498452  0.75362601  1
  P  P33  1  0.70679240  0.00505713  0.75138380  1
  P  P34  1  0.96493173  0.33839013  0.58471680  1
  P  P35  1  0.66380580  0.62831752  0.58695901  1
  P  P36  1  0.96451272  0.62831752  0.08695901  1
  P  P37  1  0.37345940  0.33839013  0.08471680  1
  P  P38  1  0.63159773  0.67172413  0.91805080  1
  P  P39  1  0.33047180  0.96165152  0.92029301  1
  P  P40  1  0.63117872  0.96165152  0.42029301  1
  P  P41  1  0.04012540  0.67172413  0.41805080  1
  S  S42  1  0.70513069  0.70557701  0.24948035  1
  S  S43  1  0.00044632  0.70557701  0.74948035  1
  S  S44  1  0.37179769  0.03891001  0.58281335  1
  S  S45  1  0.66711332  0.03891001  0.08281335  1
  S  S46  1  0.03846369  0.37224401  0.91614735  1
  S  S47  1  0.33377932  0.37224401  0.41614735  1
  O  O48  1  0.21113715  0.02792791  0.30697720  1
  O  O49  1  0.81504108  0.79184224  0.30127003  1
  O  O50  1  0.97925184  0.19362540  0.31075446  1
  O  O51  1  0.21437356  0.19362540  0.81075446  1
  O  O52  1  0.97680116  0.79184224  0.80127003  1
  O  O53  1  0.81679076  0.02792791  0.80697720  1
  O  O54  1  0.79011093  0.97246524  0.69502760  1
  O  O55  1  0.17945508  0.20405924  0.69895576  1
  O  O56  1  0.02453523  0.80465737  0.69365518  1
  O  O57  1  0.78012214  0.80465737  0.19365518  1
  O  O58  1  0.02460416  0.20405924  0.19895576  1
  O  O59  1  0.18235431  0.97246524  0.19502760  1
  O  O60  1  0.87780415  0.36126091  0.64031020  1
  O  O61  1  0.48170808  0.12517524  0.63460303  1
  O  O62  1  0.64591884  0.52695840  0.64408746  1
  O  O63  1  0.88104056  0.52695840  0.14408746  1
  O  O64  1  0.64346816  0.12517524  0.13460303  1
  O  O65  1  0.48345776  0.36126091  0.14031020  1
  O  O66  1  0.45677793  0.30579824  0.02836060  1
  O  O67  1  0.84612208  0.53739224  0.03228876  1
  O  O68  1  0.69120223  0.13799037  0.02698818  1
  O  O69  1  0.44678914  0.13799037  0.52698818  1
  O  O70  1  0.69127116  0.53739224  0.53228876  1
  O  O71  1  0.84902131  0.30579824  0.52836060  1
  O  O72  1  0.54447015  0.69459491  0.97364420  1
  O  O73  1  0.14837408  0.45850924  0.96793703  1
  O  O74  1  0.31258484  0.86029240  0.97742146  1
  O  O75  1  0.54770656  0.86029240  0.47742146  1
  O  O76  1  0.31013416  0.45850924  0.46793703  1
  O  O77  1  0.15012376  0.69459491  0.47364420  1
  O  O78  1  0.12344393  0.63913224  0.36169460  1
  O  O79  1  0.51278808  0.87072624  0.36562276  1
  O  O80  1  0.35786823  0.47132437  0.36032218  1
  O  O81  1  0.11345514  0.47132437  0.86032218  1
  O  O82  1  0.35793716  0.87072624  0.86562276  1
  O  O83  1  0.51568731  0.63913224  0.86169460  1
  O  O84  1  0.02652657  0.83503320  0.41034362  1
  O  O85  1  0.81496121  0.99341959  0.41285398  1
  O  O86  1  0.17701902  0.19754980  0.41211205  1
  O  O87  1  0.02053078  0.19754980  0.91211205  1
  O  O88  1  0.17845838  0.99341959  0.91285398  1
  O  O89  1  0.80850663  0.83503320  0.91034362  1
  O  O90  1  0.97632785  0.17020939  0.58827981  1
  O  O91  1  0.19521187  0.01273985  0.58862919  1
  O  O92  1  0.83502893  0.80975677  0.58857767  1
  O  O93  1  0.97472784  0.80975677  0.08857767  1
  O  O94  1  0.81752799  0.01273985  0.08862919  1
  O  O95  1  0.19388154  0.17020939  0.08827981  1
  O  O96  1  0.69319357  0.16836620  0.74367662  1
  O  O97  1  0.48162821  0.32675259  0.74618698  1
  O  O98  1  0.84368602  0.53088280  0.74544505  1
  O  O99  1  0.68719778  0.53088280  0.24544505  1
  O  O100  1  0.84512538  0.32675259  0.24618698  1
  O  O101  1  0.47517363  0.16836620  0.24367662  1
  O  O102  1  0.64299485  0.50354239  0.92161281  1
  O  O103  1  0.86187887  0.34607285  0.92196219  1
  O  O104  1  0.50169593  0.14308977  0.92191067  1
  O  O105  1  0.64139484  0.14308977  0.42191067  1
  O  O106  1  0.48419499  0.34607285  0.42196219  1
  O  O107  1  0.86054854  0.50354239  0.42161281  1
  O  O108  1  0.35985957  0.50170020  0.07701062  1
  O  O109  1  0.14829421  0.66008659  0.07952098  1
  O  O110  1  0.51035202  0.86421680  0.07877905  1
  O  O111  1  0.35386378  0.86421680  0.57877905  1
  O  O112  1  0.51179138  0.66008659  0.57952098  1
  O  O113  1  0.14183963  0.50170020  0.57701062  1
  O  O114  1  0.30966085  0.83687639  0.25494681  1
  O  O115  1  0.52854487  0.67940685  0.25529619  1
  O  O116  1  0.16836193  0.47642377  0.25524467  1
  O  O117  1  0.30806084  0.47642377  0.75524467  1
  O  O118  1  0.15086099  0.67940685  0.75529619  1
  O  O119  1  0.52721454  0.83687639  0.75494681  1
