# generated using pymatgen
data_Na5Hf4Si3(PO8)3
_symmetry_space_group_name_H-M   'P 1'
_cell_length_a   9.04130837
_cell_length_b   9.04433997
_cell_length_c   22.93314338
_cell_angle_alpha   90.01525817
_cell_angle_beta   90.01005850
_cell_angle_gamma   119.96320522
_symmetry_Int_Tables_number   1
_chemical_formula_structural   Na5Hf4Si3(PO8)3
_chemical_formula_sum   'Na15 Hf12 Si9 P9 O72'
_cell_volume   1624.66281070
_cell_formula_units_Z   3
loop_
 _symmetry_equiv_pos_site_id
 _symmetry_equiv_pos_as_xyz
  1  'x, y, z'
loop_
 _atom_site_type_symbol
 _atom_site_label
 _atom_site_symmetry_multiplicity
 _atom_site_fract_x
 _atom_site_fract_y
 _atom_site_fract_z
 _atom_site_occupancy
  Na  Na0  1  0.00061166  0.63010497  0.25003869  1
  Na  Na1  1  0.36853438  0.00001438  0.75058302  1
  Na  Na2  1  0.03048495  0.70095928  0.58092685  1
  Na  Na3  1  0.66125282  0.96429198  0.58491779  1
  Na  Na4  1  0.29811452  0.96962306  0.08088492  1
  Na  Na5  1  0.03467222  0.33875485  0.08562085  1
  Na  Na6  1  0.97269318  0.66905450  0.91876894  1
  Na  Na7  1  0.96522208  0.30215022  0.41393695  1
  Na  Na8  1  0.33606832  0.02736549  0.41771066  1
  Na  Na9  1  0.99752978  0.99185246  0.49989765  1
  Na  Na10  1  0.99878251  0.99883897  0.99930867  1
  Na  Na11  1  0.66514847  0.32485385  0.83356517  1
  Na  Na12  1  0.66574121  0.33133980  0.33259491  1
  Na  Na13  1  0.34436834  0.65847610  0.16763686  1
  Na  Na14  1  0.34030316  0.65379474  0.66705094  1
  Hf  Hf15  1  0.99077017  0.99585138  0.35206212  1
  Hf  Hf16  1  0.99888550  0.00705469  0.85282602  1
  Hf  Hf17  1  0.99889427  0.00119163  0.64827036  1
  Hf  Hf18  1  0.99889718  0.00081893  0.14783018  1
  Hf  Hf19  1  0.66623107  0.33432942  0.68636742  1
  Hf  Hf20  1  0.66623827  0.33313401  0.18580989  1
  Hf  Hf21  1  0.65630341  0.32860948  0.98038403  1
  Hf  Hf22  1  0.66564069  0.34004047  0.48106164  1
  Hf  Hf23  1  0.33457067  0.66633445  0.01857568  1
  Hf  Hf24  1  0.33985996  0.67088614  0.51909575  1
  Hf  Hf25  1  0.33426940  0.66600269  0.31411304  1
  Hf  Hf26  1  0.34056320  0.67024156  0.81378486  1
  Si  Si27  1  0.00024577  0.29516318  0.24990805  1
  Si  Si28  1  0.70665534  0.00118043  0.74937185  1
  Si  Si29  1  0.37235202  0.04234802  0.58316530  1
  Si  Si30  1  0.66454334  0.62492776  0.58476913  1
  Si  Si31  1  0.95687246  0.62596123  0.08214777  1
  Si  Si32  1  0.37527978  0.33563633  0.08446116  1
  Si  Si33  1  0.33457428  0.96167888  0.91594048  1
  Si  Si34  1  0.62717937  0.95979690  0.41707116  1
  Si  Si35  1  0.04056290  0.66700143  0.41659972  1
  P  P36  1  0.29269083  0.00161528  0.25081985  1
  P  P37  1  0.70728460  0.70819261  0.24916344  1
  P  P38  1  0.28952402  0.29153008  0.75010479  1
  P  P39  1  0.99877085  0.70769827  0.75125994  1
  P  P40  1  0.95704923  0.33331748  0.58287658  1
  P  P41  1  0.66677460  0.04388697  0.08289365  1
  P  P42  1  0.62543353  0.66693923  0.91626263  1
  P  P43  1  0.04325365  0.37572548  0.91683273  1
  P  P44  1  0.33383784  0.37664375  0.41602021  1
  O  O45  1  0.20537570  0.02225499  0.30557439  1
  O  O46  1  0.82371715  0.79244263  0.30319180  1
  O  O47  1  0.97813911  0.17971827  0.30783951  1
  O  O48  1  0.20511283  0.17426249  0.80379189  1
  O  O49  1  0.97801726  0.79647054  0.80578443  1
  O  O50  1  0.82790320  0.02363101  0.80503457  1
  O  O51  1  0.79394349  0.97646938  0.69040667  1
  O  O52  1  0.17993628  0.20398794  0.69585423  1
  O  O53  1  0.03108287  0.82285602  0.69656964  1
  O  O54  1  0.79600067  0.81893885  0.19541114  1
  O  O55  1  0.02167307  0.20239834  0.19170162  1
  O  O56  1  0.17727900  0.97082536  0.19623065  1
  O  O57  1  0.87040560  0.36370063  0.63606388  1
  O  O58  1  0.49558365  0.12858637  0.64028104  1
  O  O59  1  0.64340157  0.50752531  0.64102983  1
  O  O60  1  0.87183475  0.50360225  0.13975375  1
  O  O61  1  0.63333631  0.12525098  0.13706230  1
  O  O62  1  0.49268140  0.35847965  0.14095766  1
  O  O63  1  0.46148507  0.29449682  0.02845382  1
  O  O64  1  0.84499208  0.53513842  0.02385654  1
  O  O65  1  0.69986266  0.15949757  0.02951074  1
  O  O66  1  0.46277614  0.15454567  0.52464716  1
  O  O67  1  0.70540706  0.53998719  0.52832180  1
  O  O68  1  0.84556930  0.30122228  0.52751328  1
  O  O69  1  0.53945305  0.69096881  0.97053266  1
  O  O70  1  0.15112131  0.45808595  0.97283903  1
  O  O71  1  0.30322629  0.84100006  0.97388501  1
  O  O72  1  0.54168761  0.84566224  0.47577536  1
  O  O73  1  0.30052286  0.45773798  0.46974639  1
  O  O74  1  0.15841441  0.69572039  0.47461473  1
  O  O75  1  0.12952925  0.63429823  0.35904395  1
  O  O76  1  0.50075895  0.86586775  0.36194310  1
  O  O77  1  0.35989866  0.48762395  0.36192297  1
  O  O78  1  0.13330233  0.49241053  0.86403622  1
  O  O79  1  0.35431033  0.86441463  0.85853775  1
  O  O80  1  0.51347231  0.64037687  0.86246931  1
  O  O81  1  0.03591445  0.84456364  0.40956681  1
  O  O82  1  0.82110820  0.98999070  0.41140118  1
  O  O83  1  0.17359919  0.19599057  0.40905741  1
  O  O84  1  0.02378832  0.19795828  0.91059861  1
  O  O85  1  0.15615819  0.96768547  0.90993638  1
  O  O86  1  0.80714942  0.82496238  0.90980234  1
  O  O87  1  0.97052633  0.17107313  0.59035801  1
  O  O88  1  0.17979813  0.01254005  0.58980787  1
  O  O89  1  0.83615699  0.81638236  0.59035973  1
  O  O90  1  0.98770395  0.81890637  0.08972252  1
  O  O91  1  0.82812966  0.02869149  0.09037890  1
  O  O92  1  0.18373398  0.16388516  0.09018064  1
  O  O93  1  0.67786103  0.16657432  0.74577772  1
  O  O94  1  0.46662018  0.30298280  0.74422218  1
  O  O95  1  0.84093978  0.53054666  0.74449176  1
  O  O96  1  0.69672290  0.53192649  0.24371052  1
  O  O97  1  0.83260474  0.32100995  0.24574851  1
  O  O98  1  0.46991642  0.15887296  0.24406819  1
  O  O99  1  0.65208498  0.51024913  0.92208278  1
  O  O100  1  0.86751913  0.36603281  0.92265193  1
  O  O101  1  0.50554677  0.14873765  0.92084471  1
  O  O102  1  0.64406662  0.14895292  0.42242661  1
  O  O103  1  0.48982557  0.35105286  0.42217607  1
  O  O104  1  0.85598436  0.49214495  0.42194982  1
  O  O105  1  0.34587969  0.49826864  0.07706835  1
  O  O106  1  0.14927639  0.64594702  0.07660829  1
  O  O107  1  0.50435498  0.86728921  0.07550724  1
  O  O108  1  0.35161430  0.85001111  0.57810373  1
  O  O109  1  0.49929492  0.65065903  0.57897367  1
  O  O110  1  0.13286480  0.49542722  0.57651040  1
  O  O111  1  0.30321286  0.83523922  0.25585471  1
  O  O112  1  0.53046316  0.68993552  0.25609762  1
  O  O113  1  0.16785763  0.48846305  0.25413909  1
  O  O114  1  0.30726083  0.46769891  0.75743371  1
  O  O115  1  0.16313251  0.69404739  0.75713523  1
  O  O116  1  0.51324632  0.83236441  0.75509863  1
