# generated using pymatgen
data_CaNb5(PO4)9
_symmetry_space_group_name_H-M   'P 1'
_cell_length_a   8.86910161
_cell_length_b   8.86910131
_cell_length_c   22.86195892
_cell_angle_alpha   90.00000000
_cell_angle_beta   90.00000000
_cell_angle_gamma   120.00000108
_symmetry_Int_Tables_number   1
_chemical_formula_structural   CaNb5(PO4)9
_chemical_formula_sum   'Ca2 Nb10 P18 O72'
_cell_volume   1557.41127076
_cell_formula_units_Z   2
loop_
 _symmetry_equiv_pos_site_id
 _symmetry_equiv_pos_as_xyz
  1  'x, y, z'
loop_
 _atom_site_type_symbol
 _atom_site_label
 _atom_site_symmetry_multiplicity
 _atom_site_fract_x
 _atom_site_fract_y
 _atom_site_fract_z
 _atom_site_occupancy
  Ca  Ca0  1  0.66666700  0.33333300  0.69367271  1
  Ca  Ca1  1  0.66666700  0.33333300  0.19367271  1
  Nb  Nb2  1  0.00000000  0.00000000  0.35920407  1
  Nb  Nb3  1  0.00000000  0.00000000  0.85920407  1
  Nb  Nb4  1  0.00000000  0.00000000  0.64261893  1
  Nb  Nb5  1  0.00000000  0.00000000  0.14261893  1
  Nb  Nb6  1  0.66666700  0.33333300  0.97907803  1
  Nb  Nb7  1  0.66666700  0.33333300  0.47907803  1
  Nb  Nb8  1  0.33333300  0.66666700  0.02073617  1
  Nb  Nb9  1  0.33333300  0.66666700  0.52073617  1
  Nb  Nb10  1  0.33333300  0.66666700  0.30671701  1
  Nb  Nb11  1  0.33333300  0.66666700  0.80671701  1
  P  P12  1  0.27211334  0.98958816  0.25191351  1
  P  P13  1  0.71747483  0.72788666  0.25191351  1
  P  P14  1  0.01041184  0.28252517  0.25191351  1
  P  P15  1  0.27211334  0.28252517  0.75191351  1
  P  P16  1  0.01041184  0.72788666  0.75191351  1
  P  P17  1  0.71747483  0.98958816  0.75191351  1
  P  P18  1  0.95567551  0.33368016  0.58310780  1
  P  P19  1  0.37800564  0.04432449  0.58310780  1
  P  P20  1  0.66631984  0.62199436  0.58310780  1
  P  P21  1  0.95567551  0.62199436  0.08310780  1
  P  P22  1  0.66631984  0.04432449  0.08310780  1
  P  P23  1  0.37800564  0.33368016  0.08310780  1
  P  P24  1  0.61332623  0.66005080  0.91507731  1
  P  P25  1  0.04672357  0.38667377  0.91507731  1
  P  P26  1  0.33994920  0.95327643  0.91507731  1
  P  P27  1  0.61332623  0.95327643  0.41507731  1
  P  P28  1  0.33994920  0.38667377  0.41507731  1
  P  P29  1  0.04672357  0.66005080  0.41507731  1
  O  O30  1  0.17319260  0.99647895  0.30738342  1
  O  O31  1  0.82328635  0.82680740  0.30738342  1
  O  O32  1  0.00352105  0.17671365  0.30738342  1
  O  O33  1  0.17319260  0.17671365  0.80738342  1
  O  O34  1  0.00352105  0.82680740  0.80738342  1
  O  O35  1  0.82328635  0.99647895  0.80738342  1
  O  O36  1  0.80393441  0.96211332  0.69640044  1
  O  O37  1  0.15817890  0.19606559  0.69640044  1
  O  O38  1  0.03788668  0.84182110  0.69640044  1
  O  O39  1  0.80393441  0.84182110  0.19640044  1
  O  O40  1  0.03788668  0.19606559  0.19640044  1
  O  O41  1  0.15817890  0.96211332  0.19640044  1
  O  O42  1  0.89867373  0.38477360  0.63681920  1
  O  O43  1  0.48610087  0.10132627  0.63681920  1
  O  O44  1  0.61522640  0.51389913  0.63681920  1
  O  O45  1  0.89867373  0.51389913  0.13681920  1
  O  O46  1  0.61522640  0.10132627  0.13681920  1
  O  O47  1  0.48610087  0.38477360  0.13681920  1
  O  O48  1  0.46728203  0.30083272  0.02874562  1
  O  O49  1  0.83355170  0.53271797  0.02874562  1
  O  O50  1  0.69916728  0.16644830  0.02874562  1
  O  O51  1  0.46728203  0.16644830  0.52874562  1
  O  O52  1  0.69916728  0.53271797  0.52874562  1
  O  O53  1  0.83355170  0.30083272  0.52874562  1
  O  O54  1  0.52911473  0.69370308  0.96842779  1
  O  O55  1  0.16458734  0.47088527  0.96842779  1
  O  O56  1  0.30629692  0.83541266  0.96842779  1
  O  O57  1  0.52911473  0.83541266  0.46842779  1
  O  O58  1  0.30629692  0.47088527  0.46842779  1
  O  O59  1  0.16458734  0.69370308  0.46842779  1
  O  O60  1  0.12996764  0.62773853  0.36090356  1
  O  O61  1  0.49776989  0.87003236  0.36090356  1
  O  O62  1  0.37226147  0.50223011  0.36090356  1
  O  O63  1  0.12996764  0.50223011  0.86090356  1
  O  O64  1  0.37226147  0.87003236  0.86090356  1
  O  O65  1  0.49776989  0.62773853  0.86090356  1
  O  O66  1  0.02132597  0.81956412  0.40690853  1
  O  O67  1  0.79823816  0.97867403  0.40690853  1
  O  O68  1  0.18043588  0.20176184  0.40690853  1
  O  O69  1  0.02132597  0.20176184  0.90690853  1
  O  O70  1  0.18043588  0.97867403  0.90690853  1
  O  O71  1  0.79823816  0.81956412  0.90690853  1
  O  O72  1  0.97048813  0.16619518  0.59141695  1
  O  O73  1  0.19570704  0.02951187  0.59141695  1
  O  O74  1  0.83380482  0.80429296  0.59141695  1
  O  O75  1  0.97048813  0.80429296  0.09141695  1
  O  O76  1  0.83380482  0.02951187  0.09141695  1
  O  O77  1  0.19570704  0.16619518  0.09141695  1
  O  O78  1  0.69794242  0.14509577  0.75018246  1
  O  O79  1  0.44715435  0.30205758  0.75018246  1
  O  O80  1  0.85490423  0.55284565  0.75018246  1
  O  O81  1  0.69794242  0.55284565  0.25018246  1
  O  O82  1  0.85490423  0.30205758  0.25018246  1
  O  O83  1  0.44715435  0.14509577  0.25018246  1
  O  O84  1  0.63339753  0.49919070  0.92762093  1
  O  O85  1  0.86579416  0.36660247  0.92762093  1
  O  O86  1  0.50080930  0.13420584  0.92762093  1
  O  O87  1  0.63339753  0.13420584  0.42762093  1
  O  O88  1  0.50080930  0.36660247  0.42762093  1
  O  O89  1  0.86579416  0.49919070  0.42762093  1
  O  O90  1  0.34166840  0.48287619  0.06441053  1
  O  O91  1  0.14120679  0.65833160  0.06441053  1
  O  O92  1  0.51712381  0.85879321  0.06441053  1
  O  O93  1  0.34166840  0.85879321  0.56441053  1
  O  O94  1  0.51712381  0.65833160  0.56441053  1
  O  O95  1  0.14120679  0.48287619  0.56441053  1
  O  O96  1  0.27868561  0.81599960  0.26000631  1
  O  O97  1  0.53731299  0.72131439  0.26000631  1
  O  O98  1  0.18400040  0.46268701  0.26000631  1
  O  O99  1  0.27868561  0.46268701  0.76000631  1
  O  O100  1  0.18400040  0.72131439  0.76000631  1
  O  O101  1  0.53731299  0.81599960  0.76000631  1
