# generated using pymatgen
data_Na2Si5Sn4Ge4S7O48
_symmetry_space_group_name_H-M   'P 1'
_cell_length_a   17.29341752
_cell_length_b   8.61360669
_cell_length_c   22.54774139
_cell_angle_alpha   89.90554826
_cell_angle_beta   90.97653411
_cell_angle_gamma   120.05533259
_symmetry_Int_Tables_number   1
_chemical_formula_structural   Na2Si5Sn4Ge4S7O48
_chemical_formula_sum   'Na6 Si15 Sn12 Ge12 S21 O144'
_cell_volume   2906.56665451
_cell_formula_units_Z   3
loop_
 _symmetry_equiv_pos_site_id
 _symmetry_equiv_pos_as_xyz
  1  'x, y, z'
loop_
 _atom_site_type_symbol
 _atom_site_label
 _atom_site_symmetry_multiplicity
 _atom_site_fract_x
 _atom_site_fract_y
 _atom_site_fract_z
 _atom_site_occupancy
  Na  Na0  1  0.99365496  0.00022604  0.49921355  1
  Na  Na1  1  0.49279902  0.98647849  0.99584735  1
  Na  Na2  1  0.34496105  0.35274038  0.83219252  1
  Na  Na3  1  0.83322662  0.34288826  0.83096056  1
  Na  Na4  1  0.33645562  0.32805326  0.33242220  1
  Na  Na5  1  0.83841934  0.33658842  0.33588368  1
  Si  Si6  1  0.14057526  0.00726577  0.24651485  1
  Si  Si7  1  0.50788068  0.29283766  0.25613475  1
  Si  Si8  1  0.64075893  0.27096709  0.74584071  1
  Si  Si9  1  0.00792589  0.72249452  0.75636802  1
  Si  Si10  1  0.49715503  0.71102472  0.74939739  1
  Si  Si11  1  0.97856487  0.32711314  0.58581996  1
  Si  Si12  1  0.33516395  0.63936940  0.58515831  1
  Si  Si13  1  0.48033011  0.63013504  0.08547295  1
  Si  Si14  1  0.83398951  0.03307114  0.08530926  1
  Si  Si15  1  0.30546593  0.67011013  0.91265383  1
  Si  Si16  1  0.02364602  0.37017914  0.91274684  1
  Si  Si17  1  0.52722292  0.38134026  0.92175871  1
  Si  Si18  1  0.80342503  0.93836258  0.41269698  1
  Si  Si19  1  0.02670345  0.66430044  0.42251922  1
  Si  Si20  1  0.52226684  0.67610255  0.41390635  1
  Sn  Sn21  1  0.99802271  0.98147379  0.35581136  1
  Sn  Sn22  1  0.49617120  0.00026434  0.85272604  1
  Sn  Sn23  1  0.00204318  0.99831914  0.65019255  1
  Sn  Sn24  1  0.50097445  0.00499884  0.14947219  1
  Sn  Sn25  1  0.83972368  0.35065333  0.68969022  1
  Sn  Sn26  1  0.34044188  0.32771880  0.18903001  1
  Sn  Sn27  1  0.33635001  0.35539183  0.97602407  1
  Sn  Sn28  1  0.84330524  0.33045202  0.97977006  1
  Sn  Sn29  1  0.34374870  0.35818521  0.48251670  1
  Sn  Sn30  1  0.83474352  0.31467523  0.47780666  1
  Sn  Sn31  1  0.15999340  0.67703110  0.31121074  1
  Sn  Sn32  1  0.65388338  0.63692122  0.80595550  1
  Ge  Ge33  1  0.49885765  0.00731145  0.35990961  1
  Ge  Ge34  1  0.99810378  0.99330411  0.85794905  1
  Ge  Ge35  1  0.49773338  0.98481519  0.65085809  1
  Ge  Ge36  1  0.99969507  0.99637150  0.14400683  1
  Ge  Ge37  1  0.34055054  0.36086556  0.68358327  1
  Ge  Ge38  1  0.83189502  0.32031885  0.18083253  1
  Ge  Ge39  1  0.16794944  0.64687098  0.01068009  1
  Ge  Ge40  1  0.65873954  0.66929291  0.02748062  1
  Ge  Ge41  1  0.15822268  0.65545217  0.53221309  1
  Ge  Ge42  1  0.66584416  0.68895597  0.51469835  1
  Ge  Ge43  1  0.65465461  0.66075087  0.31672445  1
  Ge  Ge44  1  0.15811305  0.65066607  0.81408603  1
  S  S45  1  0.65137359  0.00449297  0.25175576  1
  S  S46  1  0.35375522  0.71223708  0.25428319  1
  S  S47  1  0.85112223  0.69506475  0.24462169  1
  S  S48  1  0.99600426  0.28607476  0.24721150  1
  S  S49  1  0.14914950  0.29574951  0.75248504  1
  S  S50  1  0.34886220  0.00319661  0.74581447  1
  S  S51  1  0.85634276  0.99673544  0.75411467  1
  S  S52  1  0.48474509  0.33773172  0.58403348  1
  S  S53  1  0.19368735  0.04857936  0.58320392  1
  S  S54  1  0.68439316  0.03561705  0.58235846  1
  S  S55  1  0.82411710  0.62276702  0.57920499  1
  S  S56  1  0.98245654  0.62790119  0.08512366  1
  S  S57  1  0.32365007  0.02491089  0.07953117  1
  S  S58  1  0.18433384  0.33452983  0.08308113  1
  S  S59  1  0.69308316  0.34014867  0.08275845  1
  S  S60  1  0.81340454  0.67184682  0.91779537  1
  S  S61  1  0.16277502  0.94620875  0.91788669  1
  S  S62  1  0.66814356  0.95153135  0.91776373  1
  S  S63  1  0.31529116  0.96011253  0.41861853  1
  S  S64  1  0.16798511  0.38352906  0.41675924  1
  S  S65  1  0.66343447  0.38015322  0.41786659  1
  O  O66  1  0.10145950  0.04739787  0.30626158  1
  O  O67  1  0.61169872  0.03914887  0.30360314  1
  O  O68  1  0.41196253  0.79679444  0.30693854  1
  O  O69  1  0.90816293  0.76093866  0.30019723  1
  O  O70  1  0.48841785  0.15452977  0.31143683  1
  O  O71  1  0.97627843  0.17956553  0.30205769  1
  O  O72  1  0.10746601  0.18167365  0.80453347  1
  O  O73  1  0.60300351  0.16244908  0.80718288  1
  O  O74  1  0.47003212  0.77708909  0.80871016  1
  O  O75  1  0.98831978  0.82071575  0.81175333  1
  O  O76  1  0.40587781  0.05598012  0.80122724  1
  O  O77  1  0.91661004  0.03461387  0.80654893  1
  O  O78  1  0.39100406  0.97208569  0.69431242  1
  O  O79  1  0.89254030  0.96692230  0.69849193  1
  O  O80  1  0.09368059  0.22451207  0.69688952  1
  O  O81  1  0.57604751  0.18509906  0.68700269  1
  O  O82  1  0.02306121  0.82977828  0.69356760  1
  O  O83  1  0.50978601  0.82331822  0.68946755  1
  O  O84  1  0.38949633  0.81668991  0.19896783  1
  O  O85  1  0.89366311  0.81093807  0.19297979  1
  O  O86  1  0.00650235  0.19946145  0.19441578  1
  O  O87  1  0.52290718  0.21489057  0.19386935  1
  O  O88  1  0.07573317  0.97175701  0.18847952  1
  O  O89  1  0.59743703  0.97104802  0.19603609  1
  O  O90  1  0.44196200  0.37540584  0.63529399  1
  O  O91  1  0.93682284  0.36651906  0.64344314  1
  O  O92  1  0.24828660  0.13456053  0.63735183  1
  O  O93  1  0.74404634  0.11520587  0.63456040  1
  O  O94  1  0.30953674  0.49416549  0.64006933  1
  O  O95  1  0.81077423  0.51992910  0.63449949  1
  O  O96  1  0.43908823  0.50976725  0.14467789  1
  O  O97  1  0.93999789  0.50924114  0.13810685  1
  O  O98  1  0.31005255  0.09919184  0.13550191  1
  O  O99  1  0.81097053  0.12322194  0.14305055  1
  O  O100  1  0.24209504  0.37178588  0.13641729  1
  O  O101  1  0.74803343  0.36623194  0.13885285  1
  O  O102  1  0.22040405  0.29284828  0.03006359  1
  O  O103  1  0.73296152  0.30621126  0.03033246  1
  O  O104  1  0.41535600  0.55577046  0.02735374  1
  O  O105  1  0.92326789  0.55642834  0.03121613  1
  O  O106  1  0.33887603  0.14156918  0.02803159  1
  O  O107  1  0.86093468  0.16637902  0.02935964  1
  O  O108  1  0.23142521  0.15635355  0.52838972  1
  O  O109  1  0.72184148  0.14691053  0.52792638  1
  O  O110  1  0.36033239  0.56414144  0.52674349  1
  O  O111  1  0.83940920  0.53823701  0.52685099  1
  O  O112  1  0.42593947  0.29173155  0.52875309  1
  O  O113  1  0.91733397  0.27470916  0.52578894  1
  O  O114  1  0.26793538  0.70734590  0.97502306  1
  O  O115  1  0.77596683  0.70228291  0.97095669  1
  O  O116  1  0.07966987  0.45433906  0.97577706  1
  O  O117  1  0.59345684  0.48242962  0.98007369  1
  O  O118  1  0.14574954  0.83329077  0.97257257  1
  O  O119  1  0.66230319  0.85359673  0.97321120  1
  O  O120  1  0.27595915  0.84964940  0.47006740  1
  O  O121  1  0.76518160  0.82338559  0.47390797  1
  O  O122  1  0.16156996  0.47178978  0.47012195  1
  O  O123  1  0.64698472  0.45751851  0.47149139  1
  O  O124  1  0.09589247  0.69971238  0.47830531  1
  O  O125  1  0.58075940  0.70647055  0.47492750  1
  O  O126  1  0.05786878  0.61508819  0.36065138  1
  O  O127  1  0.56210633  0.63086561  0.35601872  1
  O  O128  1  0.26334276  0.88764948  0.36150751  1
  O  O129  1  0.74728478  0.83982468  0.35219238  1
  O  O130  1  0.18485973  0.48887849  0.36106248  1
  O  O131  1  0.68060324  0.48820644  0.36378628  1
  O  O132  1  0.06562787  0.49810024  0.85614630  1
  O  O133  1  0.56059881  0.50145979  0.86259675  1
  O  O134  1  0.18055595  0.87263089  0.86472758  1
  O  O135  1  0.68530037  0.87857602  0.86417755  1
  O  O136  1  0.24681428  0.65304441  0.85372301  1
  O  O137  1  0.76069558  0.64206545  0.86245236  1
  O  O138  1  0.02415551  0.85167268  0.41945612  1
  O  O139  1  0.51517636  0.85582424  0.40197569  1
  O  O140  1  0.40588549  0.98038955  0.41147417  1
  O  O141  1  0.90550851  0.97362620  0.40839728  1
  O  O142  1  0.08320653  0.20921141  0.41205476  1
  O  O143  1  0.58319246  0.19846778  0.41118387  1
  O  O144  1  0.01568786  0.17493652  0.90285306  1
  O  O145  1  0.52352016  0.18926750  0.91716863  1
  O  O146  1  0.08290080  0.96664578  0.91170299  1
  O  O147  1  0.58534196  0.96009791  0.91497475  1
  O  O148  1  0.40495539  0.84165925  0.91224135  1
  O  O149  1  0.90511089  0.83182973  0.91128677  1
  O  O150  1  0.49330866  0.17974197  0.59296385  1
  O  O151  1  0.99275872  0.15300289  0.59116812  1
  O  O152  1  0.10237190  0.02474102  0.58679869  1
  O  O153  1  0.59560402  0.01342040  0.58859205  1
  O  O154  1  0.41927320  0.83875672  0.59735072  1
  O  O155  1  0.90650300  0.80311027  0.58524327  1
  O  O156  1  0.49273906  0.83180130  0.09159136  1
  O  O157  1  0.98936489  0.80550831  0.09295753  1
  O  O158  1  0.40618711  0.01038809  0.08595711  1
  O  O159  1  0.92156602  0.01439415  0.10017460  1
  O  O160  1  0.09362933  0.17740970  0.09130662  1
  O  O161  1  0.60318137  0.17901321  0.08791039  1
  O  O162  1  0.33655452  0.16381121  0.73496958  1
  O  O163  1  0.84793252  0.15851654  0.74867300  1
  O  O164  1  0.23634372  0.30354283  0.74470764  1
  O  O165  1  0.73794138  0.28159721  0.74040253  1
  O  O166  1  0.41032231  0.50340103  0.74092452  1
  O  O167  1  0.91743079  0.52668386  0.75291220  1
  O  O168  1  0.34519244  0.53359271  0.24872842  1
  O  O169  1  0.84387140  0.51060712  0.23600232  1
  O  O170  1  0.41744566  0.30736179  0.25306567  1
  O  O171  1  0.91750973  0.31797886  0.23980307  1
  O  O172  1  0.23830115  0.18644530  0.24062686  1
  O  O173  1  0.74163953  0.17369059  0.24437828  1
  O  O174  1  0.30194719  0.47662224  0.91498313  1
  O  O175  1  0.82199032  0.50598879  0.92355056  1
  O  O176  1  0.42438891  0.34484377  0.92469818  1
  O  O177  1  0.92545184  0.35433825  0.91646766  1
  O  O178  1  0.24286855  0.12569237  0.92617042  1
  O  O179  1  0.74590493  0.14058717  0.92256891  1
  O  O180  1  0.32362330  0.14105125  0.42371790  1
  O  O181  1  0.80312101  0.12742495  0.41475981  1
  O  O182  1  0.24431951  0.34809404  0.42104764  1
  O  O183  1  0.74329355  0.35914346  0.42428964  1
  O  O184  1  0.42382473  0.49625711  0.41721119  1
  O  O185  1  0.92384692  0.49866069  0.42451638  1
  O  O186  1  0.17660386  0.49954585  0.07469638  1
  O  O187  1  0.68768113  0.50341027  0.07858170  1
  O  O188  1  0.06988342  0.64420720  0.07667984  1
  O  O189  1  0.57697290  0.64806427  0.07717669  1
  O  O190  1  0.24281788  0.84566772  0.07224407  1
  O  O191  1  0.75019790  0.83687807  0.06976949  1
  O  O192  1  0.18751376  0.87244311  0.57844157  1
  O  O193  1  0.67897711  0.85551834  0.57478286  1
  O  O194  1  0.24833659  0.65939368  0.56939947  1
  O  O195  1  0.74334937  0.63952248  0.57177783  1
  O  O196  1  0.07519290  0.50678689  0.57839083  1
  O  O197  1  0.57230919  0.50222584  0.57409431  1
  O  O198  1  0.15205603  0.83141157  0.25071342  1
  O  O199  1  0.66194684  0.84550558  0.25780963  1
  O  O200  1  0.26407475  0.69098086  0.26056959  1
  O  O201  1  0.76422837  0.67595646  0.25320222  1
  O  O202  1  0.07942571  0.46144224  0.25247336  1
  O  O203  1  0.59849184  0.48642161  0.26457314  1
  O  O204  1  0.16022795  0.47687155  0.75814815  1
  O  O205  1  0.66046858  0.47529780  0.74904400  1
  O  O206  1  0.09822046  0.71098869  0.76436000  1
  O  O207  1  0.58988763  0.70974733  0.75216213  1
  O  O208  1  0.26232085  0.84283252  0.75508399  1
  O  O209  1  0.76950695  0.83742106  0.76183578  1
