# generated using pymatgen
data_TaCl4
_symmetry_space_group_name_H-M   'P 1'
_cell_length_a   6.78838734
_cell_length_b   6.99604497
_cell_length_c   7.17946235
_cell_angle_alpha   71.68856056
_cell_angle_beta   61.78609957
_cell_angle_gamma   60.97711181
_symmetry_Int_Tables_number   1
_chemical_formula_structural   TaCl4
_chemical_formula_sum   'Ta2 Cl8'
_cell_volume   261.12955796
_cell_formula_units_Z   2
loop_
 _symmetry_equiv_pos_site_id
 _symmetry_equiv_pos_as_xyz
  1  'x, y, z'
loop_
 _atom_site_type_symbol
 _atom_site_label
 _atom_site_symmetry_multiplicity
 _atom_site_fract_x
 _atom_site_fract_y
 _atom_site_fract_z
 _atom_site_occupancy
  Ta  Ta0  1  0.28174836  0.00000000  0.00000000  1
  Ta  Ta1  1  0.71825164  -0.00000000  -0.00000000  1
  Cl  Cl2  1  0.23406950  0.74663424  0.29657977  1
  Cl  Cl3  1  0.27728351  0.25336576  0.70342023  1
  Cl  Cl4  1  0.82145576  0.20259069  0.15449880  1
  Cl  Cl5  1  0.17854424  0.79740931  0.84550120  1
  Cl  Cl6  1  0.70644366  0.76559556  0.82151713  1
  Cl  Cl7  1  0.29355634  0.23440444  0.17848287  1
  Cl  Cl8  1  0.72271649  0.74663424  0.29657977  1
  Cl  Cl9  1  0.76593050  0.25336576  0.70342023  1
