# generated using pymatgen
data_V(GeO3)2
_symmetry_space_group_name_H-M   'P 1'
_cell_length_a   5.59759143
_cell_length_b   6.66462380
_cell_length_c   6.77809195
_cell_angle_alpha   83.33781571
_cell_angle_beta   75.00840883
_cell_angle_gamma   75.26535426
_symmetry_Int_Tables_number   1
_chemical_formula_structural   V(GeO3)2
_chemical_formula_sum   'V2 Ge4 O12'
_cell_volume   235.88176987
_cell_formula_units_Z   2
loop_
 _symmetry_equiv_pos_site_id
 _symmetry_equiv_pos_as_xyz
  1  'x, y, z'
loop_
 _atom_site_type_symbol
 _atom_site_label
 _atom_site_symmetry_multiplicity
 _atom_site_fract_x
 _atom_site_fract_y
 _atom_site_fract_z
 _atom_site_occupancy
  V  V0  1  0.74660600  0.90489700  0.09899300  1
  V  V1  1  0.25339400  0.09510300  0.90100700  1
  Ge  Ge2  1  0.76275400  0.38135700  0.20922200  1
  Ge  Ge3  1  0.73714700  0.79175200  0.61475600  1
  Ge  Ge4  1  0.23724600  0.61864300  0.79077800  1
  Ge  Ge5  1  0.26285300  0.20824800  0.38524400  1
  O  O6  1  0.44471300  0.39622900  0.33745300  1
  O  O7  1  0.05215000  0.65955600  0.61122800  1
  O  O8  1  0.55528700  0.60377100  0.66254700  1
  O  O9  1  0.94785000  0.34044400  0.38877200  1
  O  O10  1  0.24381900  0.08160000  0.62805400  1
  O  O11  1  0.24796300  0.36917900  0.91479200  1
  O  O12  1  0.75618100  0.91840000  0.37194600  1
  O  O13  1  0.75203700  0.63082100  0.08520800  1
  O  O14  1  0.87519200  0.17114200  0.03836500  1
  O  O15  1  0.61708100  0.96088500  0.82540300  1
  O  O16  1  0.12480800  0.82885800  0.96163500  1
  O  O17  1  0.38291900  0.03911500  0.17459700  1
