# generated using pymatgen
data_MgCo(WO4)2
_symmetry_space_group_name_H-M   'P 1'
_cell_length_a   5.20441556
_cell_length_b   5.62824355
_cell_length_c   6.06063775
_cell_angle_alpha   72.17249118
_cell_angle_beta   91.21505798
_cell_angle_gamma   116.61216239
_symmetry_Int_Tables_number   1
_chemical_formula_structural   MgCo(WO4)2
_chemical_formula_sum   'Mg1 Co1 W2 O8'
_cell_volume   149.68957993
_cell_formula_units_Z   1
loop_
 _symmetry_equiv_pos_site_id
 _symmetry_equiv_pos_as_xyz
  1  'x, y, z'
loop_
 _atom_site_type_symbol
 _atom_site_label
 _atom_site_symmetry_multiplicity
 _atom_site_fract_x
 _atom_site_fract_y
 _atom_site_fract_z
 _atom_site_occupancy
  Mg  Mg0  1  0.81794700  0.60738000  0.84850500  1
  Co  Co1  1  0.47939800  0.97337600  0.02002800  1
  W  W2  1  0.26072100  0.49833900  0.64950300  1
  W  W3  1  0.73548900  0.49055100  0.34716400  1
  O  O4  1  0.67701000  0.72946300  0.54403600  1
  O  O5  1  0.16873900  0.69847700  0.33167000  1
  O  O6  1  0.24560100  0.73241500  0.80734400  1
  O  O7  1  0.31417500  0.25215600  0.90090400  1
  O  O8  1  0.33450100  0.28497900  0.45821800  1
  O  O9  1  0.82674200  0.30467200  0.67960400  1
  O  O10  1  0.72575100  0.76179700  0.07973400  1
  O  O11  1  0.73892800  0.27354100  0.17703900  1
