# generated using pymatgen
data_Na4LaTa3Si5SO24
_symmetry_space_group_name_H-M   'P 1'
_cell_length_a   9.14624282
_cell_length_b   9.08452286
_cell_length_c   22.91541649
_cell_angle_alpha   90.10005076
_cell_angle_beta   89.94798297
_cell_angle_gamma   120.06729706
_symmetry_Int_Tables_number   1
_chemical_formula_structural   Na4LaTa3Si5SO24
_chemical_formula_sum   'Na12 La3 Ta9 Si15 S3 O72'
_cell_volume   1647.81201720
_cell_formula_units_Z   3
loop_
 _symmetry_equiv_pos_site_id
 _symmetry_equiv_pos_as_xyz
  1  'x, y, z'
loop_
 _atom_site_type_symbol
 _atom_site_label
 _atom_site_symmetry_multiplicity
 _atom_site_fract_x
 _atom_site_fract_y
 _atom_site_fract_z
 _atom_site_occupancy
  Na  Na0  1  0.63139299  0.62218500  0.74763665  1
  Na  Na1  1  0.99034342  0.36643807  0.75305395  1
  Na  Na2  1  0.38107873  0.00779720  0.74838291  1
  Na  Na3  1  0.65815677  0.67951587  0.08312536  1
  Na  Na4  1  0.02410304  0.34947447  0.08139184  1
  Na  Na5  1  0.32186335  0.02399961  0.42095380  1
  Na  Na6  1  0.98718688  0.99353255  0.50117428  1
  Na  Na7  1  0.01092726  0.99435620  0.99407556  1
  Na  Na8  1  0.66637333  0.33258201  0.83480211  1
  Na  Na9  1  0.70453238  0.33980563  0.33114210  1
  Na  Na10  1  0.33170624  0.68066194  0.16724796  1
  Na  Na11  1  0.35118730  0.68065970  0.66185554  1
  La  La12  1  0.98492331  0.00391343  0.36011291  1
  La  La13  1  0.65970933  0.33095722  0.67776152  1
  La  La14  1  0.67162125  0.32939521  0.17741582  1
  Ta  Ta15  1  0.99922644  0.00036420  0.85824031  1
  Ta  Ta16  1  0.00260060  0.98975463  0.64748723  1
  Ta  Ta17  1  0.00602294  0.01499300  0.14297835  1
  Ta  Ta18  1  0.66754432  0.33494759  0.97771845  1
  Ta  Ta19  1  0.65926592  0.34242579  0.48022438  1
  Ta  Ta20  1  0.33359866  0.66996923  0.01283873  1
  Ta  Ta21  1  0.33907634  0.67416233  0.51955802  1
  Ta  Ta22  1  0.32288422  0.65334222  0.31721454  1
  Ta  Ta23  1  0.33541432  0.66703251  0.81460072  1
  Si  Si24  1  0.01315703  0.31228239  0.24978727  1
  Si  Si25  1  0.27645199  0.28665355  0.75256716  1
  Si  Si26  1  0.01098606  0.71835813  0.75413756  1
  Si  Si27  1  0.71423697  0.99035181  0.75244129  1
  Si  Si28  1  0.35997316  0.02963731  0.58383265  1
  Si  Si29  1  0.66643287  0.64071843  0.58537832  1
  Si  Si30  1  0.97141971  0.63601209  0.07950584  1
  Si  Si31  1  0.66023522  0.03018478  0.08014141  1
  Si  Si32  1  0.37332556  0.33905171  0.07909056  1
  Si  Si33  1  0.62462692  0.66171300  0.91503930  1
  Si  Si34  1  0.03838350  0.37682367  0.91505430  1
  Si  Si35  1  0.33857679  0.96347151  0.91404938  1
  Si  Si36  1  0.60996159  0.96200635  0.41791009  1
  Si  Si37  1  0.34658055  0.38812028  0.42065513  1
  Si  Si38  1  0.03846875  0.64569477  0.42065648  1
  S  S39  1  0.28295197  0.98288176  0.25009656  1
  S  S40  1  0.69103978  0.71086186  0.24665246  1
  S  S41  1  0.97238435  0.33041627  0.58153453  1
  O  O42  1  0.20735477  0.99076732  0.30536990  1
  O  O43  1  0.79054040  0.78653216  0.29971242  1
  O  O44  1  0.00150034  0.20706689  0.30645365  1
  O  O45  1  0.17560400  0.17133890  0.80891462  1
  O  O46  1  0.99289026  0.82064360  0.80894470  1
  O  O47  1  0.82768950  0.00452600  0.80924221  1
  O  O48  1  0.81014068  0.96933799  0.69436184  1
  O  O49  1  0.15937452  0.19116441  0.69442047  1
  O  O50  1  0.03076991  0.83296731  0.69441300  1
  O  O51  1  0.78818283  0.81347085  0.19342677  1
  O  O52  1  0.02131023  0.19632545  0.19093400  1
  O  O53  1  0.17265286  0.97485851  0.19878323  1
  O  O54  1  0.91949437  0.36347483  0.63887683  1
  O  O55  1  0.45247224  0.07708870  0.64654581  1
  O  O56  1  0.62944236  0.55119251  0.64844164  1
  O  O57  1  0.92397944  0.51300757  0.13480955  1
  O  O58  1  0.61010493  0.07528757  0.14090787  1
  O  O59  1  0.49001994  0.40865710  0.13553130  1
  O  O60  1  0.47321800  0.30432455  0.02607613  1
  O  O61  1  0.82894385  0.53502654  0.02739009  1
  O  O62  1  0.70537770  0.17434872  0.02909288  1
  O  O63  1  0.47806145  0.16522057  0.53088436  1
  O  O64  1  0.69043682  0.52164641  0.53414847  1
  O  O65  1  0.85343170  0.31365447  0.53441998  1
  O  O66  1  0.52523971  0.68066506  0.97054298  1
  O  O67  1  0.15875700  0.47317378  0.97058230  1
  O  O68  1  0.31820728  0.83799111  0.96762681  1
  O  O69  1  0.49658077  0.84845328  0.47276931  1
  O  O70  1  0.33530579  0.49181333  0.47510203  1
  O  O71  1  0.15245258  0.65134813  0.47475220  1
  O  O72  1  0.13554907  0.62862185  0.36003882  1
  O  O73  1  0.49386020  0.86081886  0.35895504  1
  O  O74  1  0.36171291  0.49885261  0.36039627  1
  O  O75  1  0.13547494  0.49736725  0.85710493  1
  O  O76  1  0.36300012  0.86867262  0.85561963  1
  O  O77  1  0.50431772  0.63894050  0.85718038  1
  O  O78  1  0.03712139  0.82049107  0.41953980  1
  O  O79  1  0.78996052  0.97871537  0.42564543  1
  O  O80  1  0.20108836  0.19363873  0.42149794  1
  O  O81  1  0.01704300  0.18732322  0.90960084  1
  O  O82  1  0.17058338  0.98283012  0.90970443  1
  O  O83  1  0.81294790  0.82983437  0.90998578  1
  O  O84  1  0.97712811  0.16908580  0.58421195  1
  O  O85  1  0.17985075  0.02956920  0.58960621  1
  O  O86  1  0.84314894  0.82555757  0.58921452  1
  O  O87  1  0.97105562  0.81496600  0.09388630  1
  O  O88  1  0.84221597  0.02280340  0.09035286  1
  O  O89  1  0.18608721  0.16213139  0.09169719  1
  O  O90  1  0.69511952  0.15763070  0.75156307  1
  O  O91  1  0.46254304  0.30722086  0.75219346  1
  O  O92  1  0.84771225  0.53074077  0.75164378  1
  O  O93  1  0.65586654  0.53620580  0.24321413  1
  O  O94  1  0.85593765  0.34385609  0.24824135  1
  O  O95  1  0.45156221  0.13239338  0.24547994  1
  O  O96  1  0.64164725  0.49185733  0.92318327  1
  O  O97  1  0.85356478  0.36084207  0.92438717  1
  O  O98  1  0.50888806  0.14763151  0.92469074  1
  O  O99  1  0.61629578  0.14584269  0.42486611  1
  O  O100  1  0.52516414  0.38301062  0.42629586  1
  O  O101  1  0.85195802  0.47643664  0.42776540  1
  O  O102  1  0.32321933  0.48543981  0.06542005  1
  O  O103  1  0.16081263  0.67196388  0.06372002  1
  O  O104  1  0.51684193  0.83418657  0.06572380  1
  O  O105  1  0.31952880  0.83519205  0.57169671  1
  O  O106  1  0.50625414  0.66814804  0.57227909  1
  O  O107  1  0.14595702  0.47556724  0.57229698  1
  O  O108  1  0.29224748  0.82238052  0.24867228  1
  O  O109  1  0.52997029  0.71689816  0.24948245  1
  O  O110  1  0.19687651  0.49696079  0.25302421  1
  O  O111  1  0.29170214  0.47624294  0.75695822  1
  O  O112  1  0.18587170  0.70787013  0.75668619  1
  O  O113  1  0.52481134  0.81631556  0.75660971  1
