# generated using pymatgen
data_Ga2PbO4
_symmetry_space_group_name_H-M   'P 1'
_cell_length_a   5.25125472
_cell_length_b   5.39734257
_cell_length_c   8.58802772
_cell_angle_alpha   90.00000000
_cell_angle_beta   90.00000000
_cell_angle_gamma   119.10861658
_symmetry_Int_Tables_number   1
_chemical_formula_structural   Ga2PbO4
_chemical_formula_sum   'Ga4 Pb2 O8'
_cell_volume   212.66615640
_cell_formula_units_Z   2
loop_
 _symmetry_equiv_pos_site_id
 _symmetry_equiv_pos_as_xyz
  1  'x, y, z'
loop_
 _atom_site_type_symbol
 _atom_site_label
 _atom_site_symmetry_multiplicity
 _atom_site_fract_x
 _atom_site_fract_y
 _atom_site_fract_z
 _atom_site_occupancy
  Ga  Ga0  1  0.71038825  0.34585465  0.44769187  1
  Ga  Ga1  1  0.36453359  0.65414535  0.55230813  1
  Ga  Ga2  1  0.71038825  0.34585465  0.05230813  1
  Ga  Ga3  1  0.36453359  0.65414535  0.94769187  1
  Pb  Pb4  1  0.02730583  0.05344930  0.25000000  1
  Pb  Pb5  1  0.97385653  0.94655070  0.75000000  1
  O  O6  1  0.87056852  0.38096540  0.25000000  1
  O  O7  1  0.48960312  0.61903460  0.75000000  1
  O  O8  1  0.67602806  -0.00000000  0.50000000  1
  O  O9  1  0.67602806  -0.00000000  -0.00000000  1
  O  O10  1  0.37124941  0.36581621  0.43897638  1
  O  O11  1  0.00543420  0.63418379  0.56102362  1
  O  O12  1  0.00543420  0.63418379  0.93897638  1
  O  O13  1  0.37124941  0.36581621  0.06102362  1
