# generated using pymatgen
data_Na2Nb3GaSi2(PO6)4
_symmetry_space_group_name_H-M   'P 1'
_cell_length_a   8.76589483
_cell_length_b   8.77677533
_cell_length_c   22.77516441
_cell_angle_alpha   90.05511791
_cell_angle_beta   89.94503975
_cell_angle_gamma   119.95448101
_symmetry_Int_Tables_number   1
_chemical_formula_structural   Na2Nb3GaSi2(PO6)4
_chemical_formula_sum   'Na6 Nb9 Ga3 Si6 P12 O72'
_cell_volume   1518.17606982
_cell_formula_units_Z   3
loop_
 _symmetry_equiv_pos_site_id
 _symmetry_equiv_pos_as_xyz
  1  'x, y, z'
loop_
 _atom_site_type_symbol
 _atom_site_label
 _atom_site_symmetry_multiplicity
 _atom_site_fract_x
 _atom_site_fract_y
 _atom_site_fract_z
 _atom_site_occupancy
  Na  Na0  1  0.99838797  0.99989296  0.49182008  1
  Na  Na1  1  0.00031381  0.99994239  0.00098997  1
  Na  Na2  1  0.66845240  0.33369107  0.83013889  1
  Na  Na3  1  0.66607245  0.33411619  0.32556408  1
  Na  Na4  1  0.33311131  0.66410709  0.16495353  1
  Na  Na5  1  0.33026172  0.66457656  0.66670442  1
  Nb  Nb6  1  0.00126060  0.00050610  0.85559504  1
  Nb  Nb7  1  0.99925110  0.00177400  0.64343616  1
  Nb  Nb8  1  0.00165305  0.00248059  0.14613962  1
  Nb  Nb9  1  0.66095336  0.33128602  0.97766341  1
  Nb  Nb10  1  0.67030335  0.32904992  0.47678558  1
  Nb  Nb11  1  0.33323676  0.66314746  0.02279691  1
  Nb  Nb12  1  0.33541785  0.66664364  0.52038545  1
  Nb  Nb13  1  0.33649122  0.67056943  0.30956623  1
  Nb  Nb14  1  0.33272318  0.66618173  0.81151823  1
  Ga  Ga15  1  0.99595073  0.00080519  0.35169197  1
  Ga  Ga16  1  0.67032140  0.33589942  0.68637853  1
  Ga  Ga17  1  0.66581843  0.33544644  0.18669407  1
  Si  Si18  1  0.95093188  0.33811482  0.58673276  1
  Si  Si19  1  0.38577604  0.33526373  0.08786931  1
  Si  Si20  1  0.61860906  0.66674279  0.91631550  1
  Si  Si21  1  0.04669590  0.38189007  0.91648023  1
  Si  Si22  1  0.33412294  0.95046705  0.91706888  1
  Si  Si23  1  0.63162276  0.95361980  0.41483917  1
  P  P24  1  0.28906589  0.00856525  0.25269052  1
  P  P25  1  0.71900414  0.70794296  0.25186707  1
  P  P26  1  0.99021272  0.28406644  0.25160369  1
  P  P27  1  0.29565885  0.28796632  0.74812206  1
  P  P28  1  0.99297133  0.70575881  0.74847485  1
  P  P29  1  0.71119151  0.00605961  0.74884459  1
  P  P30  1  0.38589581  0.05037691  0.58526077  1
  P  P31  1  0.66435704  0.61300653  0.58532860  1
  P  P32  1  0.94910072  0.61502677  0.08642662  1
  P  P33  1  0.66500335  0.05045017  0.08637816  1
  P  P34  1  0.32869964  0.37507204  0.41513915  1
  P  P35  1  0.04837818  0.67379459  0.41521141  1
  O  O36  1  0.20128362  0.03051189  0.30705796  1
  O  O37  1  0.82664113  0.79514520  0.30664642  1
  O  O38  1  0.96589290  0.17420375  0.30612179  1
  O  O39  1  0.20258823  0.17629907  0.80322357  1
  O  O40  1  0.97790576  0.80226746  0.80359694  1
  O  O41  1  0.82436938  0.02430280  0.80355469  1
  O  O42  1  0.80477225  0.98039963  0.69414035  1
  O  O43  1  0.17569162  0.19468730  0.69363755  1
  O  O44  1  0.01976701  0.82318020  0.69394793  1
  O  O45  1  0.80036733  0.82465794  0.19622713  1
  O  O46  1  0.02266745  0.19686225  0.19587884  1
  O  O47  1  0.17224462  0.97704646  0.19667466  1
  O  O48  1  0.86868183  0.37133852  0.64386153  1
  O  O49  1  0.49362886  0.12829573  0.64019580  1
  O  O50  1  0.62887784  0.50451844  0.64049444  1
  O  O51  1  0.87327816  0.50564860  0.14122010  1
  O  O52  1  0.63899728  0.13164138  0.14123663  1
  O  O53  1  0.50108859  0.36762832  0.14486351  1
  O  O54  1  0.47057168  0.30436849  0.02728512  1
  O  O55  1  0.83942564  0.53247199  0.03004879  1
  O  O56  1  0.69695858  0.16076770  0.02977937  1
  O  O57  1  0.46650945  0.16327619  0.52910085  1
  O  O58  1  0.69285286  0.53123194  0.52935629  1
  O  O59  1  0.83116526  0.30512043  0.52672286  1
  O  O60  1  0.53194334  0.69967946  0.97451633  1
  O  O61  1  0.16840818  0.46879111  0.97433194  1
  O  O62  1  0.30044676  0.83281814  0.97513785  1
  O  O63  1  0.52821731  0.83454969  0.47299167  1
  O  O64  1  0.30538261  0.46661702  0.47089518  1
  O  O65  1  0.15975627  0.69023217  0.47085202  1
  O  O66  1  0.13086267  0.63662861  0.36088770  1
  O  O67  1  0.49980545  0.85798471  0.35854173  1
  O  O68  1  0.35711879  0.49342216  0.36105157  1
  O  O69  1  0.13740793  0.50101621  0.85768793  1
  O  O70  1  0.36339190  0.86145998  0.85780791  1
  O  O71  1  0.49874791  0.63528033  0.85767190  1
  O  O72  1  0.03467094  0.83857192  0.40990975  1
  O  O73  1  0.82279211  0.97590799  0.40964990  1
  O  O74  1  0.16830671  0.19313334  0.40956521  1
  O  O75  1  0.02886479  0.18962347  0.90675313  1
  O  O76  1  0.16303632  0.97430401  0.90694731  1
  O  O77  1  0.81183011  0.83966827  0.90702409  1
  O  O78  1  0.97319815  0.16110186  0.59150118  1
  O  O79  1  0.19675712  0.02542374  0.59100979  1
  O  O80  1  0.83121876  0.80040627  0.59160110  1
  O  O81  1  0.96717375  0.80171027  0.09217251  1
  O  O82  1  0.82957950  0.02488286  0.09195311  1
  O  O83  1  0.18543646  0.15910315  0.09229273  1
  O  O84  1  0.69176414  0.16832690  0.74432445  1
  O  O85  1  0.47623668  0.30454670  0.74230733  1
  O  O86  1  0.82676795  0.52600597  0.74527979  1
  O  O87  1  0.69460164  0.52403314  0.24514486  1
  O  O88  1  0.83127499  0.30841513  0.24246169  1
  O  O89  1  0.47511886  0.16330113  0.24513164  1
  O  O90  1  0.64210788  0.49626484  0.92375907  1
  O  O91  1  0.85483156  0.36043892  0.92434073  1
  O  O92  1  0.50789771  0.14337728  0.92315747  1
  O  O93  1  0.63762718  0.14473461  0.42326220  1
  O  O94  1  0.49999030  0.36668100  0.42414933  1
  O  O95  1  0.86282947  0.50643244  0.42394428  1
  O  O96  1  0.35540470  0.50454420  0.07864694  1
  O  O97  1  0.13847479  0.64518611  0.07823931  1
  O  O98  1  0.50184930  0.86427880  0.07845510  1
  O  O99  1  0.36021967  0.86330535  0.57540919  1
  O  O100  1  0.50471625  0.64308313  0.57587831  1
  O  O101  1  0.14910718  0.50459868  0.57466704  1
  O  O102  1  0.29923250  0.83255880  0.25737072  1
  O  O103  1  0.52923193  0.69128458  0.25745330  1
  O  O104  1  0.16293556  0.46936270  0.25685852  1
  O  O105  1  0.30683626  0.47005623  0.75258567  1
  O  O106  1  0.16352480  0.69255066  0.75321329  1
  O  O107  1  0.52955904  0.83414346  0.75285765  1
