# generated using pymatgen
data_Re(AgCl3)2
_symmetry_space_group_name_H-M   'P 1'
_cell_length_a   6.84912302
_cell_length_b   6.84912352
_cell_length_c   6.84912254
_cell_angle_alpha   57.89962841
_cell_angle_beta   57.89962576
_cell_angle_gamma   57.89962194
_symmetry_Int_Tables_number   1
_chemical_formula_structural   Re(AgCl3)2
_chemical_formula_sum   'Re1 Ag2 Cl6'
_cell_volume   216.23838932
_cell_formula_units_Z   1
loop_
 _symmetry_equiv_pos_site_id
 _symmetry_equiv_pos_as_xyz
  1  'x, y, z'
loop_
 _atom_site_type_symbol
 _atom_site_label
 _atom_site_symmetry_multiplicity
 _atom_site_fract_x
 _atom_site_fract_y
 _atom_site_fract_z
 _atom_site_occupancy
  Re  Re0  1  0.50000000  0.50000000  0.50000000  1
  Ag  Ag1  1  0.76841534  0.76841534  0.76841534  1
  Ag  Ag2  1  0.23158466  0.23158466  0.23158466  1
  Cl  Cl3  1  0.38025260  0.14933082  0.72998625  1
  Cl  Cl4  1  0.14933082  0.72998625  0.38025260  1
  Cl  Cl5  1  0.72998625  0.38025260  0.14933082  1
  Cl  Cl6  1  0.27001375  0.61974740  0.85066918  1
  Cl  Cl7  1  0.85066918  0.27001375  0.61974740  1
  Cl  Cl8  1  0.61974740  0.85066918  0.27001375  1
