# generated using pymatgen
data_Eu(BH4)2
_symmetry_space_group_name_H-M   'P 1'
_cell_length_a   6.96386000
_cell_length_b   7.30480700
_cell_length_c   8.41778500
_cell_angle_alpha   90.00000000
_cell_angle_beta   90.00000000
_cell_angle_gamma   90.00000000
_symmetry_Int_Tables_number   1
_chemical_formula_structural   Eu(BH4)2
_chemical_formula_sum   'Eu4 B8 H32'
_cell_volume   428.20980429
_cell_formula_units_Z   4
loop_
 _symmetry_equiv_pos_site_id
 _symmetry_equiv_pos_as_xyz
  1  'x, y, z'
loop_
 _atom_site_type_symbol
 _atom_site_label
 _atom_site_symmetry_multiplicity
 _atom_site_fract_x
 _atom_site_fract_y
 _atom_site_fract_z
 _atom_site_occupancy
  Eu  Eu0  1  0.00000000  0.25000000  0.37471300  1
  Eu  Eu1  1  0.50000000  0.75000000  0.12528700  1
  Eu  Eu2  1  0.00000000  0.75000000  0.62528700  1
  Eu  Eu3  1  0.50000000  0.25000000  0.87471300  1
  B  B4  1  0.26412600  0.43618400  0.10921200  1
  B  B5  1  0.76412700  0.56381600  0.39078800  1
  B  B6  1  0.23587400  0.93618400  0.39078800  1
  B  B7  1  0.73587300  0.06381600  0.10921200  1
  B  B8  1  0.73587300  0.56381600  0.89078800  1
  B  B9  1  0.23587400  0.43618400  0.60921200  1
  B  B10  1  0.76412700  0.06381600  0.60921200  1
  B  B11  1  0.26412600  0.93618400  0.89078800  1
  H  H12  1  0.16232500  0.30002300  0.10761100  1
  H  H13  1  0.66232500  0.69997700  0.39238900  1
  H  H14  1  0.33767500  0.80002300  0.39238900  1
  H  H15  1  0.83767500  0.19997700  0.10761100  1
  H  H16  1  0.83767500  0.69997700  0.89238900  1
  H  H17  1  0.33767500  0.30002300  0.60761100  1
  H  H18  1  0.66232500  0.19997700  0.60761100  1
  H  H19  1  0.16232500  0.80002300  0.89238900  1
  H  H20  1  0.42654300  0.39510200  0.15535800  1
  H  H21  1  0.92654300  0.60489800  0.34464200  1
  H  H22  1  0.07345700  0.89510200  0.34464200  1
  H  H23  1  0.57345700  0.10489800  0.15535800  1
  H  H24  1  0.57345700  0.60489800  0.84464200  1
  H  H25  1  0.07345700  0.39510200  0.65535800  1
  H  H26  1  0.92654300  0.10489800  0.65535800  1
  H  H27  1  0.42654300  0.89510200  0.84464200  1
  H  H28  1  0.27072500  0.49675300  0.97281800  1
  H  H29  1  0.77072500  0.50324700  0.52718200  1
  H  H30  1  0.22927500  0.99675300  0.52718200  1
  H  H31  1  0.72927500  0.00324700  0.97281800  1
  H  H32  1  0.72927500  0.50324700  0.02718200  1
  H  H33  1  0.22927500  0.49675300  0.47281800  1
  H  H34  1  0.77072500  0.00324700  0.47281800  1
  H  H35  1  0.27072500  0.99675300  0.02718200  1
  H  H36  1  0.19922200  0.55682000  0.19456000  1
  H  H37  1  0.69922200  0.44318000  0.30544000  1
  H  H38  1  0.30077800  0.05682000  0.30544000  1
  H  H39  1  0.80077800  0.94318000  0.19456000  1
  H  H40  1  0.80077800  0.44318000  0.80544000  1
  H  H41  1  0.30077800  0.55682000  0.69456000  1
  H  H42  1  0.69922200  0.94318000  0.69456000  1
  H  H43  1  0.19922200  0.05682000  0.80544000  1
