# generated using pymatgen
data_Na4YZrSi2PO12
_symmetry_space_group_name_H-M   'P 1'
_cell_length_a   9.38031565
_cell_length_b   9.38031530
_cell_length_c   22.91096633
_cell_angle_alpha   90.13764037
_cell_angle_beta   89.86235964
_cell_angle_gamma   119.91778750
_symmetry_Int_Tables_number   1
_chemical_formula_structural   Na4YZrSi2PO12
_chemical_formula_sum   'Na24 Y6 Zr6 Si12 P6 O72'
_cell_volume   1747.29583318
_cell_formula_units_Z   6
loop_
 _symmetry_equiv_pos_site_id
 _symmetry_equiv_pos_as_xyz
  1  'x, y, z'
loop_
 _atom_site_type_symbol
 _atom_site_label
 _atom_site_symmetry_multiplicity
 _atom_site_fract_x
 _atom_site_fract_y
 _atom_site_fract_z
 _atom_site_occupancy
  Na  Na0  1  0.64541068  0.00681781  0.25153032  1
  Na  Na1  1  0.36993368  0.36949659  0.24402468  1
  Na  Na2  1  0.98745120  0.62425296  0.24943679  1
  Na  Na3  1  0.63050341  0.63006632  0.74402468  1
  Na  Na4  1  0.99318219  0.35458932  0.75153032  1
  Na  Na5  1  0.37574704  0.01254880  0.74943679  1
  Na  Na6  1  0.31207768  0.34015081  0.58486332  1
  Na  Na7  1  0.03660068  0.70282959  0.57735768  1
  Na  Na8  1  0.65411820  0.95758596  0.58276979  1
  Na  Na9  1  0.29717041  0.96339932  0.07735768  1
  Na  Na10  1  0.65984919  0.68792232  0.08486332  1
  Na  Na11  1  0.04241404  0.34588180  0.08276979  1
  Na  Na12  1  0.97874368  0.67348481  0.91819732  1
  Na  Na13  1  0.70326668  0.03616359  0.91069168  1
  Na  Na14  1  0.32078420  0.29091996  0.91610379  1
  Na  Na15  1  0.96383641  0.29673332  0.41069168  1
  Na  Na16  1  0.32651519  0.02125632  0.41819732  1
  Na  Na17  1  0.70908004  0.67921580  0.41610379  1
  Na  Na18  1  0.99296338  0.98742704  0.49823545  1
  Na  Na19  1  0.01257296  0.00703662  0.99823545  1
  Na  Na20  1  0.65963038  0.32076004  0.83156845  1
  Na  Na21  1  0.67923996  0.34036962  0.33156845  1
  Na  Na22  1  0.32629638  0.65409404  0.16490245  1
  Na  Na23  1  0.34590596  0.67370362  0.66490245  1
  Y  Y24  1  0.99566091  0.99694762  0.34893833  1
  Y  Y25  1  0.00305238  0.00433909  0.84893833  1
  Y  Y26  1  0.66232791  0.33028062  0.68227133  1
  Y  Y27  1  0.66971938  0.33767209  0.18227133  1
  Y  Y28  1  0.32899391  0.66361462  0.01560533  1
  Y  Y29  1  0.33638538  0.67100609  0.51560533  1
  Zr  Zr30  1  0.99888838  0.00111223  0.64927040  1
  Zr  Zr31  1  0.99888777  0.00111162  0.14927040  1
  Zr  Zr32  1  0.66555538  0.33444523  0.98260340  1
  Zr  Zr33  1  0.66555477  0.33444462  0.48260340  1
  Zr  Zr34  1  0.33222138  0.66777923  0.31593740  1
  Zr  Zr35  1  0.33222077  0.66777862  0.81593740  1
  Si  Si36  1  0.69595120  0.70095824  0.25051645  1
  Si  Si37  1  0.00468764  0.30283469  0.25113317  1
  Si  Si38  1  0.29904176  0.30404880  0.75051645  1
  Si  Si39  1  0.69716531  0.99531236  0.75113317  1
  Si  Si40  1  0.36261820  0.03429124  0.58384945  1
  Si  Si41  1  0.67135464  0.63616769  0.58446617  1
  Si  Si42  1  0.96570876  0.63738180  0.08384945  1
  Si  Si43  1  0.36383231  0.32864536  0.08446617  1
  Si  Si44  1  0.02928420  0.36762524  0.91718345  1
  Si  Si45  1  0.33802064  0.96950169  0.91780017  1
  Si  Si46  1  0.63237476  0.97071580  0.41718345  1
  Si  Si47  1  0.03049831  0.66197936  0.41780017  1
  P  P48  1  0.29430356  0.99332937  0.24996449  1
  P  P49  1  0.00667063  0.70569644  0.74996449  1
  P  P50  1  0.96097056  0.32666237  0.58329749  1
  P  P51  1  0.67333763  0.03902944  0.08329749  1
  P  P52  1  0.62763656  0.65999637  0.91663149  1
  P  P53  1  0.34000363  0.37236344  0.41663149  1
  O  O54  1  0.22182913  0.02298812  0.30560825  1
  O  O55  1  0.80692776  0.77913719  0.30831742  1
  O  O56  1  0.98181696  0.19813948  0.30967134  1
  O  O57  1  0.22086281  0.19307224  0.80831742  1
  O  O58  1  0.97701188  0.77817087  0.80560825  1
  O  O59  1  0.80186052  0.01818304  0.80967134  1
  O  O60  1  0.79509189  0.97160882  0.69410638  1
  O  O61  1  0.17720221  0.20494170  0.69374695  1
  O  O62  1  0.02686970  0.81869056  0.69660127  1
  O  O63  1  0.79505830  0.82279779  0.19374695  1
  O  O64  1  0.02839118  0.20490811  0.19410638  1
  O  O65  1  0.18130944  0.97313030  0.19660127  1
  O  O66  1  0.88849613  0.35632112  0.63894125  1
  O  O67  1  0.47359476  0.11247019  0.64165042  1
  O  O68  1  0.64848396  0.53147248  0.64300434  1
  O  O69  1  0.88752981  0.52640524  0.14165042  1
  O  O70  1  0.64367888  0.11150387  0.13894125  1
  O  O71  1  0.46852752  0.35151604  0.14300434  1
  O  O72  1  0.46175889  0.30494182  0.02743938  1
  O  O73  1  0.84386921  0.53827470  0.02707995  1
  O  O74  1  0.69353670  0.15202356  0.02993427  1
  O  O75  1  0.46172530  0.15613079  0.52707995  1
  O  O76  1  0.69505818  0.53824111  0.52743938  1
  O  O77  1  0.84797644  0.30646330  0.52993427  1
  O  O78  1  0.55516213  0.68965512  0.97227525  1
  O  O79  1  0.14026076  0.44580419  0.97498442  1
  O  O80  1  0.31514996  0.86480648  0.97633834  1
  O  O81  1  0.55419581  0.85973924  0.47498442  1
  O  O82  1  0.31034488  0.44483787  0.47227525  1
  O  O83  1  0.13519352  0.68485004  0.47633834  1
  O  O84  1  0.12842489  0.63827582  0.36077338  1
  O  O85  1  0.51053521  0.87160870  0.36041395  1
  O  O86  1  0.36020270  0.48535756  0.36326827  1
  O  O87  1  0.12839130  0.48946479  0.86041395  1
  O  O88  1  0.36172418  0.87157511  0.86077338  1
  O  O89  1  0.51464244  0.63979730  0.86326827  1
  O  O90  1  0.01259956  0.82608611  0.41412110  1
  O  O91  1  0.81898780  0.00042913  0.41345627  1
  O  O92  1  0.19365234  0.19629390  0.41007211  1
  O  O93  1  0.99957087  0.18101220  0.91345627  1
  O  O94  1  0.17391389  0.98740044  0.91412110  1
  O  O95  1  0.80370610  0.80634766  0.91007211  1
  O  O96  1  0.96696710  0.16361651  0.58697596  1
  O  O97  1  0.18324580  0.02858451  0.58744668  1
  O  O98  1  0.84172155  0.81846987  0.58682618  1
  O  O99  1  0.97141549  0.81675420  0.08744668  1
  O  O100  1  0.83638349  0.03303290  0.08697596  1
  O  O101  1  0.18153013  0.15827845  0.08682618  1
  O  O102  1  0.67926656  0.15941911  0.74745410  1
  O  O103  1  0.48565480  0.33376213  0.74678927  1
  O  O104  1  0.86031934  0.52962690  0.74340511  1
  O  O105  1  0.66623787  0.51434520  0.24678927  1
  O  O106  1  0.84058089  0.32073344  0.24745410  1
  O  O107  1  0.47037310  0.13968066  0.24340511  1
  O  O108  1  0.63363410  0.49694951  0.92030896  1
  O  O109  1  0.84991280  0.36191751  0.92077968  1
  O  O110  1  0.50838855  0.15180287  0.92015918  1
  O  O111  1  0.63808249  0.15008720  0.42077968  1
  O  O112  1  0.50305049  0.36636590  0.42030896  1
  O  O113  1  0.84819713  0.49161145  0.42015918  1
  O  O114  1  0.34593256  0.49275311  0.08078810  1
  O  O115  1  0.15232080  0.66709613  0.08012327  1
  O  O116  1  0.52698534  0.86296090  0.07673911  1
  O  O117  1  0.33290387  0.84767920  0.58012327  1
  O  O118  1  0.50724689  0.65406744  0.58078810  1
  O  O119  1  0.13703910  0.47301466  0.57673911  1
  O  O120  1  0.30030010  0.83028351  0.25364296  1
  O  O121  1  0.51657880  0.69525151  0.25411368  1
  O  O122  1  0.17505455  0.48513687  0.25349318  1
  O  O123  1  0.30474849  0.48342120  0.75411368  1
  O  O124  1  0.16971649  0.69969990  0.75364296  1
  O  O125  1  0.51486313  0.82494545  0.75349318  1
