# generated using pymatgen
data_WBr2
_symmetry_space_group_name_H-M   'P 1'
_cell_length_a   9.78122047
_cell_length_b   9.78122012
_cell_length_c   11.98277197
_cell_angle_alpha   90.00000000
_cell_angle_beta   90.00000000
_cell_angle_gamma   104.42701165
_symmetry_Int_Tables_number   1
_chemical_formula_structural   WBr2
_chemical_formula_sum   'W12 Br24'
_cell_volume   1110.26760742
_cell_formula_units_Z   12
loop_
 _symmetry_equiv_pos_site_id
 _symmetry_equiv_pos_as_xyz
  1  'x, y, z'
loop_
 _atom_site_type_symbol
 _atom_site_label
 _atom_site_symmetry_multiplicity
 _atom_site_fract_x
 _atom_site_fract_y
 _atom_site_fract_z
 _atom_site_occupancy
  W  W0  1  0.06881379  0.06881379  0.86116535  1
  W  W1  1  0.43118621  0.43118621  0.36116535  1
  W  W2  1  0.56881379  0.56881379  0.63883465  1
  W  W3  1  0.93118621  0.93118621  0.13883465  1
  W  W4  1  0.86109009  0.86109009  0.93120172  1
  W  W5  1  0.63890991  0.63890991  0.43120172  1
  W  W6  1  0.36109009  0.36109009  0.56879828  1
  W  W7  1  0.13890991  0.13890991  0.06879828  1
  W  W8  1  0.62052890  0.37947110  0.50000000  1
  W  W9  1  0.87947110  0.12052890  0.00000000  1
  W  W10  1  0.37947110  0.62052890  0.50000000  1
  W  W11  1  0.12052890  0.87947110  0.00000000  1
  Br  Br12  1  0.65375403  0.65375403  0.84627902  1
  Br  Br13  1  0.84624597  0.84624597  0.34627902  1
  Br  Br14  1  0.15375503  0.15375503  0.65372098  1
  Br  Br15  1  0.34624497  0.34624497  0.15372098  1
  Br  Br16  1  0.78640440  0.21359560  0.50000000  1
  Br  Br17  1  0.71359560  0.28640440  0.00000000  1
  Br  Br18  1  0.21359560  0.78640440  0.50000000  1
  Br  Br19  1  0.28640440  0.71359560  0.00000000  1
  Br  Br20  1  0.08930389  0.33013686  0.92882975  1
  Br  Br21  1  0.41069611  0.16986314  0.42882975  1
  Br  Br22  1  0.83013686  0.58930389  0.57117025  1
  Br  Br23  1  0.66986314  0.91069611  0.07117025  1
  Br  Br24  1  0.19150476  0.95112373  0.20983008  1
  Br  Br25  1  0.30849524  0.54887627  0.70983008  1
  Br  Br26  1  0.45112373  0.69150376  0.29016992  1
  Br  Br27  1  0.04887627  0.80849624  0.79016992  1
  Br  Br28  1  0.80849624  0.04887627  0.79016992  1
  Br  Br29  1  0.69150376  0.45112373  0.29016992  1
  Br  Br30  1  0.54887627  0.30849524  0.70983008  1
  Br  Br31  1  0.95112373  0.19150476  0.20983008  1
  Br  Br32  1  0.33013686  0.08930389  0.92882975  1
  Br  Br33  1  0.16986314  0.41069611  0.42882975  1
  Br  Br34  1  0.58930389  0.83013686  0.57117025  1
  Br  Br35  1  0.91069611  0.66986314  0.07117025  1
