# generated using pymatgen
data_NaMg(CoO2)3
_symmetry_space_group_name_H-M   'P 1'
_cell_length_a   8.85894066
_cell_length_b   5.07741711
_cell_length_c   5.89825949
_cell_angle_alpha   64.81280218
_cell_angle_beta   60.39645854
_cell_angle_gamma   29.66046956
_symmetry_Int_Tables_number   1
_chemical_formula_structural   NaMg(CoO2)3
_chemical_formula_sum   'Na1 Mg1 Co3 O6'
_cell_volume   114.14739845
_cell_formula_units_Z   1
loop_
 _symmetry_equiv_pos_site_id
 _symmetry_equiv_pos_as_xyz
  1  'x, y, z'
loop_
 _atom_site_type_symbol
 _atom_site_label
 _atom_site_symmetry_multiplicity
 _atom_site_fract_x
 _atom_site_fract_y
 _atom_site_fract_z
 _atom_site_occupancy
  Na  Na0  1  0.21565049  0.90228405  0.48195016  1
  Mg  Mg1  1  0.87033947  0.91046555  0.50775828  1
  Co  Co2  1  0.04445751  0.91200809  0.98566678  1
  Co  Co3  1  0.39823809  0.89861133  0.94642031  1
  Co  Co4  1  0.68864253  0.90709633  0.05589367  1
  O  O5  1  0.08692513  0.27830540  0.78707244  1
  O  O6  1  0.27168903  0.61361944  0.20431058  1
  O  O7  1  0.46038076  0.24142408  0.78425195  1
  O  O8  1  0.66488194  0.51240766  0.21510549  1
  O  O9  1  0.78681307  0.22542044  0.78394280  1
  O  O10  1  0.99431597  0.57035664  0.19500755  1
