# generated using pymatgen
data_ZnCl2
_symmetry_space_group_name_H-M   'P 1'
_cell_length_a   5.59512277
_cell_length_b   5.59512293
_cell_length_c   6.33020594
_cell_angle_alpha   116.22762988
_cell_angle_beta   116.22762914
_cell_angle_gamma   89.99998884
_symmetry_Int_Tables_number   1
_chemical_formula_structural   ZnCl2
_chemical_formula_sum   'Zn2 Cl4'
_cell_volume   154.69685573
_cell_formula_units_Z   2
loop_
 _symmetry_equiv_pos_site_id
 _symmetry_equiv_pos_as_xyz
  1  'x, y, z'
loop_
 _atom_site_type_symbol
 _atom_site_label
 _atom_site_symmetry_multiplicity
 _atom_site_fract_x
 _atom_site_fract_y
 _atom_site_fract_z
 _atom_site_occupancy
  Zn  Zn0  1  -0.00000000  -0.00000000  -0.00000000  1
  Zn  Zn1  1  0.25000000  0.75000000  0.50000000  1
  Cl  Cl2  1  0.35762747  0.37500000  0.25000000  1
  Cl  Cl3  1  0.12500000  0.64237253  0.75000000  1
  Cl  Cl4  1  0.62500000  0.10762747  0.75000000  1
  Cl  Cl5  1  0.89237253  0.87500000  0.25000000  1
