# generated using pymatgen
data_Na3Y2Sn2P5SO24
_symmetry_space_group_name_H-M   'P 1'
_cell_length_a   8.99057841
_cell_length_b   8.98139599
_cell_length_c   23.31574043
_cell_angle_alpha   90.15884480
_cell_angle_beta   89.94092180
_cell_angle_gamma   119.72165557
_symmetry_Int_Tables_number   1
_chemical_formula_structural   Na3Y2Sn2P5SO24
_chemical_formula_sum   'Na9 Y6 Sn6 P15 S3 O72'
_cell_volume   1635.01183265
_cell_formula_units_Z   3
loop_
 _symmetry_equiv_pos_site_id
 _symmetry_equiv_pos_as_xyz
  1  'x, y, z'
loop_
 _atom_site_type_symbol
 _atom_site_label
 _atom_site_symmetry_multiplicity
 _atom_site_fract_x
 _atom_site_fract_y
 _atom_site_fract_z
 _atom_site_occupancy
  Na  Na0  1  0.00445192  0.36280492  0.75060221  1
  Na  Na1  1  0.66936793  0.96201144  0.58307544  1
  Na  Na2  1  0.03978925  0.33223999  0.08337921  1
  Na  Na3  1  0.00661122  0.99156869  0.49886001  1
  Na  Na4  1  0.00923821  0.99400389  0.99808970  1
  Na  Na5  1  0.65541429  0.32453285  0.83431811  1
  Na  Na6  1  0.68190901  0.33844848  0.33341309  1
  Na  Na7  1  0.34922283  0.67019190  0.16719445  1
  Na  Na8  1  0.33476509  0.66617270  0.66674948  1
  Y  Y9  1  0.01054536  0.99638037  0.64548587  1
  Y  Y10  1  0.99553512  0.99033007  0.14555559  1
  Y  Y11  1  0.33486528  0.67423146  0.01691263  1
  Y  Y12  1  0.32259807  0.66540395  0.51703895  1
  Y  Y13  1  0.33078125  0.66660537  0.31791626  1
  Y  Y14  1  0.33570344  0.67669052  0.81888255  1
  Sn  Sn15  1  0.98178523  0.99055308  0.34842618  1
  Sn  Sn16  1  0.00713122  0.00532079  0.84790797  1
  Sn  Sn17  1  0.66292610  0.33726883  0.68619593  1
  Sn  Sn18  1  0.67074580  0.33816121  0.18600255  1
  Sn  Sn19  1  0.66347267  0.32679134  0.98170431  1
  Sn  Sn20  1  0.67464644  0.33841634  0.48139326  1
  P  P21  1  0.70325517  0.69511967  0.24955782  1
  P  P22  1  0.99144210  0.29152496  0.24854909  1
  P  P23  1  0.30043377  0.29382426  0.75035088  1
  P  P24  1  0.98983045  0.69848153  0.75109148  1
  P  P25  1  0.70889798  0.00662803  0.74766437  1
  P  P26  1  0.95261592  0.33556122  0.58582365  1
  P  P27  1  0.38929918  0.05475225  0.58160414  1
  P  P28  1  0.66249689  0.61752796  0.58257795  1
  P  P29  1  0.94871503  0.61379341  0.08122691  1
  P  P30  1  0.66352617  0.04877897  0.08504869  1
  P  P31  1  0.38404698  0.33573012  0.08376469  1
  P  P32  1  0.02270729  0.35515119  0.91651964  1
  P  P33  1  0.33145476  0.97899224  0.91694165  1
  P  P34  1  0.64030306  0.97556638  0.41858084  1
  P  P35  1  0.02312068  0.67006101  0.41550965  1
  S  S36  1  0.29997216  0.01081236  0.25108277  1
  S  S37  1  0.64496124  0.66821551  0.91630399  1
  S  S38  1  0.33065863  0.35419472  0.41581682  1
  O  O39  1  0.21619678  0.03392363  0.30332355  1
  O  O40  1  0.81663164  0.77522824  0.30467979  1
  O  O41  1  0.96779833  0.17598807  0.30256457  1
  O  O42  1  0.22061291  0.18166186  0.80516635  1
  O  O43  1  0.96395091  0.78410871  0.80588036  1
  O  O44  1  0.83175643  0.04100590  0.80065311  1
  O  O45  1  0.78826440  0.98611139  0.69231379  1
  O  O46  1  0.18784378  0.21320986  0.69783115  1
  O  O47  1  0.01589839  0.80288235  0.69768203  1
  O  O48  1  0.78995327  0.80088738  0.19658241  1
  O  O49  1  0.01422710  0.21260352  0.19335373  1
  O  O50  1  0.19957513  0.98920615  0.19940908  1
  O  O51  1  0.87137912  0.35683905  0.64232359  1
  O  O52  1  0.49728396  0.13596579  0.63663343  1
  O  O53  1  0.64300643  0.51391436  0.63762781  1
  O  O54  1  0.86934556  0.50545540  0.13632732  1
  O  O55  1  0.64068961  0.13330705  0.13988144  1
  O  O56  1  0.48897509  0.35584851  0.13885163  1
  O  O57  1  0.46867019  0.31493252  0.02864437  1
  O  O58  1  0.84079360  0.52843113  0.02688029  1
  O  O59  1  0.69269173  0.15917434  0.03049139  1
  O  O60  1  0.47511630  0.16090681  0.52699718  1
  O  O61  1  0.68333382  0.53199721  0.52755161  1
  O  O62  1  0.83944496  0.30896038  0.53203158  1
  O  O63  1  0.56602819  0.69526872  0.96798441  1
  O  O64  1  0.13143562  0.43548733  0.97085033  1
  O  O65  1  0.30605403  0.87074158  0.97055826  1
  O  O66  1  0.56491337  0.87158124  0.47395288  1
  O  O67  1  0.30260810  0.43205871  0.46768376  1
  O  O68  1  0.12956503  0.69782160  0.46991357  1
  O  O69  1  0.10267748  0.63618354  0.36295038  1
  O  O70  1  0.52873337  0.88833492  0.36631564  1
  O  O71  1  0.35917481  0.46172976  0.36526570  1
  O  O72  1  0.10527869  0.46299797  0.86257128  1
  O  O73  1  0.36563414  0.90177830  0.86357002  1
  O  O74  1  0.53871865  0.64021327  0.86538167  1
  O  O75  1  0.00838593  0.83592499  0.40801053  1
  O  O76  1  0.82523230  0.99985443  0.41121395  1
  O  O77  1  0.17768605  0.18098629  0.40844368  1
  O  O78  1  0.99853504  0.17040946  0.90942472  1
  O  O79  1  0.16593273  0.99337113  0.90979846  1
  O  O80  1  0.81750939  0.82267714  0.90997644  1
  O  O81  1  0.95974035  0.16776914  0.58757212  1
  O  O82  1  0.21117608  0.03522380  0.58334657  1
  O  O83  1  0.82182011  0.79823651  0.58425805  1
  O  O84  1  0.96967485  0.79259896  0.08354587  1
  O  O85  1  0.83186738  0.04231199  0.08780177  1
  O  O86  1  0.20344027  0.17622995  0.08614063  1
  O  O87  1  0.70183069  0.17881646  0.74552889  1
  O  O88  1  0.47995901  0.30937448  0.74521291  1
  O  O89  1  0.82614655  0.51604088  0.74703193  1
  O  O90  1  0.68789133  0.51351873  0.24601135  1
  O  O91  1  0.82136755  0.30123378  0.24647525  1
  O  O92  1  0.47165327  0.16851024  0.24760734  1
  O  O93  1  0.66454302  0.51358800  0.92223391  1
  O  O94  1  0.84046767  0.33743190  0.92237296  1
  O  O95  1  0.49005230  0.16363218  0.92303771  1
  O  O96  1  0.66032377  0.15930814  0.42292948  1
  O  O97  1  0.48563151  0.33488576  0.42194153  1
  O  O98  1  0.83825221  0.51070930  0.42200387  1
  O  O99  1  0.36139359  0.49539914  0.08021706  1
  O  O100  1  0.12378053  0.62075372  0.07736141  1
  O  O101  1  0.50617948  0.87074394  0.08071962  1
  O  O102  1  0.38086436  0.87859422  0.57845118  1
  O  O103  1  0.50282207  0.63937766  0.57905512  1
  O  O104  1  0.12943601  0.49443819  0.58121604  1
  O  O105  1  0.32174871  0.85928631  0.25602842  1
  O  O106  1  0.52510103  0.67582457  0.25603068  1
  O  O107  1  0.14621126  0.47076915  0.25658284  1
  O  O108  1  0.31521936  0.47115672  0.75790978  1
  O  O109  1  0.14235878  0.66538890  0.75719129  1
  O  O110  1  0.53089543  0.85269933  0.75618441  1
