# generated using pymatgen
data_Ag3SnP7
_symmetry_space_group_name_H-M   'P 1'
_cell_length_a   11.11447513
_cell_length_b   6.38409693
_cell_length_c   6.53700065
_cell_angle_alpha   71.65126552
_cell_angle_beta   90.00000000
_cell_angle_gamma   90.00000000
_symmetry_Int_Tables_number   1
_chemical_formula_structural   Ag3SnP7
_chemical_formula_sum   'Ag6 Sn2 P14'
_cell_volume   440.25621802
_cell_formula_units_Z   2
loop_
 _symmetry_equiv_pos_site_id
 _symmetry_equiv_pos_as_xyz
  1  'x, y, z'
loop_
 _atom_site_type_symbol
 _atom_site_label
 _atom_site_symmetry_multiplicity
 _atom_site_fract_x
 _atom_site_fract_y
 _atom_site_fract_z
 _atom_site_occupancy
  Ag  Ag0  1  0.75000000  0.92433833  0.32663019  1
  Ag  Ag1  1  0.25000000  0.07566167  0.67336981  1
  Ag  Ag2  1  0.89726888  0.30871785  0.31671338  1
  Ag  Ag3  1  0.39726888  0.69128215  0.68328662  1
  Ag  Ag4  1  0.10273112  0.69128215  0.68328662  1
  Ag  Ag5  1  0.60273112  0.30871785  0.31671338  1
  Sn  Sn6  1  0.75000000  0.30747566  0.95746580  1
  Sn  Sn7  1  0.25000000  0.69252434  0.04253420  1
  P  P8  1  0.91879420  0.83362074  0.84154825  1
  P  P9  1  0.41879420  0.16637926  0.15845175  1
  P  P10  1  0.08120580  0.16637926  0.15845175  1
  P  P11  1  0.58120580  0.83362074  0.84154825  1
  P  P12  1  0.91132667  0.72137475  0.19458618  1
  P  P13  1  0.41132667  0.27862525  0.80541382  1
  P  P14  1  0.08867333  0.27862525  0.80541382  1
  P  P15  1  0.58867333  0.72137475  0.19458618  1
  P  P16  1  0.91009462  0.19503548  0.71730360  1
  P  P17  1  0.41009462  0.80496452  0.28269640  1
  P  P18  1  0.08990538  0.80496452  0.28269640  1
  P  P19  1  0.58990538  0.19503548  0.71730360  1
  P  P20  1  0.75000000  0.73052104  0.72640161  1
  P  P21  1  0.25000000  0.26947896  0.27359839  1
