# generated using pymatgen
data_CaTi3P2(SO6)4
_symmetry_space_group_name_H-M   'P 1'
_cell_length_a   8.75598174
_cell_length_b   8.77366537
_cell_length_c   22.53335054
_cell_angle_alpha   90.14962025
_cell_angle_beta   90.01906652
_cell_angle_gamma   119.95533303
_symmetry_Int_Tables_number   1
_chemical_formula_structural   CaTi3P2(SO6)4
_chemical_formula_sum   'Ca3 Ti9 P6 S12 O72'
_cell_volume   1499.80694328
_cell_formula_units_Z   3
loop_
 _symmetry_equiv_pos_site_id
 _symmetry_equiv_pos_as_xyz
  1  'x, y, z'
loop_
 _atom_site_type_symbol
 _atom_site_label
 _atom_site_symmetry_multiplicity
 _atom_site_fract_x
 _atom_site_fract_y
 _atom_site_fract_z
 _atom_site_occupancy
  Ca  Ca0  1  0.99876136  0.00120055  0.36404784  1
  Ca  Ca1  1  0.67092607  0.33509201  0.69104306  1
  Ca  Ca2  1  0.66596311  0.33455995  0.18299865  1
  Ti  Ti3  1  0.99945206  0.99971006  0.86219285  1
  Ti  Ti4  1  0.99862053  0.00729363  0.64264944  1
  Ti  Ti5  1  0.00956866  0.01187238  0.14272397  1
  Ti  Ti6  1  0.65456637  0.33136167  0.97455931  1
  Ti  Ti7  1  0.67438380  0.32382949  0.47705946  1
  Ti  Ti8  1  0.33161854  0.66085263  0.01718642  1
  Ti  Ti9  1  0.33524288  0.66572653  0.52183801  1
  Ti  Ti10  1  0.34317715  0.67686218  0.30785627  1
  Ti  Ti11  1  0.32923606  0.66459252  0.81581267  1
  P  P12  1  0.96163739  0.33461540  0.58208704  1
  P  P13  1  0.37228392  0.33576081  0.08034034  1
  P  P14  1  0.61661685  0.66513887  0.91589449  1
  P  P15  1  0.04235188  0.38185910  0.91623047  1
  P  P16  1  0.33463836  0.95117112  0.91638360  1
  P  P17  1  0.60273312  0.95030633  0.41849018  1
  S  S18  1  0.28234410  0.98742965  0.25019146  1
  S  S19  1  0.70796691  0.71848185  0.24994016  1
  S  S20  1  0.01537675  0.29749360  0.25051147  1
  S  S21  1  0.26945892  0.28451722  0.75318762  1
  S  S22  1  0.01539809  0.73180905  0.75320150  1
  S  S23  1  0.71416303  0.98387084  0.75328139  1
  S  S24  1  0.36834063  0.03706215  0.58168573  1
  S  S25  1  0.66971180  0.63047223  0.58175888  1
  S  S26  1  0.96594057  0.63396853  0.08016118  1
  S  S27  1  0.66622195  0.03337139  0.07991405  1
  S  S28  1  0.35477912  0.39743985  0.41892053  1
  S  S29  1  0.04638008  0.64990656  0.41874517  1
  O  O30  1  0.20536066  0.01188494  0.30353685  1
  O  O31  1  0.80718207  0.79551941  0.30379661  1
  O  O32  1  0.98850346  0.19305620  0.30297004  1
  O  O33  1  0.17902730  0.17543595  0.80540684  1
  O  O34  1  0.99794040  0.82307685  0.80620752  1
  O  O35  1  0.82538885  0.00428333  0.80554662  1
  O  O36  1  0.79985947  0.96366392  0.69757922  1
  O  O37  1  0.16283774  0.19966134  0.69741161  1
  O  O38  1  0.03757360  0.83649355  0.69828615  1
  O  O39  1  0.79213252  0.83025949  0.19663983  1
  O  O40  1  0.03866621  0.20480177  0.19597324  1
  O  O41  1  0.16863924  0.96336986  0.19631194  1
  O  O42  1  0.89859591  0.38086913  0.63710072  1
  O  O43  1  0.47413792  0.10068405  0.63511612  1
  O  O44  1  0.62561537  0.52573425  0.63530324  1
  O  O45  1  0.90808006  0.53041099  0.13394142  1
  O  O46  1  0.62509400  0.09436374  0.13407171  1
  O  O47  1  0.47652152  0.38165318  0.13631270  1
  O  O48  1  0.46721190  0.30022343  0.02721753  1
  O  O49  1  0.84417505  0.54541574  0.02932358  1
  O  O50  1  0.70119924  0.15455283  0.02910934  1
  O  O51  1  0.45323774  0.15623892  0.53030688  1
  O  O52  1  0.70266418  0.54548515  0.53049641  1
  O  O53  1  0.83082108  0.29584887  0.52820527  1
  O  O54  1  0.53328740  0.70062615  0.96977314  1
  O  O55  1  0.16549963  0.46797823  0.96930615  1
  O  O56  1  0.30059192  0.83331760  0.96982200  1
  O  O57  1  0.50115307  0.83771158  0.47240898  1
  O  O58  1  0.33359004  0.48741821  0.47195635  1
  O  O59  1  0.15200110  0.66483776  0.47202310  1
  O  O60  1  0.12373766  0.62190573  0.36432968  1
  O  O61  1  0.49058630  0.86341113  0.36132723  1
  O  O62  1  0.37613454  0.50175745  0.36467148  1
  O  O63  1  0.13082617  0.50282328  0.86110370  1
  O  O64  1  0.36888064  0.86544804  0.86096935  1
  O  O65  1  0.49580448  0.62966674  0.86088210  1
  O  O66  1  0.02704774  0.80348992  0.41755964  1
  O  O67  1  0.78286937  0.97375457  0.41856828  1
  O  O68  1  0.20080951  0.22411960  0.41736177  1
  O  O69  1  0.02312894  0.19832367  0.90478937  1
  O  O70  1  0.17396448  0.97702829  0.90545895  1
  O  O71  1  0.80195194  0.82644177  0.90516416  1
  O  O72  1  0.97630225  0.16356618  0.59302422  1
  O  O73  1  0.19007007  0.02055983  0.59066896  1
  O  O74  1  0.83085970  0.80884062  0.59122353  1
  O  O75  1  0.98111574  0.81071376  0.08981900  1
  O  O76  1  0.82846850  0.01682169  0.08938531  1
  O  O77  1  0.18622761  0.16474048  0.09131146  1
  O  O78  1  0.69579841  0.13887647  0.74953577  1
  O  O79  1  0.44265775  0.30230003  0.74859275  1
  O  O80  1  0.85937158  0.55863131  0.75044329  1
  O  O81  1  0.67036997  0.53956647  0.24269318  1
  O  O82  1  0.87164112  0.33026098  0.24048642  1
  O  O83  1  0.46123218  0.12710890  0.24170826  1
  O  O84  1  0.63732982  0.50180447  0.92724222  1
  O  O85  1  0.86073412  0.36164580  0.92881034  1
  O  O86  1  0.49983878  0.13509579  0.92720994  1
  O  O87  1  0.61156906  0.13374870  0.42802353  1
  O  O88  1  0.51818221  0.38761310  0.42838121  1
  O  O89  1  0.86805695  0.48689739  0.42695199  1
  O  O90  1  0.33733210  0.48631443  0.06335893  1
  O  O91  1  0.14579600  0.66458333  0.06618516  1
  O  O92  1  0.51641652  0.85483369  0.06654499  1
  O  O93  1  0.33377712  0.85569486  0.56909844  1
  O  O94  1  0.52217707  0.66554903  0.56919757  1
  O  O95  1  0.14778416  0.48117852  0.56519018  1
  O  O96  1  0.28455827  0.81437254  0.25655592  1
  O  O97  1  0.52806798  0.71051334  0.25739224  1
  O  O98  1  0.18489515  0.47024963  0.25720990  1
  O  O99  1  0.27886940  0.45788259  0.75938759  1
  O  O100  1  0.17887058  0.71941572  0.76038661  1
  O  O101  1  0.54143936  0.81994557  0.75944102  1
