# generated using pymatgen
data_CsMgFe(MoO4)2
_symmetry_space_group_name_H-M   'P 1'
_cell_length_a   5.64219557
_cell_length_b   5.63430620
_cell_length_c   7.64834188
_cell_angle_alpha   90.91450137
_cell_angle_beta   90.55165320
_cell_angle_gamma   119.21288638
_symmetry_Int_Tables_number   1
_chemical_formula_structural   CsMgFe(MoO4)2
_chemical_formula_sum   'Cs1 Mg1 Fe1 Mo2 O8'
_cell_volume   212.14603104
_cell_formula_units_Z   1
loop_
 _symmetry_equiv_pos_site_id
 _symmetry_equiv_pos_as_xyz
  1  'x, y, z'
loop_
 _atom_site_type_symbol
 _atom_site_label
 _atom_site_symmetry_multiplicity
 _atom_site_fract_x
 _atom_site_fract_y
 _atom_site_fract_z
 _atom_site_occupancy
  Cs  Cs0  1  0.99726400  0.99769700  0.48794100  1
  Mg  Mg1  1  0.32577100  0.67078100  0.74965600  1
  Fe  Fe2  1  0.98983400  0.99288700  0.99250500  1
  Mo  Mo3  1  0.32994400  0.65768600  0.24131400  1
  Mo  Mo4  1  0.66662300  0.34081900  0.76549100  1
  O  O5  1  0.34015400  0.66624500  0.48203700  1
  O  O6  1  0.70829700  0.33900400  0.53642800  1
  O  O7  1  0.08021400  0.32829100  0.15784100  1
  O  O8  1  0.65527300  0.73735300  0.15984200  1
  O  O9  1  0.24680700  0.90475000  0.16347500  1
  O  O10  1  0.99124400  0.68010400  0.82920100  1
  O  O11  1  0.34127100  0.34029000  0.82994600  1
  O  O12  1  0.66063700  0.01075800  0.83088700  1
