# generated using pymatgen
data_Na7Mg2Ti2SiP5O24
_symmetry_space_group_name_H-M   'P 1'
_cell_length_a   8.92992100
_cell_length_b   8.92723873
_cell_length_c   21.95174468
_cell_angle_alpha   90.08998218
_cell_angle_beta   89.91011644
_cell_angle_gamma   119.95378206
_symmetry_Int_Tables_number   1
_chemical_formula_structural   Na7Mg2Ti2SiP5O24
_chemical_formula_sum   'Na21 Mg6 Ti6 Si3 P15 O72'
_cell_volume   1516.23249120
_cell_formula_units_Z   3
loop_
 _symmetry_equiv_pos_site_id
 _symmetry_equiv_pos_as_xyz
  1  'x, y, z'
loop_
 _atom_site_type_symbol
 _atom_site_label
 _atom_site_symmetry_multiplicity
 _atom_site_fract_x
 _atom_site_fract_y
 _atom_site_fract_z
 _atom_site_occupancy
  Na  Na0  1  0.36167565  0.36892915  0.25321225  1
  Na  Na1  1  0.00715214  0.63812269  0.25264276  1
  Na  Na2  1  0.62992537  0.64120116  0.75078428  1
  Na  Na3  1  0.00550498  0.36971181  0.75250350  1
  Na  Na4  1  0.36084132  0.98904967  0.75321112  1
  Na  Na5  1  0.29663706  0.32044127  0.58286701  1
  Na  Na6  1  0.02730407  0.70394862  0.58524020  1
  Na  Na7  1  0.67579117  0.97039819  0.58814299  1
  Na  Na8  1  0.29534501  0.97319331  0.08600813  1
  Na  Na9  1  0.67985221  0.70403519  0.08389383  1
  Na  Na10  1  0.02917943  0.32696550  0.08607259  1
  Na  Na11  1  0.96012735  0.65756227  0.92145030  1
  Na  Na12  1  0.69421638  0.03388452  0.91917489  1
  Na  Na13  1  0.96581665  0.30500027  0.41862294  1
  Na  Na14  1  0.34438602  0.03922293  0.42096155  1
  Na  Na15  1  0.99509811  0.98941964  0.50242563  1
  Na  Na16  1  0.01166234  0.00433379  0.00224832  1
  Na  Na17  1  0.65383694  0.33411045  0.83817337  1
  Na  Na18  1  0.66425411  0.33399213  0.33672943  1
  Na  Na19  1  0.34676170  0.68073091  0.17191146  1
  Na  Na20  1  0.33800834  0.67023820  0.67019797  1
  Mg  Mg21  1  0.99985774  0.99827635  0.64871767  1
  Mg  Mg22  1  0.99888956  0.99764693  0.14952759  1
  Mg  Mg23  1  0.66085880  0.33485286  0.98152278  1
  Mg  Mg24  1  0.66458892  0.33835483  0.48093688  1
  Mg  Mg25  1  0.33895308  0.67180643  0.31536462  1
  Mg  Mg26  1  0.33571673  0.66815733  0.81610584  1
  Ti  Ti27  1  0.99459954  0.99505784  0.35089340  1
  Ti  Ti28  1  0.99889685  0.00575650  0.85074845  1
  Ti  Ti29  1  0.66255735  0.32164346  0.68409743  1
  Ti  Ti30  1  0.67376006  0.33284290  0.18425022  1
  Ti  Ti31  1  0.32681597  0.66345388  0.01765598  1
  Ti  Ti32  1  0.33985823  0.67437126  0.51721718  1
  Si  Si33  1  0.70438611  0.99966108  0.74717645  1
  Si  Si34  1  0.37008559  0.03718961  0.57936797  1
  Si  Si35  1  0.96168438  0.62883417  0.08012545  1
  P  P36  1  0.29528786  0.00182949  0.24906514  1
  P  P37  1  0.70586125  0.70688331  0.24741897  1
  P  P38  1  0.99529736  0.28909944  0.24882257  1
  P  P39  1  0.29183087  0.29088668  0.74818721  1
  P  P40  1  0.99706990  0.70646240  0.74952229  1
  P  P41  1  0.96046689  0.33557203  0.58095483  1
  P  P42  1  0.66469872  0.62177248  0.58293378  1
  P  P43  1  0.66570514  0.04147742  0.08087661  1
  P  P44  1  0.37748037  0.33567439  0.08360273  1
  P  P45  1  0.62559950  0.66591811  0.91463197  1
  P  P46  1  0.04270958  0.37124671  0.91461211  1
  P  P47  1  0.33134729  0.96068513  0.91532049  1
  P  P48  1  0.62871338  0.95783534  0.41501258  1
  P  P49  1  0.33320107  0.37418074  0.41396968  1
  P  P50  1  0.04053248  0.66764575  0.41450707  1
  O  O51  1  0.19907289  0.02836344  0.30627281  1
  O  O52  1  0.83213459  0.80660038  0.30299736  1
  O  O53  1  0.97453269  0.17458898  0.30669654  1
  O  O54  1  0.19812197  0.16642866  0.80403307  1
  O  O55  1  0.97218993  0.80069377  0.80681509  1
  O  O56  1  0.83640992  0.03273742  0.80801599  1
  O  O57  1  0.79152838  0.97154562  0.68864144  1
  O  O58  1  0.18730411  0.21273671  0.69078125  1
  O  O59  1  0.02985220  0.81621355  0.69295139  1
  O  O60  1  0.78657353  0.80667210  0.18961191  1
  O  O61  1  0.02236128  0.20802767  0.19230690  1
  O  O62  1  0.18697951  0.97695668  0.19243968  1
  O  O63  1  0.87098141  0.36577232  0.63904539  1
  O  O64  1  0.50219260  0.13485287  0.64063772  1
  O  O65  1  0.63461238  0.50772753  0.64188031  1
  O  O66  1  0.86339433  0.49600492  0.14098444  1
  O  O67  1  0.63378485  0.13512875  0.13694358  1
  O  O68  1  0.49390100  0.36605259  0.14212938  1
  O  O69  1  0.45810167  0.29869955  0.02937795  1
  O  O70  1  0.84647164  0.54148890  0.02164273  1
  O  O71  1  0.69279643  0.14714707  0.02368529  1
  O  O72  1  0.45752690  0.15332141  0.52121542  1
  O  O73  1  0.69700237  0.53807293  0.52871387  1
  O  O74  1  0.85156277  0.30965727  0.52487709  1
  O  O75  1  0.53426374  0.69372391  0.97217203  1
  O  O76  1  0.15744866  0.46604476  0.97286612  1
  O  O77  1  0.30522790  0.83733230  0.97264470  1
  O  O78  1  0.53989992  0.84466760  0.47462624  1
  O  O79  1  0.30606243  0.46614900  0.47167964  1
  O  O80  1  0.16456397  0.69874076  0.47171348  1
  O  O81  1  0.12309395  0.64193426  0.35785598  1
  O  O82  1  0.51013821  0.87114822  0.36203303  1
  O  O83  1  0.34671180  0.47482649  0.35683970  1
  O  O84  1  0.12539535  0.48099214  0.85876435  1
  O  O85  1  0.35573146  0.87668798  0.85879405  1
  O  O86  1  0.52541397  0.65101866  0.85731524  1
  O  O87  1  0.03321702  0.83983275  0.41107716  1
  O  O88  1  0.81171319  0.97359960  0.41065098  1
  O  O89  1  0.16031986  0.19008321  0.41234935  1
  O  O90  1  0.02836702  0.18895266  0.91261473  1
  O  O91  1  0.15986178  0.96612921  0.91336536  1
  O  O92  1  0.80957693  0.83850415  0.91292507  1
  O  O93  1  0.98433814  0.17841538  0.58827806  1
  O  O94  1  0.17910573  0.00838677  0.58820659  1
  O  O95  1  0.81863116  0.80541599  0.58891441  1
  O  O96  1  0.99182882  0.82088864  0.08821748  1
  O  O97  1  0.82363251  0.01995054  0.08990329  1
  O  O98  1  0.19285631  0.18430257  0.09121097  1
  O  O99  1  0.69711813  0.18412598  0.74512302  1
  O  O100  1  0.47414821  0.30511167  0.74598747  1
  O  O101  1  0.82659136  0.52792802  0.74656582  1
  O  O102  1  0.69859651  0.52584009  0.24688738  1
  O  O103  1  0.82820753  0.30590227  0.24593630  1
  O  O104  1  0.47294313  0.17338783  0.24638629  1
  O  O105  1  0.65540912  0.51250800  0.92017204  1
  O  O106  1  0.85970810  0.34493069  0.92112082  1
  O  O107  1  0.49289614  0.13677498  0.92343267  1
  O  O108  1  0.65702367  0.14135777  0.42191681  1
  O  O109  1  0.48633288  0.34415924  0.41936967  1
  O  O110  1  0.86401986  0.50806718  0.42330644  1
  O  O111  1  0.36906343  0.50741986  0.07800655  1
  O  O112  1  0.15498600  0.63863749  0.07722588  1
  O  O113  1  0.49796165  0.85908241  0.07841837  1
  O  O114  1  0.36104930  0.84478252  0.57698167  1
  O  O115  1  0.49332442  0.63198475  0.57778151  1
  O  O116  1  0.14241045  0.50398678  0.57817433  1
  O  O117  1  0.31087471  0.84027248  0.25665885  1
  O  O118  1  0.52275349  0.67474505  0.25570006  1
  O  O119  1  0.15271895  0.47226615  0.25534554  1
  O  O120  1  0.31371724  0.47096007  0.75683263  1
  O  O121  1  0.15154796  0.67739183  0.75718697  1
  O  O122  1  0.51245563  0.83755774  0.75481384  1
