# generated using pymatgen
data_Na4SnS4
_symmetry_space_group_name_H-M   'P 1'
_cell_length_a   6.95621257
_cell_length_b   7.81961597
_cell_length_c   7.81961597
_cell_angle_alpha   90.00000000
_cell_angle_beta   90.00000000
_cell_angle_gamma   90.00000000
_symmetry_Int_Tables_number   1
_chemical_formula_structural   Na4SnS4
_chemical_formula_sum   'Na8 Sn2 S8'
_cell_volume   425.34731398
_cell_formula_units_Z   2
loop_
 _symmetry_equiv_pos_site_id
 _symmetry_equiv_pos_as_xyz
  1  'x, y, z'
loop_
 _atom_site_type_symbol
 _atom_site_label
 _atom_site_symmetry_multiplicity
 _atom_site_fract_x
 _atom_site_fract_y
 _atom_site_fract_z
 _atom_site_occupancy
  Na  Na0  1  0.03067456  0.19778108  0.59386456  1
  Na  Na1  1  0.96932544  0.59386456  0.80221892  1
  Na  Na2  1  0.96932544  0.40613544  0.19778108  1
  Na  Na3  1  0.03067456  0.80221892  0.40613544  1
  Na  Na4  1  0.46932544  0.69778108  0.90613544  1
  Na  Na5  1  0.46932544  0.30221892  0.09386456  1
  Na  Na6  1  0.53067456  0.90613544  0.30221892  1
  Na  Na7  1  0.53067456  0.09386456  0.69778108  1
  Sn  Sn8  1  -0.00000000  -0.00000000  0.00000000  1
  Sn  Sn9  1  0.50000000  0.50000000  0.50000000  1
  S  S10  1  0.68965609  0.25996218  0.40706203  1
  S  S11  1  0.68965609  0.74003782  0.59293797  1
  S  S12  1  0.18965609  0.09293797  0.24003782  1
  S  S13  1  0.81034391  0.24003782  0.90706203  1
  S  S14  1  0.81034391  0.75996218  0.09293797  1
  S  S15  1  0.18965609  0.90706203  0.75996218  1
  S  S16  1  0.31034391  0.59293797  0.25996218  1
  S  S17  1  0.31034391  0.40706203  0.74003782  1
