# generated using pymatgen
data_Dy2O3
_symmetry_space_group_name_H-M   'P 1'
_cell_length_a   9.17498665
_cell_length_b   9.17498733
_cell_length_c   9.17498716
_cell_angle_alpha   109.47122023
_cell_angle_beta   109.47122174
_cell_angle_gamma   109.47121798
_symmetry_Int_Tables_number   1
_chemical_formula_structural   Dy2O3
_chemical_formula_sum   'Dy16 O24'
_cell_volume   594.55837255
_cell_formula_units_Z   8
loop_
 _symmetry_equiv_pos_site_id
 _symmetry_equiv_pos_as_xyz
  1  'x, y, z'
loop_
 _atom_site_type_symbol
 _atom_site_label
 _atom_site_symmetry_multiplicity
 _atom_site_fract_x
 _atom_site_fract_y
 _atom_site_fract_z
 _atom_site_occupancy
  Dy  Dy0  1  0.25000000  0.71771606  0.46771606  1
  Dy  Dy1  1  0.03228394  0.75000000  0.78228394  1
  Dy  Dy2  1  0.78228394  0.03228394  0.75000000  1
  Dy  Dy3  1  0.46771606  0.25000000  0.71771606  1
  Dy  Dy4  1  0.71771606  0.46771606  0.25000000  1
  Dy  Dy5  1  0.75000000  0.78228394  0.03228394  1
  Dy  Dy6  1  0.75000000  0.28228394  0.53228394  1
  Dy  Dy7  1  0.96771606  0.25000000  0.21771606  1
  Dy  Dy8  1  0.21771606  0.96771606  0.25000000  1
  Dy  Dy9  1  0.53228394  0.75000000  0.28228394  1
  Dy  Dy10  1  0.28228394  0.53228394  0.75000000  1
  Dy  Dy11  1  0.25000000  0.21771606  0.96771606  1
  Dy  Dy12  1  -0.00000000  0.50000000  0.00000000  1
  Dy  Dy13  1  0.50000000  -0.00000000  0.00000000  1
  Dy  Dy14  1  -0.00000000  -0.00000000  0.50000000  1
  Dy  Dy15  1  0.50000000  0.50000000  0.50000000  1
  O  O16  1  0.03093747  0.48823913  0.76033541  1
  O  O17  1  0.22790373  0.27060106  0.73966459  1
  O  O18  1  0.27209627  0.01176087  0.04269733  1
  O  O19  1  0.22939894  0.45730267  0.46906253  1
  O  O20  1  0.45730267  0.46906253  0.22939894  1
  O  O21  1  0.76033541  0.03093747  0.48823913  1
  O  O22  1  0.27060106  0.73966459  0.22790373  1
  O  O23  1  0.04269733  0.27209627  0.01176087  1
  O  O24  1  0.48823913  0.76033541  0.03093747  1
  O  O25  1  0.73966459  0.22790373  0.27060106  1
  O  O26  1  0.01176087  0.04269733  0.27209627  1
  O  O27  1  0.46906253  0.22939894  0.45730267  1
  O  O28  1  0.96906253  0.51176087  0.23966459  1
  O  O29  1  0.77209627  0.72939894  0.26033541  1
  O  O30  1  0.72790373  0.98823913  0.95730267  1
  O  O31  1  0.77060106  0.54269733  0.53093747  1
  O  O32  1  0.53093747  0.77060106  0.54269733  1
  O  O33  1  0.98823913  0.95730267  0.72790373  1
  O  O34  1  0.26033541  0.77209627  0.72939894  1
  O  O35  1  0.51176087  0.23966459  0.96906253  1
  O  O36  1  0.95730267  0.72790373  0.98823913  1
  O  O37  1  0.72939894  0.26033541  0.77209627  1
  O  O38  1  0.23966459  0.96906253  0.51176087  1
  O  O39  1  0.54269733  0.53093747  0.77060106  1
