# generated using pymatgen
data_Na10Zr4In4Si7S5O48
_symmetry_space_group_name_H-M   'P 1'
_cell_length_a   18.35086072
_cell_length_b   9.14766567
_cell_length_c   23.07040102
_cell_angle_alpha   89.88870998
_cell_angle_beta   90.21218416
_cell_angle_gamma   119.77097391
_symmetry_Int_Tables_number   1
_chemical_formula_structural   Na10Zr4In4Si7S5O48
_chemical_formula_sum   'Na30 Zr12 In12 Si21 S15 O144'
_cell_volume   3361.60879091
_cell_formula_units_Z   3
loop_
 _symmetry_equiv_pos_site_id
 _symmetry_equiv_pos_as_xyz
  1  'x, y, z'
loop_
 _atom_site_type_symbol
 _atom_site_label
 _atom_site_symmetry_multiplicity
 _atom_site_fract_x
 _atom_site_fract_y
 _atom_site_fract_z
 _atom_site_occupancy
  Na  Na0  1  0.18599749  0.37361357  0.24005871  1
  Na  Na1  1  0.68598812  0.37408518  0.24047466  1
  Na  Na2  1  0.99140002  0.62714489  0.25457541  1
  Na  Na3  1  0.49210602  0.62703959  0.25439908  1
  Na  Na4  1  0.49149335  0.35189109  0.75948801  1
  Na  Na5  1  0.18609272  0.99850886  0.74428187  1
  Na  Na6  1  0.68576517  -0.00050299  0.74332086  1
  Na  Na7  1  0.65904439  0.34173964  0.57935832  1
  Na  Na8  1  0.01874088  0.70571616  0.57685342  1
  Na  Na9  1  0.82577400  0.95880139  0.59126179  1
  Na  Na10  1  0.49122743  0.67127400  0.91136029  1
  Na  Na11  1  0.99276180  0.67361334  0.91007357  1
  Na  Na12  1  0.85213606  0.03840950  0.90538660  1
  Na  Na13  1  0.15694762  0.29299410  0.92352341  1
  Na  Na14  1  0.49165807  0.31274273  0.41041710  1
  Na  Na15  1  0.98915957  0.30911495  0.41061275  1
  Na  Na16  1  0.35226270  0.66541492  0.40539378  1
  Na  Na17  1  0.85259461  0.66734746  0.40914658  1
  Na  Na18  1  0.02166511  0.00661010  0.49596850  1
  Na  Na19  1  0.51838289  0.99190267  0.49434047  1
  Na  Na20  1  0.01376508  0.02207516  0.99860226  1
  Na  Na21  1  0.51748078  0.04405913  0.99346091  1
  Na  Na22  1  0.34065734  0.32277364  0.83116600  1
  Na  Na23  1  0.84583008  0.33961403  0.82438579  1
  Na  Na24  1  0.33689974  0.33489130  0.32719755  1
  Na  Na25  1  0.83578554  0.33428590  0.32939312  1
  Na  Na26  1  0.17585342  0.65979733  0.16021658  1
  Na  Na27  1  0.67544634  0.66040059  0.16077573  1
  Na  Na28  1  0.17615883  0.68317193  0.66730142  1
  Na  Na29  1  0.67391396  0.68638042  0.66448915  1
  Zr  Zr30  1  0.99803129  0.98779410  0.64901634  1
  Zr  Zr31  1  0.49579278  0.98220275  0.64879415  1
  Zr  Zr32  1  0.99949713  0.01269227  0.14661698  1
  Zr  Zr33  1  0.49901994  0.01117944  0.14654460  1
  Zr  Zr34  1  0.32961533  0.31954121  0.97957935  1
  Zr  Zr35  1  0.82449711  0.32295560  0.98033039  1
  Zr  Zr36  1  0.32619999  0.32830618  0.48010678  1
  Zr  Zr37  1  0.82776187  0.34120212  0.48056870  1
  Zr  Zr38  1  0.16475031  0.65388147  0.31332256  1
  Zr  Zr39  1  0.66413087  0.65404288  0.31374158  1
  Zr  Zr40  1  0.16250094  0.67493821  0.81335246  1
  Zr  Zr41  1  0.66508782  0.67564088  0.81396424  1
  In  In42  1  0.00133110  0.00062982  0.35027302  1
  In  In43  1  0.50163466  0.00030011  0.34966830  1
  In  In44  1  0.99866517  0.99896404  0.84756081  1
  In  In45  1  0.49757782  -0.00016297  0.85222635  1
  In  In46  1  0.33285191  0.32639427  0.68468644  1
  In  In47  1  0.83501048  0.33453255  0.68520140  1
  In  In48  1  0.33423883  0.34245467  0.18222568  1
  In  In49  1  0.83406629  0.34241878  0.18259874  1
  In  In50  1  0.16088251  0.65119701  0.01680961  1
  In  In51  1  0.65892386  0.64705057  0.01740674  1
  In  In52  1  0.16389074  0.67320885  0.51579539  1
  In  In53  1  0.66199943  0.66902951  0.51773091  1
  Si  Si54  1  0.35320344  0.70929910  0.25071302  1
  Si  Si55  1  0.85342825  0.70994781  0.25071410  1
  Si  Si56  1  0.99553430  0.29144530  0.25230228  1
  Si  Si57  1  0.49557443  0.29137283  0.25226550  1
  Si  Si58  1  0.99634395  0.69670178  0.75251344  1
  Si  Si59  1  0.49590907  0.69866417  0.75322014  1
  Si  Si60  1  0.35284533  0.99657282  0.74977354  1
  Si  Si61  1  0.85102869  0.00015954  0.75070930  1
  Si  Si62  1  0.18569341  0.03307428  0.58630102  1
  Si  Si63  1  0.68494797  0.03815520  0.58594776  1
  Si  Si64  1  0.83115907  0.62765972  0.58324269  1
  Si  Si65  1  0.18552608  0.33796792  0.08424611  1
  Si  Si66  1  0.68439611  0.33792644  0.08656450  1
  Si  Si67  1  0.01866431  0.36788016  0.91681444  1
  Si  Si68  1  0.51750426  0.36467787  0.91574342  1
  Si  Si69  1  0.16449581  0.95761351  0.91789594  1
  Si  Si70  1  0.66390319  0.95569239  0.91936236  1
  Si  Si71  1  0.16394337  0.37095537  0.41857429  1
  Si  Si72  1  0.66333394  0.36637392  0.41921220  1
  Si  Si73  1  0.01776025  0.66925769  0.41746309  1
  Si  Si74  1  0.51840620  0.66926220  0.41646692  1
  S  S75  1  0.14708032  0.00000809  0.24912264  1
  S  S76  1  0.64730525  0.99983147  0.24892417  1
  S  S77  1  0.14812615  0.29827149  0.75019332  1
  S  S78  1  0.64517519  0.29191605  0.74889426  1
  S  S79  1  0.48046459  0.32971527  0.58362519  1
  S  S80  1  0.98156992  0.33298184  0.58174656  1
  S  S81  1  0.33240073  0.62622315  0.58249268  1
  S  S82  1  0.48213662  0.63302922  0.08394543  1
  S  S83  1  0.98207570  0.63276987  0.08331182  1
  S  S84  1  0.33178865  0.03745995  0.08430081  1
  S  S85  1  0.83224406  0.03859107  0.08309378  1
  S  S86  1  0.31215906  0.66490619  0.91829568  1
  S  S87  1  0.81261662  0.66514389  0.91820884  1
  S  S88  1  0.31273744  0.96104802  0.41731577  1
  S  S89  1  0.81299136  0.96209994  0.41773964  1
  O  O90  1  0.11170324  0.03269784  0.30177076  1
  O  O91  1  0.61194544  0.03261570  0.30164394  1
  O  O92  1  0.40794645  0.78116671  0.31028403  1
  O  O93  1  0.90896288  0.78206432  0.30993437  1
  O  O94  1  0.48488490  0.19379847  0.31314136  1
  O  O95  1  0.98560746  0.19447676  0.31307758  1
  O  O96  1  0.11300119  0.20023939  0.80464943  1
  O  O97  1  0.60635862  0.18568610  0.80015152  1
  O  O98  1  0.48617332  0.77848361  0.81293389  1
  O  O99  1  0.98987331  0.78138273  0.81287268  1
  O  O100  1  0.41701134  0.04590645  0.80354758  1
  O  O101  1  0.90212644  0.02266029  0.81082048  1
  O  O102  1  0.40145194  0.98137790  0.69126809  1
  O  O103  1  0.90132144  0.98853401  0.69272897  1
  O  O104  1  0.09417618  0.21013434  0.69956633  1
  O  O105  1  0.59316528  0.21253057  0.69525205  1
  O  O106  1  0.01308763  0.82431093  0.69613960  1
  O  O107  1  0.51421800  0.82820131  0.69750595  1
  O  O108  1  0.40639576  0.82617977  0.19543446  1
  O  O109  1  0.90638793  0.82719632  0.19510711  1
  O  O110  1  0.01618417  0.20011940  0.19804705  1
  O  O111  1  0.51545361  0.19865669  0.19815968  1
  O  O112  1  0.09317337  0.97476340  0.19752401  1
  O  O113  1  0.59324378  0.97444978  0.19747309  1
  O  O114  1  0.44142365  0.34999427  0.63654549  1
  O  O115  1  0.94141455  0.35934796  0.63278550  1
  O  O116  1  0.23598609  0.11613794  0.64611334  1
  O  O117  1  0.73904589  0.11386275  0.64531208  1
  O  O118  1  0.32432087  0.52635226  0.63441935  1
  O  O119  1  0.81365289  0.50075448  0.63621178  1
  O  O120  1  0.44437948  0.53461242  0.13784177  1
  O  O121  1  0.94411817  0.53503723  0.13715229  1
  O  O122  1  0.32396030  0.11895866  0.13680669  1
  O  O123  1  0.82503605  0.12338835  0.13499497  1
  O  O124  1  0.23462839  0.35054905  0.14512046  1
  O  O125  1  0.73333179  0.35135103  0.14747981  1
  O  O126  1  0.23637848  0.31846563  0.02773783  1
  O  O127  1  0.73824991  0.31879070  0.03184911  1
  O  O128  1  0.43062380  0.54305661  0.03216388  1
  O  O129  1  0.93089304  0.54350263  0.03134751  1
  O  O130  1  0.34338753  0.14352594  0.03184264  1
  O  O131  1  0.84386128  0.14190875  0.02966925  1
  O  O132  1  0.23876495  0.15505791  0.53054520  1
  O  O133  1  0.73678750  0.16695624  0.53098862  1
  O  O134  1  0.34313462  0.54520071  0.52898816  1
  O  O135  1  0.85084537  0.54932649  0.52373717  1
  O  O136  1  0.43071514  0.31763207  0.53094886  1
  O  O137  1  0.93101537  0.31115571  0.52803180  1
  O  O138  1  0.27563378  0.68956293  0.97126088  1
  O  O139  1  0.77500754  0.68992472  0.97054460  1
  O  O140  1  0.08082454  0.43614452  0.97230989  1
  O  O141  1  0.57220473  0.44601748  0.97322587  1
  O  O142  1  0.14905007  0.83565580  0.97268196  1
  O  O143  1  0.65471512  0.84011979  0.97453202  1
  O  O144  1  0.27554438  0.86245843  0.47029850  1
  O  O145  1  0.77686558  0.86574652  0.47157875  1
  O  O146  1  0.15288181  0.46638704  0.47356980  1
  O  O147  1  0.65129438  0.45045288  0.47766585  1
  O  O148  1  0.06726569  0.69486950  0.47838548  1
  O  O149  1  0.57485224  0.69775513  0.47296230  1
  O  O150  1  0.06853211  0.64895778  0.36116199  1
  O  O151  1  0.56256001  0.64305310  0.35735212  1
  O  O152  1  0.26089546  0.88197296  0.36546879  1
  O  O153  1  0.75985981  0.87728290  0.36653039  1
  O  O154  1  0.18324413  0.49039650  0.35958565  1
  O  O155  1  0.67942606  0.49129952  0.36221104  1
  O  O156  1  0.06653788  0.49401830  0.86148448  1
  O  O157  1  0.56317419  0.48535730  0.85733972  1
  O  O158  1  0.17900663  0.87669164  0.85805328  1
  O  O159  1  0.68359911  0.87513121  0.86021167  1
  O  O160  1  0.25954038  0.63967832  0.86654865  1
  O  O161  1  0.76144221  0.64035935  0.86577175  1
  O  O162  1  0.99858439  0.82487965  0.41279013  1
  O  O163  1  0.49708590  0.82237523  0.41250573  1
  O  O164  1  0.39747619  0.97967722  0.41306459  1
  O  O165  1  0.89738402  0.97814642  0.41289809  1
  O  O166  1  0.07948089  0.18866465  0.41311621  1
  O  O167  1  0.57835157  0.18473456  0.41273302  1
  O  O168  1  0.00222196  0.17505973  0.91030354  1
  O  O169  1  0.50139905  0.17481956  0.91175252  1
  O  O170  1  0.08187787  0.98344361  0.91325496  1
  O  O171  1  0.57930120  0.96826920  0.91326290  1
  O  O172  1  0.39892587  0.80561456  0.91342870  1
  O  O173  1  0.89794824  0.81530401  0.91381161  1
  O  O174  1  0.48793487  0.17452585  0.58626426  1
  O  O175  1  0.98675011  0.17663339  0.58708034  1
  O  O176  1  0.09116968  0.01511040  0.58769153  1
  O  O177  1  0.59390863  0.03697766  0.58819425  1
  O  O178  1  0.41092272  0.79500866  0.58559057  1
  O  O179  1  0.91629944  0.81621590  0.58913621  1
  O  O180  1  0.48623743  0.79937323  0.08739904  1
  O  O181  1  0.98672583  0.79993149  0.08648828  1
  O  O182  1  0.40961650  0.02314366  0.08738723  1
  O  O183  1  0.91061556  0.02503995  0.08660548  1
  O  O184  1  0.09158814  0.16294890  0.08763534  1
  O  O185  1  0.59113830  0.16354631  0.08848406  1
  O  O186  1  0.33790789  0.16064903  0.74668432  1
  O  O187  1  0.83153160  0.15645400  0.74753329  1
  O  O188  1  0.23201070  0.31194674  0.74469143  1
  O  O189  1  0.72917966  0.31096749  0.74418964  1
  O  O190  1  0.41772648  0.50859387  0.74332193  1
  O  O191  1  0.91510675  0.51284106  0.74601873  1
  O  O192  1  0.33859892  0.51562180  0.24712896  1
  O  O193  1  0.83933877  0.51666598  0.24705916  1
  O  O194  1  0.41713879  0.32544447  0.24280695  1
  O  O195  1  0.91711958  0.32507257  0.24264687  1
  O  O196  1  0.23206228  0.14704525  0.24312560  1
  O  O197  1  0.73231090  0.14658291  0.24304683  1
  O  O198  1  0.31775443  0.50485361  0.92285857  1
  O  O199  1  0.82498592  0.51478308  0.92326931  1
  O  O200  1  0.42726457  0.37156571  0.92231319  1
  O  O201  1  0.92749774  0.36371546  0.92476094  1
  O  O202  1  0.24754076  0.15040567  0.92316382  1
  O  O203  1  0.75203051  0.14207343  0.92422560  1
  O  O204  1  0.32441955  0.13520459  0.42208755  1
  O  O205  1  0.82476685  0.13518710  0.42128082  1
  O  O206  1  0.25210163  0.36144350  0.42357348  1
  O  O207  1  0.75167144  0.35877773  0.42008045  1
  O  O208  1  0.42595410  0.48754163  0.42279174  1
  O  O209  1  0.92683541  0.48596243  0.41932323  1
  O  O210  1  0.17775772  0.50851737  0.08110425  1
  O  O211  1  0.67772652  0.50893996  0.08195287  1
  O  O212  1  0.06748225  0.65539994  0.08056244  1
  O  O213  1  0.56767756  0.65699874  0.08147182  1
  O  O214  1  0.25731290  0.86954632  0.07858325  1
  O  O215  1  0.75845074  0.87023894  0.07848490  1
  O  O216  1  0.17110781  0.83978572  0.58175988  1
  O  O217  1  0.67842618  0.85478815  0.57959960  1
  O  O218  1  0.25855412  0.64813789  0.57761044  1
  O  O219  1  0.74896297  0.65181770  0.57761544  1
  O  O220  1  0.06618500  0.48321098  0.57856316  1
  O  O221  1  0.56678840  0.47628931  0.58162146  1
  O  O222  1  0.15094875  0.84207588  0.25478395  1
  O  O223  1  0.65124785  0.84201310  0.25459705  1
  O  O224  1  0.25894690  0.69141171  0.25424525  1
  O  O225  1  0.75886109  0.69067952  0.25476007  1
  O  O226  1  0.08273227  0.48259629  0.25483162  1
  O  O227  1  0.58322092  0.48176815  0.25458668  1
  O  O228  1  0.15699155  0.46686773  0.75403865  1
  O  O229  1  0.64946543  0.45781128  0.75376482  1
  O  O230  1  0.08661498  0.69322505  0.75266203  1
  O  O231  1  0.58363735  0.68471226  0.75424961  1
  O  O232  1  0.25981889  0.82646691  0.75469334  1
  O  O233  1  0.75738023  0.82408051  0.75326660  1
