# generated using pymatgen
data_Na3LaZnP2SO12
_symmetry_space_group_name_H-M   'P 1'
_cell_length_a   9.40121205
_cell_length_b   9.39469169
_cell_length_c   23.31555282
_cell_angle_alpha   87.93338506
_cell_angle_beta   90.00000000
_cell_angle_gamma   120.02296150
_symmetry_Int_Tables_number   1
_chemical_formula_structural   Na3LaZnP2SO12
_chemical_formula_sum   'Na18 La6 Zn6 P12 S6 O72'
_cell_volume   1781.41532892
_cell_formula_units_Z   6
loop_
 _symmetry_equiv_pos_site_id
 _symmetry_equiv_pos_as_xyz
  1  'x, y, z'
loop_
 _atom_site_type_symbol
 _atom_site_label
 _atom_site_symmetry_multiplicity
 _atom_site_fract_x
 _atom_site_fract_y
 _atom_site_fract_z
 _atom_site_occupancy
  Na  Na0  1  0.35858843  0.35238204  0.24483200  1
  Na  Na1  1  0.99706109  0.62426067  0.24312187  1
  Na  Na2  1  0.62719958  0.62426067  0.74312187  1
  Na  Na3  1  0.99379361  0.35238204  0.74483200  1
  Na  Na4  1  0.02525543  0.68571504  0.57816500  1
  Na  Na5  1  0.66372809  0.95759367  0.57645487  1
  Na  Na6  1  0.29386658  0.95759367  0.07645487  1
  Na  Na7  1  0.66046061  0.68571504  0.07816500  1
  Na  Na8  1  0.69192143  0.01904904  0.91149900  1
  Na  Na9  1  0.33039409  0.29092767  0.90978887  1
  Na  Na10  1  0.96053258  0.29092767  0.40978887  1
  Na  Na11  1  0.32712661  0.01904904  0.41149900  1
  Na  Na12  1  0.97491295  0.97765726  0.48867972  1
  Na  Na13  1  0.00274431  0.97765726  0.98867972  1
  Na  Na14  1  0.64157995  0.31099026  0.82201272  1
  Na  Na15  1  0.66941131  0.31099026  0.32201272  1
  Na  Na16  1  0.30824595  0.64432426  0.15534672  1
  Na  Na17  1  0.33607731  0.64432426  0.65534672  1
  La  La18  1  0.01518198  0.01861234  0.65122333  1
  La  La19  1  0.00343036  0.01861234  0.15122333  1
  La  La20  1  0.68184898  0.35194534  0.98455633  1
  La  La21  1  0.67009736  0.35194534  0.48455633  1
  La  La22  1  0.34851498  0.68527934  0.31789033  1
  La  La23  1  0.33676336  0.68527934  0.81789033  1
  Zn  Zn24  1  0.98708981  0.99300442  0.34718325  1
  Zn  Zn25  1  0.00591461  0.99300442  0.84718325  1
  Zn  Zn26  1  0.65375681  0.32633742  0.68051625  1
  Zn  Zn27  1  0.67258161  0.32633742  0.18051625  1
  Zn  Zn28  1  0.32042281  0.65967142  0.01385025  1
  Zn  Zn29  1  0.33924761  0.65967142  0.51385025  1
  P  P30  1  0.30748313  0.01861969  0.25060877  1
  P  P31  1  0.99046253  0.30003073  0.25603570  1
  P  P32  1  0.30956820  0.30003073  0.75603570  1
  P  P33  1  0.71113656  0.01861969  0.75060877  1
  P  P34  1  0.97415013  0.35195269  0.58394177  1
  P  P35  1  0.65712953  0.63336373  0.58936870  1
  P  P36  1  0.97623520  0.63336373  0.08936870  1
  P  P37  1  0.37780356  0.35195269  0.08394177  1
  P  P38  1  0.64081613  0.68528669  0.91727577  1
  P  P39  1  0.32379553  0.96669773  0.92270270  1
  P  P40  1  0.64290120  0.96669773  0.42270270  1
  P  P41  1  0.04446956  0.68528669  0.41727577  1
  S  S42  1  0.70534248  0.68798712  0.25050382  1
  S  S43  1  0.98264464  0.68798712  0.75050382  1
  S  S44  1  0.37200948  0.02132012  0.58383682  1
  S  S45  1  0.64931164  0.02132012  0.08383682  1
  S  S46  1  0.03867548  0.35465412  0.91717082  1
  S  S47  1  0.31597764  0.35465412  0.41717082  1
  O  O48  1  0.21702450  0.03485230  0.30399400  1
  O  O49  1  0.80585694  0.78620645  0.29822611  1
  O  O50  1  0.97501304  0.19705878  0.31198320  1
  O  O51  1  0.22204574  0.19705878  0.81198320  1
  O  O52  1  0.98034951  0.78620645  0.79822611  1
  O  O53  1  0.81782780  0.03485230  0.80399400  1
  O  O54  1  0.78991251  0.99499388  0.69591621  1
  O  O55  1  0.20320347  0.22007665  0.70345224  1
  O  O56  1  0.00552731  0.77617531  0.69423932  1
  O  O57  1  0.77064800  0.77617531  0.19423932  1
  O  O58  1  0.01687317  0.22007665  0.20345224  1
  O  O59  1  0.20508136  0.99499388  0.19591621  1
  O  O60  1  0.88369150  0.36818530  0.63732700  1
  O  O61  1  0.47252394  0.11953945  0.63155911  1
  O  O62  1  0.64168004  0.53039178  0.64531620  1
  O  O63  1  0.88871274  0.53039178  0.14531620  1
  O  O64  1  0.64701651  0.11953945  0.13155911  1
  O  O65  1  0.48449480  0.36818530  0.13732700  1
  O  O66  1  0.45657951  0.32832688  0.02924921  1
  O  O67  1  0.86987047  0.55340965  0.03678524  1
  O  O68  1  0.67219431  0.10950831  0.02757232  1
  O  O69  1  0.43731500  0.10950831  0.52757232  1
  O  O70  1  0.68354017  0.55340965  0.53678524  1
  O  O71  1  0.87174836  0.32832688  0.52924921  1
  O  O72  1  0.55035750  0.70151930  0.97066100  1
  O  O73  1  0.13918994  0.45287345  0.96489311  1
  O  O74  1  0.30834604  0.86372578  0.97865020  1
  O  O75  1  0.55537874  0.86372578  0.47865020  1
  O  O76  1  0.31368251  0.45287345  0.46489311  1
  O  O77  1  0.15116080  0.70151930  0.47066100  1
  O  O78  1  0.12324551  0.66166088  0.36258321  1
  O  O79  1  0.53653647  0.88674365  0.37011924  1
  O  O80  1  0.33886031  0.44284231  0.36090632  1
  O  O81  1  0.10398100  0.44284231  0.86090632  1
  O  O82  1  0.35020617  0.88674365  0.87011924  1
  O  O83  1  0.53841436  0.66166088  0.86258321  1
  O  O84  1  0.03404040  0.84627953  0.41110569  1
  O  O85  1  0.81800891  0.99004185  0.41605011  1
  O  O86  1  0.15852942  0.19383860  0.41852510  1
  O  O87  1  0.03530918  0.19383860  0.91852510  1
  O  O88  1  0.17203295  0.99004185  0.91605011  1
  O  O89  1  0.81223913  0.84627953  0.91110569  1
  O  O90  1  0.99015102  0.19512701  0.58724875  1
  O  O91  1  0.19712785  0.98371847  0.58749243  1
  O  O92  1  0.81599480  0.80907688  0.58957838  1
  O  O93  1  0.99308209  0.80907688  0.08957838  1
  O  O94  1  0.78659062  0.98371847  0.08749243  1
  O  O95  1  0.20497599  0.19512701  0.08724875  1
  O  O96  1  0.70070740  0.17961253  0.74443869  1
  O  O97  1  0.48467591  0.32337485  0.74938311  1
  O  O98  1  0.82519642  0.52717160  0.75185810  1
  O  O99  1  0.70197618  0.52717160  0.25185810  1
  O  O100  1  0.83869995  0.32337485  0.24938311  1
  O  O101  1  0.47890613  0.17961253  0.24443869  1
  O  O102  1  0.65681802  0.52846001  0.92058175  1
  O  O103  1  0.86379485  0.31705147  0.92082543  1
  O  O104  1  0.48266180  0.14240988  0.92291138  1
  O  O105  1  0.65974909  0.14240988  0.42291138  1
  O  O106  1  0.45325762  0.31705147  0.42082543  1
  O  O107  1  0.87164299  0.52846001  0.42058175  1
  O  O108  1  0.36737340  0.51294653  0.07777269  1
  O  O109  1  0.15134191  0.65670885  0.08271711  1
  O  O110  1  0.49186242  0.86050560  0.08519210  1
  O  O111  1  0.36864218  0.86050560  0.58519210  1
  O  O112  1  0.50536595  0.65670885  0.58271711  1
  O  O113  1  0.14557213  0.51294653  0.57777269  1
  O  O114  1  0.32348402  0.86179401  0.25391575  1
  O  O115  1  0.53046085  0.65038547  0.25415943  1
  O  O116  1  0.14932780  0.47574388  0.25624538  1
  O  O117  1  0.32641509  0.47574388  0.75624538  1
  O  O118  1  0.11992362  0.65038547  0.75415943  1
  O  O119  1  0.53830899  0.86179401  0.75391575  1
