# generated using pymatgen
data_Na3ZrScSi(PO6)2
_symmetry_space_group_name_H-M   'P 1'
_cell_length_a   9.09374104
_cell_length_b   9.09374072
_cell_length_c   22.82746801
_cell_angle_alpha   90.01033531
_cell_angle_beta   89.98966470
_cell_angle_gamma   120.11798494
_symmetry_Int_Tables_number   1
_chemical_formula_structural   Na3ZrScSi(PO6)2
_chemical_formula_sum   'Na18 Zr6 Sc6 Si6 P12 O72'
_cell_volume   1632.88634060
_cell_formula_units_Z   6
loop_
 _symmetry_equiv_pos_site_id
 _symmetry_equiv_pos_as_xyz
  1  'x, y, z'
loop_
 _atom_site_type_symbol
 _atom_site_label
 _atom_site_symmetry_multiplicity
 _atom_site_fract_x
 _atom_site_fract_y
 _atom_site_fract_z
 _atom_site_occupancy
  Na  Na0  1  0.00360180  0.99490603  0.49655402  1
  Na  Na1  1  0.00509397  0.99639820  0.99655402  1
  Na  Na2  1  0.66598030  0.32530106  0.83010140  1
  Na  Na3  1  0.67469894  0.33401970  0.33010140  1
  Na  Na4  1  0.34614888  0.67231177  0.16309134  1
  Na  Na5  1  0.32768823  0.65385112  0.66309134  1
  Na  Na6  1  0.36265798  0.36147831  0.24743265  1
  Na  Na7  1  0.99277459  0.62680571  0.24815087  1
  Na  Na8  1  0.63852169  0.63734202  0.74743265  1
  Na  Na9  1  0.37319429  0.00722541  0.74815087  1
  Na  Na10  1  0.03899360  0.70053169  0.58045604  1
  Na  Na11  1  0.65466762  0.96381385  0.58430344  1
  Na  Na12  1  0.29946831  0.96100640  0.08045604  1
  Na  Na13  1  0.03618615  0.34533238  0.08430344  1
  Na  Na14  1  0.97420656  0.67443673  0.91826005  1
  Na  Na15  1  0.69832366  0.02833896  0.91248968  1
  Na  Na16  1  0.97166104  0.30167634  0.41248968  1
  Na  Na17  1  0.32556327  0.02579344  0.41826005  1
  Zr  Zr18  1  0.00554272  0.00806003  0.64858106  1
  Zr  Zr19  1  0.99193997  0.99445728  0.14858106  1
  Zr  Zr20  1  0.66037430  0.33703123  0.98189059  1
  Zr  Zr21  1  0.66296877  0.33962570  0.48189059  1
  Zr  Zr22  1  0.33094607  0.66687259  0.31524741  1
  Zr  Zr23  1  0.33312741  0.66905393  0.81524741  1
  Sc  Sc24  1  0.99093417  0.99424394  0.35112393  1
  Sc  Sc25  1  0.00575606  0.00906583  0.85112393  1
  Sc  Sc26  1  0.66853478  0.32372647  0.68445009  1
  Sc  Sc27  1  0.67627353  0.33146522  0.18445009  1
  Sc  Sc28  1  0.33243445  0.66857741  0.01726000  1
  Sc  Sc29  1  0.33142259  0.66756555  0.51726000  1
  Si  Si30  1  0.99744376  0.29337162  0.25168476  1
  Si  Si31  1  0.70662838  0.00255624  0.75168476  1
  Si  Si32  1  0.36968392  0.03496695  0.58352577  1
  Si  Si33  1  0.96503305  0.63031608  0.08352577  1
  Si  Si34  1  0.33073218  0.96302178  0.91786380  1
  Si  Si35  1  0.03697822  0.66926782  0.41786380  1
  P  P36  1  0.29331997  0.00248263  0.25095847  1
  P  P37  1  0.70427452  0.70339229  0.25074606  1
  P  P38  1  0.29660771  0.29572548  0.75074606  1
  P  P39  1  0.99751737  0.70668003  0.75095847  1
  P  P40  1  0.95942569  0.33461063  0.58241756  1
  P  P41  1  0.66521835  0.62761832  0.58678413  1
  P  P42  1  0.66538937  0.04057431  0.08241756  1
  P  P43  1  0.37238168  0.33478165  0.08678413  1
  P  P44  1  0.62632829  0.66735534  0.91607383  1
  P  P45  1  0.03918700  0.37147135  0.91923224  1
  P  P46  1  0.62852865  0.96081300  0.41923224  1
  P  P47  1  0.33264466  0.37367171  0.41607383  1
  O  O48  1  0.20817858  0.02537695  0.30545196  1
  O  O49  1  0.82002729  0.78748281  0.30334745  1
  O  O50  1  0.98093432  0.18416931  0.30963512  1
  O  O51  1  0.21251719  0.17997271  0.80334745  1
  O  O52  1  0.97462305  0.79182142  0.80545196  1
  O  O53  1  0.81583069  0.01906568  0.80963512  1
  O  O54  1  0.79400589  0.97016078  0.69316385  1
  O  O55  1  0.18538376  0.20863052  0.69585645  1
  O  O56  1  0.03075184  0.82155682  0.69595092  1
  O  O57  1  0.79136948  0.81461624  0.19585645  1
  O  O58  1  0.02983922  0.20599411  0.19316385  1
  O  O59  1  0.17844318  0.96924816  0.19595092  1
  O  O60  1  0.87369519  0.36409423  0.63529479  1
  O  O61  1  0.48819821  0.12561063  0.64061375  1
  O  O62  1  0.64669542  0.52520511  0.64204817  1
  O  O63  1  0.87438937  0.51180179  0.14061375  1
  O  O64  1  0.63590577  0.12630481  0.13529479  1
  O  O65  1  0.47479489  0.35330458  0.14204817  1
  O  O66  1  0.46039805  0.30343816  0.03300761  1
  O  O67  1  0.84960337  0.53934955  0.02474286  1
  O  O68  1  0.69494679  0.15152601  0.02686088  1
  O  O69  1  0.46065045  0.15039663  0.52474286  1
  O  O70  1  0.69656184  0.53960195  0.53300761  1
  O  O71  1  0.84847399  0.30505321  0.52686088  1
  O  O72  1  0.53654305  0.69117880  0.96829693  1
  O  O73  1  0.14228479  0.45249380  0.97470800  1
  O  O74  1  0.30463329  0.84545403  0.97514547  1
  O  O75  1  0.54750620  0.85771521  0.47470800  1
  O  O76  1  0.30882120  0.46345695  0.46829693  1
  O  O77  1  0.15454597  0.69536671  0.47514547  1
  O  O78  1  0.12844268  0.63793738  0.35977106  1
  O  O79  1  0.51232064  0.87096967  0.36576660  1
  O  O80  1  0.35971253  0.47968152  0.35964107  1
  O  O81  1  0.12903033  0.48767936  0.86576660  1
  O  O82  1  0.36206262  0.87155732  0.85977106  1
  O  O83  1  0.52031848  0.64028747  0.85964107  1
  O  O84  1  0.03091098  0.84346335  0.41136023  1
  O  O85  1  0.80978263  0.99161372  0.41284042  1
  O  O86  1  0.17324097  0.19536957  0.41132114  1
  O  O87  1  0.00838628  0.19021737  0.91284042  1
  O  O88  1  0.15653665  0.96908902  0.91136023  1
  O  O89  1  0.80463043  0.82675903  0.91132114  1
  O  O90  1  0.96579978  0.16790348  0.58885800  1
  O  O91  1  0.17579330  0.00483799  0.58753323  1
  O  O92  1  0.83056758  0.80622436  0.58924092  1
  O  O93  1  0.99516201  0.82420670  0.08753323  1
  O  O94  1  0.83209652  0.03420022  0.08885800  1
  O  O95  1  0.19377564  0.16943242  0.08924092  1
  O  O96  1  0.67244036  0.16172821  0.74723540  1
  O  O97  1  0.47569097  0.31811995  0.74423959  1
  O  O98  1  0.83519256  0.53440741  0.74365971  1
  O  O99  1  0.68188005  0.52430903  0.24423959  1
  O  O100  1  0.83827179  0.32755964  0.24723540  1
  O  O101  1  0.46559259  0.16480744  0.24365971  1
  O  O102  1  0.65138673  0.51061307  0.92108719  1
  O  O103  1  0.86137678  0.35957947  0.92231830  1
  O  O104  1  0.51042479  0.14507418  0.92162537  1
  O  O105  1  0.64042053  0.13862322  0.42231830  1
  O  O106  1  0.48938693  0.34861327  0.42108719  1
  O  O107  1  0.85492582  0.48957521  0.42162537  1
  O  O108  1  0.34594241  0.48605430  0.07837435  1
  O  O109  1  0.15291903  0.64621691  0.07950846  1
  O  O110  1  0.50777571  0.86439701  0.07671707  1
  O  O111  1  0.35378309  0.84708097  0.57950846  1
  O  O112  1  0.51394570  0.65405759  0.57837435  1
  O  O113  1  0.13560299  0.49222429  0.57671707  1
  O  O114  1  0.30735662  0.83959596  0.25589623  1
  O  O115  1  0.52627526  0.68375829  0.25566043  1
  O  O116  1  0.17539268  0.48346001  0.25454186  1
  O  O117  1  0.31624171  0.47372474  0.75566043  1
  O  O118  1  0.16040404  0.69264338  0.75589623  1
  O  O119  1  0.51653999  0.82460732  0.75454186  1
