# generated using pymatgen
data_MgCo2NiO6
_symmetry_space_group_name_H-M   'P 1'
_cell_length_a   6.45201784
_cell_length_b   2.88298815
_cell_length_c   5.98527552
_cell_angle_alpha   89.99883791
_cell_angle_beta   103.47559980
_cell_angle_gamma   76.48040305
_symmetry_Int_Tables_number   1
_chemical_formula_structural   MgCo2NiO6
_chemical_formula_sum   'Mg1 Co2 Ni1 O6'
_cell_volume   105.09248883
_cell_formula_units_Z   1
loop_
 _symmetry_equiv_pos_site_id
 _symmetry_equiv_pos_as_xyz
  1  'x, y, z'
loop_
 _atom_site_type_symbol
 _atom_site_label
 _atom_site_symmetry_multiplicity
 _atom_site_fract_x
 _atom_site_fract_y
 _atom_site_fract_z
 _atom_site_occupancy
  Mg  Mg0  1  0.34865100  0.32242300  0.85599800  1
  Co  Co1  1  0.00162800  0.99293700  0.03167000  1
  Co  Co2  1  0.69614800  0.65753700  0.68175800  1
  Ni  Ni3  1  0.35002300  0.32454100  0.35661000  1
  O  O4  1  0.01605300  0.49967600  0.23000800  1
  O  O5  1  0.38466600  0.79962800  0.61797300  1
  O  O6  1  0.69518300  0.15577700  0.89836600  1
  O  O7  1  0.31351100  0.84438900  0.09438500  1
  O  O8  1  0.68282900  0.14268600  0.48353300  1
  O  O9  1  0.00244000  0.49409600  0.81424400  1
