# generated using pymatgen
data_Ba2DyMgSbO6
_symmetry_space_group_name_H-M   'P 1'
_cell_length_a   7.45453770
_cell_length_b   7.45166016
_cell_length_c   7.45165985
_cell_angle_alpha   49.51951348
_cell_angle_beta   49.50589210
_cell_angle_gamma   49.50589336
_symmetry_Int_Tables_number   1
_chemical_formula_structural   Ba2DyMgSbO6
_chemical_formula_sum   'Ba2 Dy1 Mg1 Sb1 O6'
_cell_volume   220.08182194
_cell_formula_units_Z   1
loop_
 _symmetry_equiv_pos_site_id
 _symmetry_equiv_pos_as_xyz
  1  'x, y, z'
loop_
 _atom_site_type_symbol
 _atom_site_label
 _atom_site_symmetry_multiplicity
 _atom_site_fract_x
 _atom_site_fract_y
 _atom_site_fract_z
 _atom_site_occupancy
  Ba  Ba0  1  0.82751988  0.82646080  0.82646080  1
  Ba  Ba1  1  0.27943542  0.27802764  0.27802764  1
  Dy  Dy2  1  0.00421028  0.00377853  0.00377853  1
  Mg  Mg3  1  0.59762703  0.59657847  0.59657847  1
  Sb  Sb4  1  0.44969791  0.44960463  0.44960463  1
  O  O5  1  0.24129764  0.76944084  0.76944084  1
  O  O6  1  0.24259861  0.70949866  0.24396305  1
  O  O7  1  0.77014998  0.24015435  0.76944343  1
  O  O8  1  0.24259861  0.24396305  0.70949866  1
  O  O9  1  0.70752666  0.24325760  0.24325760  1
  O  O10  1  0.77014998  0.76944343  0.24015435  1
