# generated using pymatgen
data_H5C56O
_symmetry_space_group_name_H-M   'P 1'
_cell_length_a   12.33824912
_cell_length_b   12.33840353
_cell_length_c   16.75716714
_cell_angle_alpha   90.69466139
_cell_angle_beta   88.95100788
_cell_angle_gamma   119.99963615
_symmetry_Int_Tables_number   1
_chemical_formula_structural   H5C56O
_chemical_formula_sum   'H5 C56 O1'
_cell_volume   2208.86911995
_cell_formula_units_Z   1
loop_
 _symmetry_equiv_pos_site_id
 _symmetry_equiv_pos_as_xyz
  1  'x, y, z'
loop_
 _atom_site_type_symbol
 _atom_site_label
 _atom_site_symmetry_multiplicity
 _atom_site_fract_x
 _atom_site_fract_y
 _atom_site_fract_z
 _atom_site_occupancy
  H  H0  1  0.50416900  0.50072300  0.34666500  1
  H  H1  1  0.68650000  0.51908000  0.41898400  1
  H  H2  1  0.31869600  0.48129500  0.42008000  1
  H  H3  1  0.68418400  0.51819300  0.56892100  1
  H  H4  1  0.31483200  0.48026300  0.57005100  1
  C  C5  1  0.02510400  0.01882500  0.20043900  1
  C  C6  1  0.22513300  0.01882600  0.20036800  1
  C  C7  1  0.42514100  0.01884100  0.20047800  1
  C  C8  1  0.62512200  0.01884500  0.20042000  1
  C  C9  1  0.82509500  0.01883300  0.20033400  1
  C  C10  1  0.09177100  0.15216200  0.20023800  1
  C  C11  1  0.29178400  0.15215900  0.19992300  1
  C  C12  1  0.49178600  0.15215400  0.20024500  1
  C  C13  1  0.69177500  0.15216600  0.20053200  1
  C  C14  1  0.89176800  0.15216200  0.20043400  1
  C  C15  1  0.02508200  0.21880900  0.20028000  1
  C  C16  1  0.22510900  0.21880400  0.19979100  1
  C  C17  1  0.42511700  0.21879300  0.19971200  1
  C  C18  1  0.62511000  0.21880800  0.20034200  1
  C  C19  1  0.82508900  0.21881600  0.20050600  1
  C  C20  1  0.09175900  0.35214600  0.20017300  1
  C  C21  1  0.29175700  0.35212700  0.19915600  1
  C  C22  1  0.49178300  0.35211600  0.19898900  1
  C  C23  1  0.69177800  0.35213400  0.20014800  1
  C  C24  1  0.89176200  0.35214300  0.20055000  1
  C  C25  1  0.02508300  0.41881300  0.20044800  1
  C  C26  1  0.22509700  0.41880600  0.19961600  1
  C  C27  1  0.42511600  0.41876600  0.19834500  1
  C  C28  1  0.62512900  0.41879800  0.19940700  1
  C  C29  1  0.82509300  0.41880200  0.20043400  1
  C  C30  1  0.09178800  0.55215900  0.20048300  1
  C  C31  1  0.29178800  0.55215900  0.19955700  1
  C  C32  1  0.49179100  0.55217100  0.19818600  1
  C  C33  1  0.69181300  0.55216200  0.19931500  1
  C  C34  1  0.89178700  0.55214700  0.20045200  1
  C  C35  1  0.02511500  0.61882500  0.20059600  1
  C  C36  1  0.22512500  0.61885300  0.20019200  1
  C  C37  1  0.42513100  0.61886900  0.19898000  1
  C  C38  1  0.62516800  0.61886200  0.19871400  1
  C  C39  1  0.82514400  0.61882900  0.20007600  1
  C  C40  1  0.09178800  0.75216500  0.20057400  1
  C  C41  1  0.29180600  0.75217800  0.20032200  1
  C  C42  1  0.49180000  0.75218300  0.19958800  1
  C  C43  1  0.69179900  0.75218900  0.19945500  1
  C  C44  1  0.89178700  0.75217800  0.20023900  1
  C  C45  1  0.02512000  0.81884100  0.20052100  1
  C  C46  1  0.22513500  0.81884800  0.20053200  1
  C  C47  1  0.42514100  0.81886700  0.20018100  1
  C  C48  1  0.62512700  0.81885100  0.19969700  1
  C  C49  1  0.82511700  0.81883700  0.20006000  1
  C  C50  1  0.09178800  0.95216900  0.20048600  1
  C  C51  1  0.29180800  0.95217400  0.20048400  1
  C  C52  1  0.49179400  0.95217400  0.20044300  1
  C  C53  1  0.69178200  0.95217100  0.20019700  1
  C  C54  1  0.89177700  0.95217300  0.20035200  1
  C  C55  1  0.50280000  0.50026100  0.41163500  1
  C  C56  1  0.60625500  0.51069900  0.45287700  1
  C  C57  1  0.39754900  0.48930500  0.45347000  1
  C  C58  1  0.60583600  0.51034200  0.53514500  1
  C  C59  1  0.39462900  0.48869400  0.53575000  1
  C  C60  1  0.49929100  0.49926800  0.58067500  1
  O  O61  1  0.49761300  0.49879100  0.65622800  1
