# generated using pymatgen
data_Bi2TeO6
_symmetry_space_group_name_H-M   'P 1'
_cell_length_a   5.38314552
_cell_length_b   5.37220700
_cell_length_c   8.73045611
_cell_angle_alpha   107.91889679
_cell_angle_beta   90.00000000
_cell_angle_gamma   90.00000000
_symmetry_Int_Tables_number   1
_chemical_formula_structural   Bi2TeO6
_chemical_formula_sum   'Bi4 Te2 O12'
_cell_volume   240.23229015
_cell_formula_units_Z   2
loop_
 _symmetry_equiv_pos_site_id
 _symmetry_equiv_pos_as_xyz
  1  'x, y, z'
loop_
 _atom_site_type_symbol
 _atom_site_label
 _atom_site_symmetry_multiplicity
 _atom_site_fract_x
 _atom_site_fract_y
 _atom_site_fract_z
 _atom_site_occupancy
  Bi  Bi0  1  0.01139062  0.32742506  0.65485012  1
  Bi  Bi1  1  0.51139062  0.17257494  0.34514988  1
  Bi  Bi2  1  0.98860938  0.67257494  0.34514988  1
  Bi  Bi3  1  0.48860938  0.82742506  0.65485012  1
  Te  Te4  1  0.50000000  0.50000000  -0.00000000  1
  Te  Te5  1  -0.00000000  -0.00000000  -0.00000000  1
  O  O6  1  0.42226476  0.39041428  0.78083057  1
  O  O7  1  0.92226476  0.10958572  0.21916943  1
  O  O8  1  0.57773524  0.60958572  0.21916943  1
  O  O9  1  0.07773524  0.89041428  0.78083057  1
  O  O10  1  0.25000000  0.27814906  0.05629811  1
  O  O11  1  0.75000000  0.22185094  0.94370189  1
  O  O12  1  0.75000000  0.99893863  0.49787825  1
  O  O13  1  0.25000000  0.50106137  0.50212175  1
  O  O14  1  0.25000000  0.00106137  0.50212175  1
  O  O15  1  0.75000000  0.49893863  0.49787825  1
  O  O16  1  0.25000000  0.77814906  0.05629811  1
  O  O17  1  0.75000000  0.72185094  0.94370189  1
