# generated using pymatgen
data_Na9Ta2Zn4(PO4)9
_symmetry_space_group_name_H-M   'P 1'
_cell_length_a   15.62380468
_cell_length_b   26.93477265
_cell_length_c   8.90829936
_cell_angle_alpha   89.81158694
_cell_angle_beta   125.10050367
_cell_angle_gamma   89.99979948
_symmetry_Int_Tables_number   1
_chemical_formula_structural   Na9Ta2Zn4(PO4)9
_chemical_formula_sum   'Na36 Ta8 Zn16 P36 O144'
_cell_volume   3067.05460035
_cell_formula_units_Z   4
loop_
 _symmetry_equiv_pos_site_id
 _symmetry_equiv_pos_as_xyz
  1  'x, y, z'
loop_
 _atom_site_type_symbol
 _atom_site_label
 _atom_site_symmetry_multiplicity
 _atom_site_fract_x
 _atom_site_fract_y
 _atom_site_fract_z
 _atom_site_occupancy
  Na  Na0  1  0.26104743  0.24915976  0.03150778  1
  Na  Na1  1  0.24748076  0.58231119  0.00028574  1
  Na  Na2  1  0.25075638  0.91762645  0.00468224  1
  Na  Na3  1  0.75636730  0.25116408  0.52065395  1
  Na  Na4  1  0.76350405  0.58836488  0.53483002  1
  Na  Na5  1  0.75529085  0.91057196  0.52689711  1
  Na  Na6  1  0.74748076  0.08231119  0.00028574  1
  Na  Na7  1  0.75075638  0.41762645  0.00468224  1
  Na  Na8  1  0.76104743  0.74915976  0.03150778  1
  Na  Na9  1  0.26350405  0.08836488  0.53483002  1
  Na  Na10  1  0.25529085  0.41057196  0.52689711  1
  Na  Na11  1  0.25636730  0.75116408  0.52065395  1
  Na  Na12  1  0.49458474  0.03794449  0.73841868  1
  Na  Na13  1  0.49549079  0.37270035  0.73776742  1
  Na  Na14  1  0.49557167  0.69991189  0.75523049  1
  Na  Na15  1  0.50031823  0.30238341  0.26980097  1
  Na  Na16  1  0.49185583  0.63206908  0.24979580  1
  Na  Na17  1  0.49778600  0.97033006  0.26531586  1
  Na  Na18  1  0.99557167  0.19991189  0.75523049  1
  Na  Na19  1  0.99458474  0.53794449  0.73841868  1
  Na  Na20  1  0.99549079  0.87270035  0.73776742  1
  Na  Na21  1  0.99185583  0.13206908  0.24979580  1
  Na  Na22  1  0.99778600  0.47033006  0.26531586  1
  Na  Na23  1  0.00031823  0.80238341  0.26980097  1
  Na  Na24  1  0.82341428  0.97536566  0.21160498  1
  Na  Na25  1  0.18600362  0.63637125  0.30154695  1
  Na  Na26  1  0.19375656  0.97120241  0.30621790  1
  Na  Na27  1  0.18478709  0.68976318  0.76428783  1
  Na  Na28  1  0.80692992  0.02172939  0.70856786  1
  Na  Na29  1  0.80721888  0.35763806  0.70225688  1
  Na  Na30  1  0.32341428  0.47536566  0.21160498  1
  Na  Na31  1  0.68600362  0.13637125  0.30154695  1
  Na  Na32  1  0.69375656  0.47120241  0.30621790  1
  Na  Na33  1  0.68478709  0.18976318  0.76428783  1
  Na  Na34  1  0.30692992  0.52172939  0.70856786  1
  Na  Na35  1  0.30721888  0.85763806  0.70225688  1
  Ta  Ta36  1  0.10820565  0.25159750  0.56224274  1
  Ta  Ta37  1  0.10632689  0.08419927  0.05891948  1
  Ta  Ta38  1  0.10542998  0.41309598  0.05952684  1
  Ta  Ta39  1  0.10274925  0.74927565  0.06026539  1
  Ta  Ta40  1  0.60820565  0.75159750  0.56224274  1
  Ta  Ta41  1  0.60274925  0.24927565  0.06026539  1
  Ta  Ta42  1  0.60632689  0.58419927  0.05891948  1
  Ta  Ta43  1  0.60542998  0.91309598  0.05952684  1
  Zn  Zn44  1  0.08966288  0.58569788  0.55106194  1
  Zn  Zn45  1  0.10004289  0.92076405  0.56138276  1
  Zn  Zn46  1  0.90155344  0.25163478  0.95484713  1
  Zn  Zn47  1  0.89869191  0.58480320  0.95252361  1
  Zn  Zn48  1  0.89991187  0.91619054  0.95283396  1
  Zn  Zn49  1  0.90191767  0.08145418  0.44936565  1
  Zn  Zn50  1  0.90020948  0.41617513  0.44369703  1
  Zn  Zn51  1  0.89795449  0.74791640  0.44479744  1
  Zn  Zn52  1  0.58966288  0.08569788  0.55106194  1
  Zn  Zn53  1  0.60004289  0.42076405  0.56138276  1
  Zn  Zn54  1  0.39869191  0.08480320  0.95252361  1
  Zn  Zn55  1  0.39991187  0.41619054  0.95283396  1
  Zn  Zn56  1  0.40155344  0.75163478  0.95484713  1
  Zn  Zn57  1  0.39795449  0.24791640  0.44479744  1
  Zn  Zn58  1  0.40191767  0.58145418  0.44936565  1
  Zn  Zn59  1  0.40020948  0.91617513  0.44369703  1
  P  P60  1  0.99826410  0.31811981  0.73902387  1
  P  P61  1  0.99804070  0.65069313  0.74690116  1
  P  P62  1  0.99976128  0.98442987  0.74568886  1
  P  P63  1  0.00007533  0.01648718  0.24428423  1
  P  P64  1  0.99647977  0.34876054  0.23860600  1
  P  P65  1  -0.00029116  0.68233533  0.25243800  1
  P  P66  1  0.49804070  0.15069313  0.74690116  1
  P  P67  1  0.49976128  0.48442987  0.74568886  1
  P  P68  1  0.49826410  0.81811981  0.73902387  1
  P  P69  1  0.49970884  0.18233533  0.25243800  1
  P  P70  1  0.50007533  0.51648718  0.24428423  1
  P  P71  1  0.49647977  0.84876054  0.23860600  1
  P  P72  1  0.35297846  0.29777262  0.74429312  1
  P  P73  1  0.35031361  0.63272141  0.75028190  1
  P  P74  1  0.35156343  0.96535187  0.75121447  1
  P  P75  1  0.64605874  0.30019320  0.74068552  1
  P  P76  1  0.64459829  0.63289942  0.73507965  1
  P  P77  1  0.64705887  0.96565808  0.74075750  1
  P  P78  1  0.64840670  0.03172788  0.24257376  1
  P  P79  1  0.64648343  0.36702861  0.24217642  1
  P  P80  1  0.64447067  0.70123987  0.23802842  1
  P  P81  1  0.35133758  0.03484376  0.25295580  1
  P  P82  1  0.35270862  0.36713537  0.25629565  1
  P  P83  1  0.35003250  0.70248797  0.24937132  1
  P  P84  1  0.85031361  0.13272141  0.75028190  1
  P  P85  1  0.85156343  0.46535187  0.75121447  1
  P  P86  1  0.85297846  0.79777262  0.74429312  1
  P  P87  1  0.14459829  0.13289942  0.73507965  1
  P  P88  1  0.14705887  0.46565808  0.74075750  1
  P  P89  1  0.14605874  0.80019320  0.74068552  1
  P  P90  1  0.14447067  0.20123987  0.23802842  1
  P  P91  1  0.14840670  0.53172788  0.24257376  1
  P  P92  1  0.14648343  0.86702861  0.24217642  1
  P  P93  1  0.85003250  0.20248797  0.24937132  1
  P  P94  1  0.85133758  0.53484376  0.25295580  1
  P  P95  1  0.85270862  0.86713537  0.25629565  1
  O  O96  1  0.14751144  0.19258935  0.73676146  1
  O  O97  1  0.15534919  0.52281872  0.76255105  1
  O  O98  1  0.15593796  0.85674234  0.76150756  1
  O  O99  1  0.84280288  0.18959255  0.75604892  1
  O  O100  1  0.85170118  0.52173609  0.76450176  1
  O  O101  1  0.84643553  0.85343507  0.76228054  1
  O  O102  1  0.84211590  0.14626735  0.26630568  1
  O  O103  1  0.83384844  0.47852621  0.25538828  1
  O  O104  1  0.84331247  0.81073531  0.25479332  1
  O  O105  1  0.14963536  0.14217384  0.24497013  1
  O  O106  1  0.15508323  0.47220721  0.23147470  1
  O  O107  1  0.15055456  0.80766009  0.22755829  1
  O  O108  1  0.65534919  0.02281872  0.76255105  1
  O  O109  1  0.65593796  0.35674234  0.76150756  1
  O  O110  1  0.64751144  0.69258935  0.73676146  1
  O  O111  1  0.35170118  0.02173609  0.76450176  1
  O  O112  1  0.34643553  0.35343507  0.76228054  1
  O  O113  1  0.34280288  0.68959255  0.75604892  1
  O  O114  1  0.34331247  0.31073531  0.25479332  1
  O  O115  1  0.34211590  0.64626735  0.26630568  1
  O  O116  1  0.33384844  0.97852621  0.25538828  1
  O  O117  1  0.65055456  0.30766009  0.22755829  1
  O  O118  1  0.64963536  0.64217384  0.24497013  1
  O  O119  1  0.65508323  0.97220721  0.23147470  1
  O  O120  1  0.44064205  0.18319500  0.57849903  1
  O  O121  1  0.43377510  0.51566722  0.57202487  1
  O  O122  1  0.43419634  0.85109603  0.57431563  1
  O  O123  1  0.56024713  0.18740556  0.92410315  1
  O  O124  1  0.55856266  0.52385191  0.91488123  1
  O  O125  1  0.56522637  0.85096537  0.91693485  1
  O  O126  1  0.57730086  0.15335708  0.43264331  1
  O  O127  1  0.57401304  0.48453618  0.41353825  1
  O  O128  1  0.56141863  0.81131982  0.40990016  1
  O  O129  1  0.44187204  0.14985347  0.08483298  1
  O  O130  1  0.43193283  0.48618503  0.06958737  1
  O  O131  1  0.43382019  0.81899723  0.06409325  1
  O  O132  1  0.93377510  0.01566722  0.57202487  1
  O  O133  1  0.93419634  0.35109603  0.57431563  1
  O  O134  1  0.94064205  0.68319500  0.57849903  1
  O  O135  1  0.05856266  0.02385191  0.91488123  1
  O  O136  1  0.06522637  0.35096537  0.91693485  1
  O  O137  1  0.06024713  0.68740556  0.92410315  1
  O  O138  1  0.06141863  0.31131982  0.40990016  1
  O  O139  1  0.07730086  0.65335708  0.43264331  1
  O  O140  1  0.07401304  0.98453618  0.41353825  1
  O  O141  1  0.93382019  0.31899723  0.06409325  1
  O  O142  1  0.94187204  0.64985347  0.08483298  1
  O  O143  1  0.93193283  0.98618503  0.06958737  1
  O  O144  1  0.25657988  0.27195979  0.73184728  1
  O  O145  1  0.27031136  0.60649577  0.76995323  1
  O  O146  1  0.27166920  0.93760247  0.76726535  1
  O  O147  1  0.74110486  0.27642237  0.75786054  1
  O  O148  1  0.73976574  0.61144612  0.75709622  1
  O  O149  1  0.74185942  0.94458804  0.75387993  1
  O  O150  1  0.74269615  0.05235334  0.24892392  1
  O  O151  1  0.73903536  0.38971669  0.25200509  1
  O  O152  1  0.73876158  0.72280256  0.25806595  1
  O  O153  1  0.24952890  0.05949288  0.22797021  1
  O  O154  1  0.25112671  0.39042366  0.23391518  1
  O  O155  1  0.25754055  0.72653427  0.24749289  1
  O  O156  1  0.77031136  0.10649577  0.76995323  1
  O  O157  1  0.77166920  0.43760247  0.76726535  1
  O  O158  1  0.75657988  0.77195979  0.73184728  1
  O  O159  1  0.23976574  0.11144612  0.75709622  1
  O  O160  1  0.24185942  0.44458804  0.75387993  1
  O  O161  1  0.24110486  0.77642237  0.75786054  1
  O  O162  1  0.23876158  0.22280256  0.25806595  1
  O  O163  1  0.24269615  0.55235334  0.24892392  1
  O  O164  1  0.23903536  0.88971669  0.25200509  1
  O  O165  1  0.75754055  0.22653427  0.24749289  1
  O  O166  1  0.74952890  0.55949288  0.22797021  1
  O  O167  1  0.75112671  0.89042366  0.23391518  1
  O  O168  1  0.35105778  0.28495184  0.57889023  1
  O  O169  1  0.34285507  0.61861285  0.57678263  1
  O  O170  1  0.34447496  0.95081815  0.57846108  1
  O  O171  1  0.63954183  0.27952571  0.90535760  1
  O  O172  1  0.63897507  0.62054289  0.90488220  1
  O  O173  1  0.64675655  0.94608386  0.91358103  1
  O  O174  1  0.65368383  0.04103492  0.41880884  1
  O  O175  1  0.64898841  0.37431266  0.41715762  1
  O  O176  1  0.63653762  0.71469161  0.40593174  1
  O  O177  1  0.35459146  0.04699603  0.09086942  1
  O  O178  1  0.35069599  0.38460995  0.09204288  1
  O  O179  1  0.34208424  0.71368294  0.07415312  1
  O  O180  1  0.84285507  0.11861285  0.57678263  1
  O  O181  1  0.84447496  0.45081815  0.57846108  1
  O  O182  1  0.85105778  0.78495184  0.57889023  1
  O  O183  1  0.13897507  0.12054289  0.90488220  1
  O  O184  1  0.14675655  0.44608386  0.91358103  1
  O  O185  1  0.13954183  0.77952571  0.90535760  1
  O  O186  1  0.13653762  0.21469161  0.40593174  1
  O  O187  1  0.15368383  0.54103492  0.41880884  1
  O  O188  1  0.14898841  0.87431266  0.41715762  1
  O  O189  1  0.84208424  0.21368294  0.07415312  1
  O  O190  1  0.85459146  0.54699603  0.09086942  1
  O  O191  1  0.85069599  0.88460995  0.09204288  1
  O  O192  1  0.45655819  0.27610880  0.92525291  1
  O  O193  1  0.46385698  0.61492654  0.91992984  1
  O  O194  1  0.46530914  0.94307095  0.92010759  1
  O  O195  1  0.54626390  0.28252867  0.56459280  1
  O  O196  1  0.54126665  0.61839568  0.55988094  1
  O  O197  1  0.54434695  0.94983628  0.56581172  1
  O  O198  1  0.54711149  0.05035614  0.07085541  1
  O  O199  1  0.54397942  0.38453621  0.06760689  1
  O  O200  1  0.54101995  0.71616032  0.06200975  1
  O  O201  1  0.44538672  0.05442294  0.43757154  1
  O  O202  1  0.44492390  0.39009454  0.43683037  1
  O  O203  1  0.45699832  0.72402164  0.42052250  1
  O  O204  1  0.96385698  0.11492654  0.91992984  1
  O  O205  1  0.96530914  0.44307095  0.92010759  1
  O  O206  1  0.95655819  0.77610880  0.92525291  1
  O  O207  1  0.04126665  0.11839568  0.55988094  1
  O  O208  1  0.04434695  0.44983628  0.56581172  1
  O  O209  1  0.04626390  0.78252867  0.56459280  1
  O  O210  1  0.04101995  0.21616032  0.06200975  1
  O  O211  1  0.04711149  0.55035614  0.07085541  1
  O  O212  1  0.04397942  0.88453621  0.06760689  1
  O  O213  1  0.95699832  0.22402164  0.42052250  1
  O  O214  1  0.94538672  0.55442294  0.43757154  1
  O  O215  1  0.94492390  0.89009454  0.43683037  1
  O  O216  1  0.08059796  0.28495227  0.73379474  1
  O  O217  1  0.08891772  0.62086751  0.76537862  1
  O  O218  1  0.08531906  0.95243725  0.76140645  1
  O  O219  1  0.92692651  0.28217684  0.75289259  1
  O  O220  1  0.92668253  0.61551393  0.76137578  1
  O  O221  1  0.92416313  0.95210251  0.76194394  1
  O  O222  1  0.92698412  0.05292804  0.25383036  1
  O  O223  1  0.93064843  0.38586400  0.25865688  1
  O  O224  1  0.92855476  0.72071341  0.25521201  1
  O  O225  1  0.07767753  0.05178243  0.22841483  1
  O  O226  1  0.08373874  0.37997237  0.24225736  1
  O  O227  1  0.08208832  0.71698429  0.23938617  1
  O  O228  1  0.58891772  0.12086751  0.76537862  1
  O  O229  1  0.58531906  0.45243725  0.76140645  1
  O  O230  1  0.58059796  0.78495227  0.73379474  1
  O  O231  1  0.42668253  0.11551393  0.76137578  1
  O  O232  1  0.42416313  0.45210251  0.76194394  1
  O  O233  1  0.42692651  0.78217684  0.75289259  1
  O  O234  1  0.42855476  0.22071341  0.25521201  1
  O  O235  1  0.42698412  0.55292804  0.25383036  1
  O  O236  1  0.43064843  0.88586400  0.25865688  1
  O  O237  1  0.58208832  0.21698429  0.23938617  1
  O  O238  1  0.57767753  0.55178243  0.22841483  1
  O  O239  1  0.58373874  0.87997237  0.24225736  1
