# generated using pymatgen
data_MgZn(FeO2)4
_symmetry_space_group_name_H-M   'P 1'
_cell_length_a   2.97095967
_cell_length_b   8.23218360
_cell_length_c   8.37007842
_cell_angle_alpha   65.99760625
_cell_angle_beta   79.66254167
_cell_angle_gamma   79.42405678
_symmetry_Int_Tables_number   1
_chemical_formula_structural   MgZn(FeO2)4
_chemical_formula_sum   'Mg1 Zn1 Fe4 O8'
_cell_volume   182.57674927
_cell_formula_units_Z   1
loop_
 _symmetry_equiv_pos_site_id
 _symmetry_equiv_pos_as_xyz
  1  'x, y, z'
loop_
 _atom_site_type_symbol
 _atom_site_label
 _atom_site_symmetry_multiplicity
 _atom_site_fract_x
 _atom_site_fract_y
 _atom_site_fract_z
 _atom_site_occupancy
  Mg  Mg0  1  0.01691831  0.57291453  0.39139659  1
  Zn  Zn1  1  0.27884650  0.17672457  0.27989843  1
  Fe  Fe2  1  0.61239479  0.16653443  0.61564295  1
  Fe  Fe3  1  0.18463679  0.53517657  0.09341921  1
  Fe  Fe4  1  0.87035907  0.44871229  0.80996868  1
  Fe  Fe5  1  0.28640795  0.83144292  0.59565906  1
  O  O6  1  0.87948237  0.67006456  0.56912409  1
  O  O7  1  0.46283690  0.32261058  0.75404902  1
  O  O8  1  0.58327038  0.62409643  0.20758048  1
  O  O9  1  0.12258641  0.31456034  0.44560852  1
  O  O10  1  0.14928257  -0.00635480  0.71700823  1
  O  O11  1  0.77925637  0.34533963  0.09425244  1
  O  O12  1  0.78964297  0.01120966  0.42609600  1
  O  O13  1  0.26656762  0.61501228  0.84760929  1
