# generated using pymatgen
data_Na21Ca10Nb2P15(SO24)3
_symmetry_space_group_name_H-M   'P 1'
_cell_length_a   9.41911429
_cell_length_b   9.37403326
_cell_length_c   22.68448376
_cell_angle_alpha   90.04442236
_cell_angle_beta   89.99973250
_cell_angle_gamma   119.99248399
_symmetry_Int_Tables_number   1
_chemical_formula_structural   Na21Ca10Nb2P15(SO24)3
_chemical_formula_sum   'Na21 Ca10 Nb2 P15 S3 O72'
_cell_volume   1734.71767012
_cell_formula_units_Z   1
loop_
 _symmetry_equiv_pos_site_id
 _symmetry_equiv_pos_as_xyz
  1  'x, y, z'
loop_
 _atom_site_type_symbol
 _atom_site_label
 _atom_site_symmetry_multiplicity
 _atom_site_fract_x
 _atom_site_fract_y
 _atom_site_fract_z
 _atom_site_occupancy
  Na  Na0  1  0.35160456  0.33949081  0.24885566  1
  Na  Na1  1  0.98890924  0.33975709  0.73758767  1
  Na  Na2  1  0.35988335  0.01425615  0.73808192  1
  Na  Na3  1  0.28931104  0.31979027  0.57877733  1
  Na  Na4  1  0.04412531  0.69817687  0.58220653  1
  Na  Na5  1  0.66682795  0.98515872  0.58132344  1
  Na  Na6  1  0.30170951  0.98303627  0.09121959  1
  Na  Na7  1  0.65191917  0.68297285  0.09491639  1
  Na  Na8  1  0.04490910  0.33165775  0.09216863  1
  Na  Na9  1  0.96425815  0.67146541  0.90848456  1
  Na  Na10  1  0.71085384  0.04004334  0.90791016  1
  Na  Na11  1  0.32601332  0.28942760  0.91395087  1
  Na  Na12  1  0.96446899  0.29136056  0.41167362  1
  Na  Na13  1  0.32818994  0.03995246  0.41232036  1
  Na  Na14  1  0.70858668  0.66918193  0.40590888  1
  Na  Na15  1  0.01010990  0.01054707  0.49994516  1
  Na  Na16  1  0.01393113  0.01281222  0.99988521  1
  Na  Na17  1  0.66597967  0.34829902  0.82593511  1
  Na  Na18  1  0.68210961  0.33237434  0.32638336  1
  Na  Na19  1  0.33282637  0.67096654  0.17442164  1
  Na  Na20  1  0.33661611  0.66627501  0.65845430  1
  Ca  Ca21  1  0.99510712  0.99775869  0.34391366  1
  Ca  Ca22  1  0.99783710  0.99602265  0.84450871  1
  Ca  Ca23  1  0.99696286  0.99779227  0.65736229  1
  Ca  Ca24  1  0.99836748  0.99608625  0.16305605  1
  Ca  Ca25  1  0.66840025  0.33717611  0.68222425  1
  Ca  Ca26  1  0.67011050  0.33591199  0.18657298  1
  Ca  Ca27  1  0.65942506  0.33220961  0.97962700  1
  Ca  Ca28  1  0.66601013  0.32739910  0.48120597  1
  Ca  Ca29  1  0.33418650  0.66302252  0.01483477  1
  Ca  Ca30  1  0.33046323  0.66746260  0.51361472  1
  Nb  Nb31  1  0.33432146  0.67152231  0.31736853  1
  Nb  Nb32  1  0.33738375  0.66723431  0.81746247  1
  P  P33  1  0.31093027  0.99495414  0.25163592  1
  P  P34  1  0.67575593  0.68560981  0.25245533  1
  P  P35  1  0.01160734  0.32309981  0.25327597  1
  P  P36  1  0.30864524  0.31523480  0.75492123  1
  P  P37  1  0.01044306  0.68728904  0.75525493  1
  P  P38  1  0.68253383  0.99574049  0.75349610  1
  P  P39  1  0.97369661  0.32947599  0.58396028  1
  P  P40  1  0.35599894  0.02701330  0.58464058  1
  P  P41  1  0.35630558  0.32703838  0.08265615  1
  P  P42  1  0.63041212  0.66772563  0.91782991  1
  P  P43  1  0.03577349  0.37076210  0.91643215  1
  P  P44  1  0.33366516  0.96237618  0.91742147  1
  P  P45  1  0.63031139  0.96273170  0.41769113  1
  P  P46  1  0.33493377  0.37072415  0.41611028  1
  P  P47  1  0.03583514  0.66613170  0.41666893  1
  S  S48  1  0.66998959  0.64086054  0.58059901  1
  S  S49  1  0.96855820  0.64052370  0.07987259  1
  S  S50  1  0.67249817  0.03213867  0.08073271  1
  O  O51  1  0.21938173  0.01712017  0.30340493  1
  O  O52  1  0.77971661  0.77378828  0.30616663  1
  O  O53  1  0.99879020  0.22249991  0.30799272  1
  O  O54  1  0.22717855  0.21299311  0.81019931  1
  O  O55  1  0.99370255  0.76698544  0.81148478  1
  O  O56  1  0.78923697  0.02011556  0.80770286  1
  O  O57  1  0.75364649  0.96801024  0.69683768  1
  O  O58  1  0.19419308  0.24641855  0.70079403  1
  O  O59  1  0.04510367  0.79820666  0.70089764  1
  O  O60  1  0.74687422  0.77909502  0.19415093  1
  O  O61  1  0.04890798  0.25147434  0.19723637  1
  O  O62  1  0.21439578  0.96011137  0.19322852  1
  O  O63  1  0.88747147  0.34114293  0.64022496  1
  O  O64  1  0.45090991  0.11682302  0.64095407  1
  O  O65  1  0.65786952  0.53775239  0.63132375  1
  O  O66  1  0.87536533  0.53244359  0.12875144  1
  O  O67  1  0.66485887  0.12956541  0.12970232  1
  O  O68  1  0.46220516  0.33637050  0.13566947  1
  O  O69  1  0.43606770  0.31477529  0.02415910  1
  O  O70  1  0.88594361  0.56642728  0.02273480  1
  O  O71  1  0.68612673  0.11698192  0.02358410  1
  O  O72  1  0.44355129  0.12935784  0.52900686  1
  O  O73  1  0.68127541  0.56412920  0.52476812  1
  O  O74  1  0.87450558  0.32164848  0.52835830  1
  O  O75  1  0.56039246  0.68172137  0.97667424  1
  O  O76  1  0.12296100  0.44500411  0.97462506  1
  O  O77  1  0.32177966  0.87565717  0.97557824  1
  O  O78  1  0.56055902  0.87917688  0.47678995  1
  O  O79  1  0.32163849  0.44465926  0.47452106  1
  O  O80  1  0.12015416  0.68162358  0.47579708  1
  O  O81  1  0.15869742  0.66826630  0.36692506  1
  O  O82  1  0.51101983  0.83953484  0.36772848  1
  O  O83  1  0.33291194  0.48590944  0.36414081  1
  O  O84  1  0.15373776  0.48700928  0.86472785  1
  O  O85  1  0.33092397  0.84411326  0.86553992  1
  O  O86  1  0.51066122  0.67028850  0.86773918  1
  O  O87  1  0.01311263  0.81669704  0.40955136  1
  O  O88  1  0.80332858  0.98645202  0.41088204  1
  O  O89  1  0.18419066  0.19607586  0.41094554  1
  O  O90  1  0.01256570  0.19637704  0.91093179  1
  O  O91  1  0.18370118  0.98631126  0.91192846  1
  O  O92  1  0.80303801  0.81754670  0.91058600  1
  O  O93  1  0.98630991  0.16939309  0.58439149  1
  O  O94  1  0.17924038  0.00256080  0.58522987  1
  O  O95  1  0.82024762  0.80670978  0.58485495  1
  O  O96  1  0.97922359  0.80529766  0.08490961  1
  O  O97  1  0.81988759  0.01115091  0.08570498  1
  O  O98  1  0.18126692  0.16961021  0.08571407  1
  O  O99  1  0.65071354  0.14173137  0.75005674  1
  O  O100  1  0.47716776  0.33196001  0.74745669  1
  O  O101  1  0.86995867  0.50911914  0.74980882  1
  O  O102  1  0.63545308  0.50535790  0.25084314  1
  O  O103  1  0.86836384  0.35311931  0.24782700  1
  O  O104  1  0.48216188  0.14652603  0.24861575  1
  O  O105  1  0.63019344  0.50376552  0.90967066  1
  O  O106  1  0.87141344  0.36917399  0.90964149  1
  O  O107  1  0.49671504  0.12691347  0.90988300  1
  O  O108  1  0.62961352  0.12601325  0.40960332  1
  O  O109  1  0.49738102  0.36879821  0.40943533  1
  O  O110  1  0.87299808  0.50230052  0.40927397  1
  O  O111  1  0.33870846  0.48496225  0.08505530  1
  O  O112  1  0.13834792  0.66500218  0.08188707  1
  O  O113  1  0.52069416  0.86571631  0.08280066  1
  O  O114  1  0.34476755  0.85470860  0.58472368  1
  O  O115  1  0.52196971  0.66039218  0.58153799  1
  O  O116  1  0.15025201  0.48333508  0.58410422  1
  O  O117  1  0.33062265  0.83771669  0.26386920  1
  O  O118  1  0.49942875  0.67265984  0.26022719  1
  O  O119  1  0.17580944  0.49977868  0.26112551  1
  O  O120  1  0.33100667  0.49501237  0.76448185  1
  O  O121  1  0.17406487  0.67246633  0.76130772  1
  O  O122  1  0.50435420  0.83665704  0.76319645  1
