# generated using pymatgen
data_NaYTiSi(SO6)2
_symmetry_space_group_name_H-M   'P 1'
_cell_length_a   8.98748912
_cell_length_b   9.01763112
_cell_length_c   23.36098423
_cell_angle_alpha   90.92184429
_cell_angle_beta   90.00000000
_cell_angle_gamma   119.88949036
_symmetry_Int_Tables_number   1
_chemical_formula_structural   NaYTiSi(SO6)2
_chemical_formula_sum   'Na6 Y6 Ti6 Si6 S12 O72'
_cell_volume   1641.19567305
_cell_formula_units_Z   6
loop_
 _symmetry_equiv_pos_site_id
 _symmetry_equiv_pos_as_xyz
  1  'x, y, z'
loop_
 _atom_site_type_symbol
 _atom_site_label
 _atom_site_symmetry_multiplicity
 _atom_site_fract_x
 _atom_site_fract_y
 _atom_site_fract_z
 _atom_site_occupancy
  Na  Na0  1  0.01541403  0.00137992  0.50012535  1
  Na  Na1  1  0.98596589  0.00137992  0.00012535  1
  Na  Na2  1  0.69070379  0.34211186  0.83299795  1
  Na  Na3  1  0.65140907  0.34211186  0.33299795  1
  Na  Na4  1  0.33616500  0.68602604  0.16577955  1
  Na  Na5  1  0.34986003  0.68602604  0.66577955  1
  Y  Y6  1  0.00036174  0.99629484  0.64650614  1
  Y  Y7  1  0.99593310  0.99629484  0.14650614  1
  Y  Y8  1  0.67130328  0.32801175  0.97966685  1
  Y  Y9  1  0.65670946  0.32801175  0.47966685  1
  Y  Y10  1  0.33804152  0.66830945  0.31293486  1
  Y  Y11  1  0.33026693  0.66830945  0.81293486  1
  Ti  Ti12  1  0.03164761  0.01574987  0.35267647  1
  Ti  Ti13  1  0.98410226  0.01574987  0.85267647  1
  Ti  Ti14  1  0.65430821  0.29926870  0.68597650  1
  Ti  Ti15  1  0.64496149  0.29926870  0.18597650  1
  Ti  Ti16  1  0.32625984  0.66479813  0.01892987  1
  Ti  Ti17  1  0.33853729  0.66479813  0.51892987  1
  Si  Si18  1  0.29846849  0.00499412  0.24794974  1
  Si  Si19  1  0.70652563  0.00499412  0.74794974  1
  Si  Si20  1  0.37318461  0.02459967  0.58069597  1
  Si  Si21  1  0.65141605  0.02459967  0.08069597  1
  Si  Si22  1  0.04639020  0.37440500  0.91559834  1
  Si  Si23  1  0.32801380  0.37440500  0.41559834  1
  S  S24  1  0.71750238  0.70080175  0.25109750  1
  S  S25  1  0.98425668  0.28535768  0.25139287  1
  S  S26  1  0.30110101  0.28535768  0.75139287  1
  S  S27  1  0.98329937  0.70080175  0.75109750  1
  S  S28  1  0.96624493  0.34684057  0.58427058  1
  S  S29  1  0.65201173  0.61914638  0.58370601  1
  S  S30  1  0.96713565  0.61914638  0.08370601  1
  S  S31  1  0.38059665  0.34684057  0.08427058  1
  S  S32  1  0.63163011  0.68114337  0.91766926  1
  S  S33  1  0.31526884  0.95043793  0.91903252  1
  S  S34  1  0.63516809  0.95043793  0.41903252  1
  S  S35  1  0.04951226  0.68114337  0.41766926  1
  O  O36  1  0.19837673  0.03249769  0.30689775  1
  O  O37  1  0.82268957  0.79422256  0.30277970  1
  O  O38  1  0.96674594  0.17958209  0.30241676  1
  O  O39  1  0.21283616  0.17958209  0.80241676  1
  O  O40  1  0.97153298  0.79422256  0.80277970  1
  O  O41  1  0.83412096  0.03249769  0.80689775  1
  O  O42  1  0.79704049  0.98691939  0.69287435  1
  O  O43  1  0.20194778  0.20848972  0.69874739  1
  O  O44  1  0.01116974  0.80106637  0.69913488  1
  O  O45  1  0.78989663  0.80106637  0.19913488  1
  O  O46  1  0.00654194  0.20848972  0.19874739  1
  O  O47  1  0.18987889  0.98691939  0.19287435  1
  O  O48  1  0.87457566  0.36432148  0.63583944  1
  O  O49  1  0.50220232  0.13174115  0.64041051  1
  O  O50  1  0.63311920  0.51680115  0.63458185  1
  O  O51  1  0.88368296  0.51680115  0.13458185  1
  O  O52  1  0.62953983  0.13174115  0.14041051  1
  O  O53  1  0.48974682  0.36432148  0.13583944  1
  O  O54  1  0.45598058  0.32440118  0.03176179  1
  O  O55  1  0.86654200  0.54597028  0.03098531  1
  O  O56  1  0.67638474  0.14361008  0.02848150  1
  O  O57  1  0.46722634  0.14361008  0.52848150  1
  O  O58  1  0.67942928  0.54597028  0.53098531  1
  O  O59  1  0.86842160  0.32440118  0.53176179  1
  O  O60  1  0.54662902  0.70457720  0.96944975  1
  O  O61  1  0.17308689  0.48089120  0.97296899  1
  O  O62  1  0.30667556  0.84474748  0.96986780  1
  O  O63  1  0.53807091  0.84474748  0.46986780  1
  O  O64  1  0.30780331  0.48089120  0.47296899  1
  O  O65  1  0.15794717  0.70457720  0.46944975  1
  O  O66  1  0.12536322  0.65841158  0.36530235  1
  O  O67  1  0.53168088  0.87982989  0.36671449  1
  O  O68  1  0.34098141  0.47524261  0.35955848  1
  O  O69  1  0.13426020  0.47524261  0.85955848  1
  O  O70  1  0.34814801  0.87982989  0.86671449  1
  O  O71  1  0.53304735  0.65841158  0.86530235  1
  O  O72  1  0.03407647  0.84006953  0.41227390  1
  O  O73  1  0.80066969  0.95256447  0.41491697  1
  O  O74  1  0.14423314  0.17950077  0.40701083  1
  O  O75  1  0.03526764  0.17950077  0.90701083  1
  O  O76  1  0.15189478  0.95256447  0.91491697  1
  O  O77  1  0.80599306  0.84006953  0.91227390  1
  O  O78  1  0.99259650  0.19847667  0.58940066  1
  O  O79  1  0.18300184  0.99410112  0.58716630  1
  O  O80  1  0.79713729  0.79589523  0.58814535  1
  O  O81  1  0.99875794  0.79589523  0.08814535  1
  O  O82  1  0.81109928  0.99410112  0.08716630  1
  O  O83  1  0.20588016  0.19847667  0.08940066  1
  O  O84  1  0.70131365  0.18940257  0.74082515  1
  O  O85  1  0.47427895  0.29813383  0.74610549  1
  O  O86  1  0.82320598  0.53165212  0.74525033  1
  O  O87  1  0.70844714  0.53165212  0.24525033  1
  O  O88  1  0.82385589  0.29813383  0.24610549  1
  O  O89  1  0.48808992  0.18940257  0.24082515  1
  O  O90  1  0.65456873  0.53171162  0.92349417  1
  O  O91  1  0.85297778  0.33820628  0.91918533  1
  O  O92  1  0.45933691  0.12732776  0.92490642  1
  O  O93  1  0.66799185  0.12732776  0.42490642  1
  O  O94  1  0.48522950  0.33820628  0.41918533  1
  O  O95  1  0.87714389  0.53171162  0.42349417  1
  O  O96  1  0.37002338  0.50760259  0.08077296  1
  O  O97  1  0.14052779  0.63018805  0.07706494  1
  O  O98  1  0.47167330  0.83736658  0.07166974  1
  O  O99  1  0.36569228  0.83736658  0.57166974  1
  O  O100  1  0.48965926  0.63018805  0.57706494  1
  O  O101  1  0.13757821  0.50760259  0.58077296  1
  O  O102  1  0.33564192  0.85109219  0.25424319  1
  O  O103  1  0.54106858  0.67392560  0.25532562  1
  O  O104  1  0.13194237  0.45978288  0.25646325  1
  O  O105  1  0.32783951  0.45978288  0.75646325  1
  O  O106  1  0.13285602  0.67392560  0.75532562  1
  O  O107  1  0.51544927  0.85109219  0.75424319  1
