# generated using pymatgen
data_Ba2WO5
_symmetry_space_group_name_H-M   'P 1'
_cell_length_a   5.75789715
_cell_length_b   7.44365566
_cell_length_c   11.60028647
_cell_angle_alpha   90.00000000
_cell_angle_beta   90.00000000
_cell_angle_gamma   90.00000000
_symmetry_Int_Tables_number   1
_chemical_formula_structural   Ba2WO5
_chemical_formula_sum   'Ba8 W4 O20'
_cell_volume   497.18600109
_cell_formula_units_Z   4
loop_
 _symmetry_equiv_pos_site_id
 _symmetry_equiv_pos_as_xyz
  1  'x, y, z'
loop_
 _atom_site_type_symbol
 _atom_site_label
 _atom_site_symmetry_multiplicity
 _atom_site_fract_x
 _atom_site_fract_y
 _atom_site_fract_z
 _atom_site_occupancy
  Ba  Ba0  1  0.75000000  0.17523874  0.58430060  1
  Ba  Ba1  1  0.25000000  0.82476126  0.41569940  1
  Ba  Ba2  1  0.75000000  0.67523874  0.91569940  1
  Ba  Ba3  1  0.25000000  0.32476126  0.08430060  1
  Ba  Ba4  1  0.25000000  0.02232260  0.78554205  1
  Ba  Ba5  1  0.75000000  0.97767740  0.21445795  1
  Ba  Ba6  1  0.25000000  0.52232260  0.71445795  1
  Ba  Ba7  1  0.75000000  0.47767740  0.28554205  1
  W  W8  1  0.25000000  0.32270945  0.43467876  1
  W  W9  1  0.75000000  0.67729055  0.56532124  1
  W  W10  1  0.25000000  0.82270945  0.06532124  1
  W  W11  1  0.75000000  0.17729055  0.93467876  1
  O  O12  1  0.48956685  0.67698236  0.11447937  1
  O  O13  1  0.98956685  0.32301764  0.88552063  1
  O  O14  1  0.01043315  0.17698236  0.38552063  1
  O  O15  1  0.51043315  0.82301764  0.61447937  1
  O  O16  1  0.51043315  0.32301764  0.88552063  1
  O  O17  1  0.01043315  0.67698236  0.11447937  1
  O  O18  1  0.98956685  0.82301764  0.61447937  1
  O  O19  1  0.48956685  0.17698236  0.38552063  1
  O  O20  1  0.75000000  0.27583720  0.09023822  1
  O  O21  1  0.25000000  0.72416280  0.90976178  1
  O  O22  1  0.75000000  0.77583720  0.40976178  1
  O  O23  1  0.25000000  0.22416280  0.59023822  1
  O  O24  1  0.00000000  0.50000000  0.50000000  1
  O  O25  1  0.50000000  0.50000000  0.50000000  1
  O  O26  1  0.50000000  -0.00000000  0.00000000  1
  O  O27  1  0.00000000  -0.00000000  0.00000000  1
  O  O28  1  0.25000000  0.47410698  0.30568586  1
  O  O29  1  0.75000000  0.52589302  0.69431414  1
  O  O30  1  0.25000000  0.97410698  0.19431414  1
  O  O31  1  0.75000000  0.02589302  0.80568586  1
