# generated using pymatgen
data_KTlBr4
_symmetry_space_group_name_H-M   'P 1'
_cell_length_a   8.00537316
_cell_length_b   10.49574493
_cell_length_c   10.54191042
_cell_angle_alpha   90.00000000
_cell_angle_beta   90.00000000
_cell_angle_gamma   90.00000000
_symmetry_Int_Tables_number   1
_chemical_formula_structural   KTlBr4
_chemical_formula_sum   'K4 Tl4 Br16'
_cell_volume   885.75613712
_cell_formula_units_Z   4
loop_
 _symmetry_equiv_pos_site_id
 _symmetry_equiv_pos_as_xyz
  1  'x, y, z'
loop_
 _atom_site_type_symbol
 _atom_site_label
 _atom_site_symmetry_multiplicity
 _atom_site_fract_x
 _atom_site_fract_y
 _atom_site_fract_z
 _atom_site_occupancy
  K  K0  1  0.18099712  0.25000000  0.75000000  1
  K  K1  1  0.31900288  0.75000000  0.75000000  1
  K  K2  1  0.81900288  0.75000000  0.25000000  1
  K  K3  1  0.68099712  0.25000000  0.25000000  1
  Tl  Tl4  1  0.75000000  0.50000000  0.67703111  1
  Tl  Tl5  1  0.75000000  0.00000000  0.82296889  1
  Tl  Tl6  1  0.25000000  0.50000000  0.32296889  1
  Tl  Tl7  1  0.25000000  0.00000000  0.17703111  1
  Br  Br8  1  0.35287289  0.19365645  0.04502703  1
  Br  Br9  1  0.35287289  0.30634355  0.45497297  1
  Br  Br10  1  0.14712711  0.69365645  0.45497297  1
  Br  Br11  1  0.14712711  0.80634355  0.04502703  1
  Br  Br12  1  0.64712711  0.80634355  0.95497297  1
  Br  Br13  1  0.64712711  0.69365645  0.54502703  1
  Br  Br14  1  0.85287289  0.30634355  0.54502703  1
  Br  Br15  1  0.85287289  0.19365645  0.95497297  1
  Br  Br16  1  0.99080555  0.04163959  0.32066119  1
  Br  Br17  1  0.99080555  0.45836041  0.17933881  1
  Br  Br18  1  0.50919445  0.54163959  0.17933881  1
  Br  Br19  1  0.50919445  0.95836041  0.32066119  1
  Br  Br20  1  0.00919445  0.95836041  0.67933881  1
  Br  Br21  1  0.00919445  0.54163959  0.82066119  1
  Br  Br22  1  0.49080555  0.45836041  0.82066119  1
  Br  Br23  1  0.49080555  0.04163959  0.67933881  1
