# generated using pymatgen
data_RbSnI3
_symmetry_space_group_name_H-M   'P 1'
_cell_length_a   4.75301072
_cell_length_b   10.40655468
_cell_length_c   17.43905401
_cell_angle_alpha   90.00000000
_cell_angle_beta   90.00000000
_cell_angle_gamma   90.00000000
_symmetry_Int_Tables_number   1
_chemical_formula_structural   RbSnI3
_chemical_formula_sum   'Rb4 Sn4 I12'
_cell_volume   862.57861521
_cell_formula_units_Z   4
loop_
 _symmetry_equiv_pos_site_id
 _symmetry_equiv_pos_as_xyz
  1  'x, y, z'
loop_
 _atom_site_type_symbol
 _atom_site_label
 _atom_site_symmetry_multiplicity
 _atom_site_fract_x
 _atom_site_fract_y
 _atom_site_fract_z
 _atom_site_occupancy
  Rb  Rb0  1  0.25000000  0.58450045  0.17206743  1
  Rb  Rb1  1  0.25000000  0.08450045  0.32793257  1
  Rb  Rb2  1  0.75000000  0.41549955  0.82793257  1
  Rb  Rb3  1  0.75000000  0.91549955  0.67206743  1
  Sn  Sn4  1  0.75000000  0.16249626  0.06060108  1
  Sn  Sn5  1  0.25000000  0.33750374  0.56060108  1
  Sn  Sn6  1  0.25000000  0.83750374  0.93939892  1
  Sn  Sn7  1  0.75000000  0.66249626  0.43939892  1
  I  I8  1  0.25000000  0.69871763  0.78854336  1
  I  I9  1  0.25000000  0.47535294  0.38268643  1
  I  I10  1  0.75000000  0.52464706  0.61731357  1
  I  I11  1  0.25000000  0.97535294  0.11731357  1
  I  I12  1  0.75000000  0.16128163  0.49538546  1
  I  I13  1  0.25000000  0.83871837  0.50461454  1
  I  I14  1  0.75000000  0.66128163  0.00461454  1
  I  I15  1  0.25000000  0.33871837  0.99538546  1
  I  I16  1  0.75000000  0.30128237  0.21145664  1
  I  I17  1  0.25000000  0.19871763  0.71145664  1
  I  I18  1  0.75000000  0.80128237  0.28854336  1
  I  I19  1  0.75000000  0.02464706  0.88268643  1
