# generated using pymatgen
data_IrCl3
_symmetry_space_group_name_H-M   'P 1'
_cell_length_a   6.08205802
_cell_length_b   6.08205826
_cell_length_c   6.11670533
_cell_angle_alpha   99.06912043
_cell_angle_beta   99.06911331
_cell_angle_gamma   120.01494917
_symmetry_Int_Tables_number   1
_chemical_formula_structural   IrCl3
_chemical_formula_sum   'Ir2 Cl6'
_cell_volume   185.92722145
_cell_formula_units_Z   2
loop_
 _symmetry_equiv_pos_site_id
 _symmetry_equiv_pos_as_xyz
  1  'x, y, z'
loop_
 _atom_site_type_symbol
 _atom_site_label
 _atom_site_symmetry_multiplicity
 _atom_site_fract_x
 _atom_site_fract_y
 _atom_site_fract_z
 _atom_site_occupancy
  Ir  Ir0  1  0.16663007  0.83336993  -0.00000000  1
  Ir  Ir1  1  0.83336993  0.16663007  0.00000000  1
  Cl  Cl2  1  0.92254387  0.57067309  0.22328673  1
  Cl  Cl3  1  0.42932691  0.07745613  0.77671327  1
  Cl  Cl4  1  0.78106406  0.78106406  0.77612770  1
  Cl  Cl5  1  0.21893594  0.21893594  0.22387230  1
  Cl  Cl6  1  0.57067309  0.92254387  0.22328673  1
  Cl  Cl7  1  0.07745613  0.42932691  0.77671327  1
