# generated using pymatgen
data_SbTeI
_symmetry_space_group_name_H-M   'P 1'
_cell_length_a   7.48458504
_cell_length_b   7.48458504
_cell_length_c   9.61970442
_cell_angle_alpha   51.98637611
_cell_angle_beta   51.98637611
_cell_angle_gamma   33.36337817
_symmetry_Int_Tables_number   1
_chemical_formula_structural   SbTeI
_chemical_formula_sum   'Sb2 Te2 I2'
_cell_volume   226.99467602
_cell_formula_units_Z   2
loop_
 _symmetry_equiv_pos_site_id
 _symmetry_equiv_pos_as_xyz
  1  'x, y, z'
loop_
 _atom_site_type_symbol
 _atom_site_label
 _atom_site_symmetry_multiplicity
 _atom_site_fract_x
 _atom_site_fract_y
 _atom_site_fract_z
 _atom_site_occupancy
  Sb  Sb0  1  0.13181955  0.13181955  0.24106575  1
  Sb  Sb1  1  0.86818045  0.86818045  0.75893425  1
  Te  Te2  1  0.18023980  0.18023980  0.90468266  1
  Te  Te3  1  0.81976020  0.81976020  0.09531734  1
  I  I4  1  0.42529234  0.42529234  0.36219194  1
  I  I5  1  0.57470766  0.57470766  0.63780806  1
