# generated using pymatgen
data_Na6Y4Si5Sn4S7O48
_symmetry_space_group_name_H-M   'P 1'
_cell_length_a   18.20997925
_cell_length_b   9.06990015
_cell_length_c   23.60236195
_cell_angle_alpha   89.99869162
_cell_angle_beta   89.78129393
_cell_angle_gamma   119.90750707
_symmetry_Int_Tables_number   1
_chemical_formula_structural   Na6Y4Si5Sn4S7O48
_chemical_formula_sum   'Na18 Y12 Si15 Sn12 S21 O144'
_cell_volume   3379.07503710
_cell_formula_units_Z   3
loop_
 _symmetry_equiv_pos_site_id
 _symmetry_equiv_pos_as_xyz
  1  'x, y, z'
loop_
 _atom_site_type_symbol
 _atom_site_label
 _atom_site_symmetry_multiplicity
 _atom_site_fract_x
 _atom_site_fract_y
 _atom_site_fract_z
 _atom_site_occupancy
  Na  Na0  1  0.99891121  0.62998340  0.25463904  1
  Na  Na1  1  0.49791593  0.62574151  0.25118651  1
  Na  Na2  1  0.99775300  0.37274944  0.75064848  1
  Na  Na3  1  0.50163329  0.36117723  0.75252628  1
  Na  Na4  1  0.66282724  0.30570551  0.91859497  1
  Na  Na5  1  0.16494168  0.01863687  0.42819784  1
  Na  Na6  1  0.00082687  0.99386335  0.50776176  1
  Na  Na7  1  0.50501901  0.99714977  0.50334320  1
  Na  Na8  1  0.00379594  0.01054651  0.99798859  1
  Na  Na9  1  0.50231841  0.01200221  0.00243170  1
  Na  Na10  1  0.32978591  0.32182142  0.84038608  1
  Na  Na11  1  0.83282173  0.33407038  0.82119631  1
  Na  Na12  1  0.34406719  0.34815524  0.32745811  1
  Na  Na13  1  0.82570998  0.33282127  0.34320168  1
  Na  Na14  1  0.18346230  0.66161441  0.16320431  1
  Na  Na15  1  0.66860952  0.65154529  0.16091942  1
  Na  Na16  1  0.17007399  0.68818907  0.66369067  1
  Na  Na17  1  0.68040731  0.68812385  0.66992070  1
  Y  Y18  1  0.99521176  0.98957751  0.35811453  1
  Y  Y19  1  0.49960314  0.00757780  0.85479345  1
  Y  Y20  1  0.32416839  0.33322479  0.67844558  1
  Y  Y21  1  0.82546398  0.31500579  0.68797447  1
  Y  Y22  1  0.33168164  0.34497380  0.18473763  1
  Y  Y23  1  0.82188635  0.31326833  0.17715001  1
  Y  Y24  1  0.83101294  0.32164023  0.98815434  1
  Y  Y25  1  0.33272977  0.34523072  0.49122317  1
  Y  Y26  1  0.17118100  0.66629887  0.31466475  1
  Y  Y27  1  0.66729575  0.64883759  0.31481462  1
  Y  Y28  1  0.16888125  0.68707659  0.81426758  1
  Y  Y29  1  0.66905575  0.66315882  0.81083148  1
  Si  Si30  1  0.36073092  0.72486330  0.25039728  1
  Si  Si31  1  0.49866219  0.29285521  0.24966799  1
  Si  Si32  1  0.64258046  0.28652529  0.74896065  1
  Si  Si33  1  0.00062039  0.70490374  0.74934406  1
  Si  Si34  1  0.86177742  0.99838868  0.75059884  1
  Si  Si35  1  0.17649327  0.03018098  0.58188414  1
  Si  Si36  1  0.68724085  0.03161158  0.57966228  1
  Si  Si37  1  0.33413328  0.64677808  0.58372397  1
  Si  Si38  1  0.83053880  0.02181929  0.08254725  1
  Si  Si39  1  0.18793277  0.34354087  0.08066881  1
  Si  Si40  1  0.67651512  0.32630893  0.08179414  1
  Si  Si41  1  0.51745936  0.37997760  0.91938308  1
  Si  Si42  1  0.16321846  0.96322718  0.91930288  1
  Si  Si43  1  0.66448560  0.36415948  0.41913493  1
  Si  Si44  1  0.01838944  0.65300019  0.41829785  1
  Sn  Sn45  1  0.50132596  0.01640450  0.35098954  1
  Sn  Sn46  1  0.00122457  0.98459138  0.85017482  1
  Sn  Sn47  1  0.00108386  0.98556961  0.65067122  1
  Sn  Sn48  1  0.50929350  0.99885546  0.64361136  1
  Sn  Sn49  1  0.00336281  0.01750704  0.14070537  1
  Sn  Sn50  1  0.50046029  0.01559792  0.14950377  1
  Sn  Sn51  1  0.32738084  0.32104604  0.98129654  1
  Sn  Sn52  1  0.82815247  0.33601330  0.48295600  1
  Sn  Sn53  1  0.16421730  0.66505809  0.01434298  1
  Sn  Sn54  1  0.66696948  0.65773506  0.02063826  1
  Sn  Sn55  1  0.16589773  0.67627386  0.52328595  1
  Sn  Sn56  1  0.66326906  0.65920363  0.51666297  1
  S  S57  1  0.14137447  0.99874971  0.24851741  1
  S  S58  1  0.64450145  0.00200126  0.25147531  1
  S  S59  1  0.85829143  0.71353375  0.24616311  1
  S  S60  1  0.99928124  0.29161194  0.24855377  1
  S  S61  1  0.14468721  0.28699854  0.75156757  1
  S  S62  1  0.49796829  0.70507943  0.74884058  1
  S  S63  1  0.35650904  0.00140361  0.74610847  1
  S  S64  1  0.48592710  0.33425780  0.58442760  1
  S  S65  1  0.97993566  0.32949609  0.58117128  1
  S  S66  1  0.83271747  0.63131919  0.58114547  1
  S  S67  1  0.48080837  0.63250644  0.08145779  1
  S  S68  1  0.98677193  0.63722895  0.08590556  1
  S  S69  1  0.33175454  0.03317346  0.08160370  1
  S  S70  1  0.31174195  0.66003693  0.91951979  1
  S  S71  1  0.81642670  0.67261002  0.91831890  1
  S  S72  1  0.01984269  0.36708739  0.91580422  1
  S  S73  1  0.66681593  0.95621121  0.91887266  1
  S  S74  1  0.31620286  0.96158131  0.41778902  1
  S  S75  1  0.81089000  0.96307352  0.41913876  1
  S  S76  1  0.16806874  0.37433979  0.41860881  1
  S  S77  1  0.51909075  0.67207873  0.41532044  1
  O  O78  1  0.10309107  0.01973212  0.30143730  1
  O  O79  1  0.60535432  0.02477066  0.30365090  1
  O  O80  1  0.42209276  0.80814092  0.30742008  1
  O  O81  1  0.90852390  0.79344425  0.29837830  1
  O  O82  1  0.48613747  0.18307275  0.30762089  1
  O  O83  1  0.99025667  0.19123968  0.29994002  1
  O  O84  1  0.10574115  0.18586426  0.80370420  1
  O  O85  1  0.60187930  0.18510541  0.80848303  1
  O  O86  1  0.48555075  0.78264686  0.80024859  1
  O  O87  1  0.98774826  0.78887795  0.80751747  1
  O  O88  1  0.40469360  0.02009319  0.79900033  1
  O  O89  1  0.92383625  0.03805934  0.80770686  1
  O  O90  1  0.39759792  0.98124182  0.69562632  1
  O  O91  1  0.90649761  0.98011426  0.69125330  1
  O  O92  1  0.09321305  0.21072731  0.69963772  1
  O  O93  1  0.57608137  0.18922857  0.69494819  1
  O  O94  1  0.02039123  0.82487408  0.69320036  1
  O  O95  1  0.50647747  0.80485653  0.69699862  1
  O  O96  1  0.40608209  0.83043803  0.19142764  1
  O  O97  1  0.90226880  0.81805517  0.19565176  1
  O  O98  1  0.01012111  0.20870960  0.19715894  1
  O  O99  1  0.51766232  0.21260476  0.19344032  1
  O  O100  1  0.08536398  0.97262154  0.19855695  1
  O  O101  1  0.59300146  0.97549479  0.19975821  1
  O  O102  1  0.44772997  0.36081459  0.63609602  1
  O  O103  1  0.94620004  0.36247455  0.63324102  1
  O  O104  1  0.23685405  0.11733798  0.63569396  1
  O  O105  1  0.74153981  0.10283839  0.63587146  1
  O  O106  1  0.31587579  0.52888308  0.63905996  1
  O  O107  1  0.82082572  0.53066443  0.63182605  1
  O  O108  1  0.44652653  0.53142422  0.13431038  1
  O  O109  1  0.94865893  0.53599323  0.13811479  1
  O  O110  1  0.31923761  0.10936409  0.13319436  1
  O  O111  1  0.81618808  0.10120382  0.14008331  1
  O  O112  1  0.23953866  0.37603566  0.13852234  1
  O  O113  1  0.73569185  0.35968847  0.13694258  1
  O  O114  1  0.23288854  0.30953232  0.02614384  1
  O  O115  1  0.71746317  0.30031755  0.02367331  1
  O  O116  1  0.42556765  0.54597064  0.03212080  1
  O  O117  1  0.93364938  0.55892380  0.03567172  1
  O  O118  1  0.34652907  0.14135212  0.03073133  1
  O  O119  1  0.85343575  0.14514380  0.02831003  1
  O  O120  1  0.21556045  0.13296645  0.52207263  1
  O  O121  1  0.73154107  0.15421566  0.52381147  1
  O  O122  1  0.35500371  0.56940786  0.52784151  1
  O  O123  1  0.84820361  0.55498803  0.52915334  1
  O  O124  1  0.43384787  0.31246130  0.53374311  1
  O  O125  1  0.92610521  0.30729443  0.53050915  1
  O  O126  1  0.27081652  0.68719037  0.97065051  1
  O  O127  1  0.77690173  0.69796849  0.96996376  1
  O  O128  1  0.07322265  0.44960802  0.96780317  1
  O  O129  1  0.58593041  0.47560226  0.97151421  1
  O  O130  1  0.14783375  0.83930538  0.97601064  1
  O  O131  1  0.65913595  0.85663348  0.97059149  1
  O  O132  1  0.27552846  0.85578774  0.46867518  1
  O  O133  1  0.77052368  0.85366038  0.46928642  1
  O  O134  1  0.15745417  0.45635378  0.46908971  1
  O  O135  1  0.64881741  0.45885875  0.47467273  1
  O  O136  1  0.08861240  0.69687356  0.46903595  1
  O  O137  1  0.57222654  0.69489504  0.46647238  1
  O  O138  1  0.05392978  0.63050345  0.35680275  1
  O  O139  1  0.56015388  0.65430888  0.36328655  1
  O  O140  1  0.26268299  0.88283806  0.36685464  1
  O  O141  1  0.76266192  0.88894126  0.36671525  1
  O  O142  1  0.17809256  0.47187720  0.36626467  1
  O  O143  1  0.68280089  0.47848239  0.36294502  1
  O  O144  1  0.06166226  0.46822718  0.86442106  1
  O  O145  1  0.55301473  0.47826648  0.85948620  1
  O  O146  1  0.18167156  0.88412286  0.86399941  1
  O  O147  1  0.67690628  0.87844009  0.86734301  1
  O  O148  1  0.26183073  0.63527299  0.86791495  1
  O  O149  1  0.76320605  0.64415767  0.86794243  1
  O  O150  1  0.01515829  0.83336012  0.41586707  1
  O  O151  1  0.51083920  0.82716639  0.41174427  1
  O  O152  1  0.40040120  0.97510360  0.41228179  1
  O  O153  1  0.89674993  0.98066095  0.41484887  1
  O  O154  1  0.09107062  0.20109841  0.41364878  1
  O  O155  1  0.57797004  0.17260209  0.41266049  1
  O  O156  1  0.01153977  0.19606020  0.91270992  1
  O  O157  1  0.51191644  0.19220604  0.91926168  1
  O  O158  1  0.07719984  0.98293781  0.91321784  1
  O  O159  1  0.58940321  0.97367463  0.91671876  1
  O  O160  1  0.39660780  0.81218030  0.91585471  1
  O  O161  1  0.90120946  0.82728490  0.91339965  1
  O  O162  1  0.49412174  0.18102814  0.58848559  1
  O  O163  1  0.98821952  0.17497021  0.58560387  1
  O  O164  1  0.08257039  0.02063169  0.58827197  1
  O  O165  1  0.59235807  0.01440489  0.58383626  1
  O  O166  1  0.41731781  0.83890905  0.59245806  1
  O  O167  1  0.90851497  0.80551204  0.58479954  1
  O  O168  1  0.48816300  0.80273803  0.08726059  1
  O  O169  1  0.99645496  0.81021893  0.09192917  1
  O  O170  1  0.40773139  0.01183197  0.08594276  1
  O  O171  1  0.91511712  0.99673861  0.08915993  1
  O  O172  1  0.09314264  0.16659681  0.08632745  1
  O  O173  1  0.58288055  0.14621887  0.08853163  1
  O  O174  1  0.35125907  0.16090357  0.74329100  1
  O  O175  1  0.85873026  0.17398908  0.74787737  1
  O  O176  1  0.22992036  0.30514694  0.74754238  1
  O  O177  1  0.73556913  0.31049287  0.74559948  1
  O  O178  1  0.42431421  0.52853906  0.74426878  1
  O  O179  1  0.91908492  0.51734944  0.74542778  1
  O  O180  1  0.35437845  0.53829253  0.24800153  1
  O  O181  1  0.85299997  0.54424127  0.24320057  1
  O  O182  1  0.41515873  0.31446622  0.24630264  1
  O  O183  1  0.92477326  0.31632792  0.24416715  1
  O  O184  1  0.22640316  0.14575513  0.24319756  1
  O  O185  1  0.72996566  0.15495772  0.24768768  1
  O  O186  1  0.32059399  0.50687409  0.92598986  1
  O  O187  1  0.82395749  0.51729455  0.92399265  1
  O  O188  1  0.42332843  0.36294530  0.93039181  1
  O  O189  1  0.93673919  0.35669210  0.92204669  1
  O  O190  1  0.24824630  0.15141815  0.92573031  1
  O  O191  1  0.74115489  0.13309050  0.92205663  1
  O  O192  1  0.32334386  0.13170312  0.42268811  1
  O  O193  1  0.82214148  0.13557967  0.42505968  1
  O  O194  1  0.24224751  0.34784758  0.42121389  1
  O  O195  1  0.75001102  0.34733655  0.42530911  1
  O  O196  1  0.43510909  0.51625782  0.42057214  1
  O  O197  1  0.92411895  0.48609138  0.42940141  1
  O  O198  1  0.17312075  0.51035754  0.07072029  1
  O  O199  1  0.66632551  0.49632264  0.07867582  1
  O  O200  1  0.07219056  0.65376148  0.07916738  1
  O  O201  1  0.56682908  0.65377743  0.07409413  1
  O  O202  1  0.25431506  0.86142739  0.07456881  1
  O  O203  1  0.74312362  0.83813785  0.07393526  1
  O  O204  1  0.16565747  0.83868691  0.57910056  1
  O  O205  1  0.67417924  0.83578409  0.56964679  1
  O  O206  1  0.24471955  0.65088859  0.57370009  1
  O  O207  1  0.75513358  0.64700441  0.57333040  1
  O  O208  1  0.06694482  0.48085866  0.57305979  1
  O  O209  1  0.57178041  0.49043565  0.57813143  1
  O  O210  1  0.14523606  0.83863196  0.25192569  1
  O  O211  1  0.65168341  0.84687147  0.25668999  1
  O  O212  1  0.26653132  0.70431610  0.25339180  1
  O  O213  1  0.77408302  0.69727085  0.25031388  1
  O  O214  1  0.07603090  0.46411601  0.25101211  1
  O  O215  1  0.58038701  0.48823414  0.25229994  1
  O  O216  1  0.15144434  0.45606751  0.75674290  1
  O  O217  1  0.64296561  0.46778812  0.74869261  1
  O  O218  1  0.08352391  0.67692115  0.75186574  1
  O  O219  1  0.57546374  0.69140871  0.75185515  1
  O  O220  1  0.27105727  0.84977741  0.75047006  1
  O  O221  1  0.76838039  0.83313168  0.75387522  1
