# generated using pymatgen
data_Li3InO3
_symmetry_space_group_name_H-M   'P 1'
_cell_length_a   5.61355486
_cell_length_b   5.61355145
_cell_length_c   10.26175415
_cell_angle_alpha   89.99997953
_cell_angle_beta   90.00004539
_cell_angle_gamma   119.99738882
_symmetry_Int_Tables_number   1
_chemical_formula_structural   Li3InO3
_chemical_formula_sum   'Li12 In4 O12'
_cell_volume   280.05242833
_cell_formula_units_Z   4
loop_
 _symmetry_equiv_pos_site_id
 _symmetry_equiv_pos_as_xyz
  1  'x, y, z'
loop_
 _atom_site_type_symbol
 _atom_site_label
 _atom_site_symmetry_multiplicity
 _atom_site_fract_x
 _atom_site_fract_y
 _atom_site_fract_z
 _atom_site_occupancy
  Li  Li0  1  0.62877343  0.94718161  0.93051713  1
  Li  Li1  1  0.05281313  0.68159719  0.93052188  1
  Li  Li2  1  0.31840701  0.37122309  0.93051349  1
  Li  Li3  1  0.05281834  0.37123029  0.56948488  1
  Li  Li4  1  0.31840470  0.94718394  0.56947858  1
  Li  Li5  1  0.62878230  0.68159580  0.56948513  1
  Li  Li6  1  0.37122418  0.05281778  0.06948381  1
  Li  Li7  1  0.94718805  0.31840302  0.06947736  1
  Li  Li8  1  0.68158770  0.62877083  0.06948673  1
  Li  Li9  1  0.94718268  0.62877556  0.43051607  1
  Li  Li10  1  0.68160012  0.05281447  0.43052205  1
  Li  Li11  1  0.37122886  0.31841351  0.43051390  1
  In  In12  1  0.66666338  0.33333402  0.75000061  1
  In  In13  1  0.33333493  0.66666535  0.24999976  1
  In  In14  1  0.00000056  0.00000032  0.75000030  1
  In  In15  1  -0.00000160  0.00000032  0.24999978  1
  O  O16  1  0.70222582  0.03984443  0.62189550  1
  O  O17  1  0.96015234  0.66237624  0.62189684  1
  O  O18  1  0.33761317  0.29777327  0.62189608  1
  O  O19  1  0.96015537  0.29777423  0.87810453  1
  O  O20  1  0.33762257  0.03984710  0.87810450  1
  O  O21  1  0.70222599  0.66238628  0.87810463  1
  O  O22  1  0.29777363  0.96015547  0.37810440  1
  O  O23  1  0.03984851  0.33762390  0.37810315  1
  O  O24  1  0.66238682  0.70222810  0.37810413  1
  O  O25  1  0.03984237  0.70222446  0.12189475  1
  O  O26  1  0.66237523  0.96015079  0.12189550  1
  O  O27  1  0.29777042  0.33761164  0.12189454  1
