# generated using pymatgen
data_Na8Zr3ZnSi5SO24
_symmetry_space_group_name_H-M   'P 1'
_cell_length_a   9.29730729
_cell_length_b   9.29640040
_cell_length_c   22.76266848
_cell_angle_alpha   89.84700452
_cell_angle_beta   90.40859058
_cell_angle_gamma   119.97486380
_symmetry_Int_Tables_number   1
_chemical_formula_structural   Na8Zr3ZnSi5SO24
_chemical_formula_sum   'Na24 Zr9 Zn3 Si15 S3 O72'
_cell_volume   1704.21539315
_cell_formula_units_Z   3
loop_
 _symmetry_equiv_pos_site_id
 _symmetry_equiv_pos_as_xyz
  1  'x, y, z'
loop_
 _atom_site_type_symbol
 _atom_site_label
 _atom_site_symmetry_multiplicity
 _atom_site_fract_x
 _atom_site_fract_y
 _atom_site_fract_z
 _atom_site_occupancy
  Na  Na0  1  0.64751368  0.02577095  0.24627251  1
  Na  Na1  1  0.36748297  0.36185089  0.24073425  1
  Na  Na2  1  0.98136980  0.60811057  0.24215295  1
  Na  Na3  1  0.63276195  0.61696480  0.74619428  1
  Na  Na4  1  0.98495281  0.36508614  0.75122582  1
  Na  Na5  1  0.38343384  0.01417624  0.74642419  1
  Na  Na6  1  0.31933767  0.33503734  0.58955901  1
  Na  Na7  1  0.03213322  0.70710787  0.58320046  1
  Na  Na8  1  0.65841781  0.96458294  0.59217477  1
  Na  Na9  1  0.30846649  0.96923964  0.07908344  1
  Na  Na10  1  0.66396582  0.69167401  0.07894742  1
  Na  Na11  1  0.03019709  0.34346021  0.08085469  1
  Na  Na12  1  0.96586535  0.66592485  0.91469124  1
  Na  Na13  1  0.70004526  0.03430214  0.91421151  1
  Na  Na14  1  0.33392782  0.29995774  0.91436582  1
  Na  Na15  1  0.96443554  0.28707089  0.41043069  1
  Na  Na16  1  0.31760607  0.02895160  0.41742410  1
  Na  Na17  1  0.71432561  0.68200677  0.41724452  1
  Na  Na18  1  0.00124752  0.99275964  0.49419967  1
  Na  Na19  1  0.00052086  0.99889710  0.99423366  1
  Na  Na20  1  0.66689219  0.33282679  0.82536639  1
  Na  Na21  1  0.68058958  0.33141665  0.33177242  1
  Na  Na22  1  0.32652695  0.65924033  0.15970874  1
  Na  Na23  1  0.34325109  0.67497216  0.67195231  1
  Zr  Zr24  1  0.99815956  0.99797152  0.85030722  1
  Zr  Zr25  1  0.00133721  0.99251511  0.65103628  1
  Zr  Zr26  1  0.00417796  0.01328056  0.14475879  1
  Zr  Zr27  1  0.66828854  0.33459012  0.98216608  1
  Zr  Zr28  1  0.65777297  0.33603120  0.48003690  1
  Zr  Zr29  1  0.33357307  0.66561265  0.01707279  1
  Zr  Zr30  1  0.34097001  0.67515620  0.51626053  1
  Zr  Zr31  1  0.32505804  0.65833633  0.31877278  1
  Zr  Zr32  1  0.33444769  0.66743308  0.81406744  1
  Zn  Zn33  1  0.99582442  0.01348672  0.35761460  1
  Zn  Zn34  1  0.64434271  0.32794657  0.68814278  1
  Zn  Zn35  1  0.68084343  0.33170606  0.16811770  1
  Si  Si36  1  0.99721707  0.29626360  0.25324883  1
  Si  Si37  1  0.29368166  0.29613970  0.74993033  1
  Si  Si38  1  0.99789714  0.69807337  0.75034375  1
  Si  Si39  1  0.70402463  0.00239890  0.74870934  1
  Si  Si40  1  0.37240500  0.03864644  0.58516329  1
  Si  Si41  1  0.66637827  0.62826770  0.58542806  1
  Si  Si42  1  0.96459324  0.63033293  0.08639339  1
  Si  Si43  1  0.66166489  0.03615404  0.08632910  1
  Si  Si44  1  0.38031703  0.33697166  0.08738754  1
  Si  Si45  1  0.62936689  0.66666319  0.91718809  1
  Si  Si46  1  0.03747357  0.37045035  0.91649317  1
  Si  Si47  1  0.33365211  0.96246527  0.91692188  1
  Si  Si48  1  0.63043282  0.96447465  0.41462924  1
  Si  Si49  1  0.33097824  0.36950171  0.41761621  1
  Si  Si50  1  0.03445072  0.66750798  0.41650717  1
  S  S51  1  0.29225477  0.99772456  0.25228189  1
  S  S52  1  0.70606636  0.70826445  0.25191222  1
  S  S53  1  0.96126048  0.33430737  0.58323198  1
  O  O54  1  0.20854367  0.00997907  0.30510613  1
  O  O55  1  0.80599214  0.78762695  0.30493218  1
  O  O56  1  0.97358322  0.18269047  0.31054628  1
  O  O57  1  0.19701610  0.17874126  0.80709677  1
  O  O58  1  0.97403966  0.79304438  0.80744387  1
  O  O59  1  0.81944629  0.02235696  0.80702607  1
  O  O60  1  0.79469683  0.97314231  0.69056167  1
  O  O61  1  0.17724064  0.20739608  0.69060100  1
  O  O62  1  0.02992610  0.81999955  0.69201617  1
  O  O63  1  0.78974977  0.80998056  0.19824500  1
  O  O64  1  0.02699604  0.20393108  0.19498359  1
  O  O65  1  0.18819910  0.97493751  0.19835863  1
  O  O66  1  0.88804451  0.35950193  0.63591960  1
  O  O67  1  0.49127702  0.11580806  0.64180759  1
  O  O68  1  0.63318077  0.51286550  0.64226736  1
  O  O69  1  0.89253675  0.52101413  0.14561593  1
  O  O70  1  0.62395465  0.10715141  0.14559173  1
  O  O71  1  0.48990733  0.36626192  0.14655698  1
  O  O72  1  0.46353509  0.30345809  0.02929069  1
  O  O73  1  0.84280555  0.54360091  0.02897196  1
  O  O74  1  0.69999004  0.15883485  0.02938218  1
  O  O75  1  0.46327662  0.15410505  0.52574917  1
  O  O76  1  0.69715209  0.54151187  0.52608680  1
  O  O77  1  0.85861028  0.31313515  0.52937276  1
  O  O78  1  0.54165554  0.69448387  0.97544189  1
  O  O79  1  0.15327067  0.45768797  0.97531445  1
  O  O80  1  0.30553687  0.84583186  0.97523498  1
  O  O81  1  0.53384533  0.84595111  0.47180287  1
  O  O82  1  0.30625693  0.46371616  0.47401666  1
  O  O83  1  0.15259078  0.69354997  0.47411141  1
  O  O84  1  0.12556978  0.63460476  0.35907359  1
  O  O85  1  0.50931615  0.87553127  0.35646030  1
  O  O86  1  0.36429341  0.49089765  0.35939016  1
  O  O87  1  0.12683313  0.49012057  0.85956785  1
  O  O88  1  0.36370125  0.87340916  0.85994234  1
  O  O89  1  0.51027231  0.63659863  0.85983769  1
  O  O90  1  0.01655710  0.83137792  0.40954797  1
  O  O91  1  0.80946158  0.97515057  0.41438813  1
  O  O92  1  0.17190634  0.18502431  0.41418004  1
  O  O93  1  0.01955900  0.18586117  0.91292580  1
  O  O94  1  0.16669617  0.97998652  0.91323709  1
  O  O95  1  0.81367741  0.83337271  0.91374606  1
  O  O96  1  0.97735900  0.18163553  0.58530093  1
  O  O97  1  0.18732146  0.02630037  0.58650391  1
  O  O98  1  0.83250022  0.81820575  0.58641572  1
  O  O99  1  0.98309607  0.81684647  0.09257139  1
  O  O100  1  0.83065047  0.01620407  0.09112995  1
  O  O101  1  0.19160565  0.16619776  0.09072858  1
  O  O102  1  0.69050641  0.16906256  0.74587103  1
  O  O103  1  0.47469295  0.31109063  0.74981654  1
  O  O104  1  0.83497337  0.51651976  0.74527594  1
  O  O105  1  0.67933962  0.53825438  0.24767065  1
  O  O106  1  0.83361012  0.31919692  0.24801091  1
  O  O107  1  0.45812929  0.14695968  0.24821002  1
  O  O108  1  0.64586311  0.49937169  0.92269981  1
  O  O109  1  0.85377111  0.35430473  0.92222767  1
  O  O110  1  0.50053198  0.14654331  0.92289026  1
  O  O111  1  0.64745926  0.14867582  0.42127531  1
  O  O112  1  0.50427367  0.36071717  0.42063785  1
  O  O113  1  0.85431138  0.49472930  0.42127584  1
  O  O114  1  0.35123370  0.49713559  0.08019931  1
  O  O115  1  0.15127373  0.65346347  0.07848166  1
  O  O116  1  0.50185092  0.84827284  0.07856711  1
  O  O117  1  0.34089685  0.84638126  0.57788785  1
  O  O118  1  0.49841155  0.64844990  0.57793446  1
  O  O119  1  0.13158077  0.48300718  0.57680550  1
  O  O120  1  0.30917444  0.84331968  0.25304180  1
  O  O121  1  0.53814861  0.69979983  0.25312393  1
  O  O122  1  0.17406678  0.48454467  0.25324965  1
  O  O123  1  0.30573635  0.47885777  0.75329490  1
  O  O124  1  0.17100865  0.69108983  0.75365179  1
  O  O125  1  0.52174502  0.83056865  0.75300609  1
