# generated using pymatgen
data_Li7Cr4P9O32
_symmetry_space_group_name_H-M   'P 1'
_cell_length_a   13.75806600
_cell_length_b   13.75806600
_cell_length_c   6.32616400
_cell_angle_alpha   90.00000000
_cell_angle_beta   90.00000000
_cell_angle_gamma   90.00000000
_symmetry_Int_Tables_number   1
_chemical_formula_structural   Li7Cr4P9O32
_chemical_formula_sum   'Li14 Cr8 P18 O64'
_cell_volume   1197.44403090
_cell_formula_units_Z   2
loop_
 _symmetry_equiv_pos_site_id
 _symmetry_equiv_pos_as_xyz
  1  'x, y, z'
loop_
 _atom_site_type_symbol
 _atom_site_label
 _atom_site_symmetry_multiplicity
 _atom_site_fract_x
 _atom_site_fract_y
 _atom_site_fract_z
 _atom_site_occupancy
  Li  Li0  1  0.00000000  0.00000000  0.00000000  1
  Li  Li1  1  0.89650300  0.25516900  0.82674600  1
  Li  Li2  1  0.75516900  0.39650300  0.32674600  1
  Li  Li3  1  0.74483100  0.89650300  0.17325400  1
  Li  Li4  1  0.60349700  0.75516900  0.67325400  1
  Li  Li5  1  0.50000000  0.50000000  0.50000000  1
  Li  Li6  1  0.50000000  0.00000000  0.86004900  1
  Li  Li7  1  0.50000000  0.00000000  0.36004900  1
  Li  Li8  1  0.39650300  0.24483100  0.67325400  1
  Li  Li9  1  0.00000000  0.50000000  0.13995100  1
  Li  Li10  1  0.00000000  0.50000000  0.63995100  1
  Li  Li11  1  0.10349700  0.74483100  0.82674600  1
  Li  Li12  1  0.24483100  0.60349700  0.32674600  1
  Li  Li13  1  0.25516900  0.10349700  0.17325400  1
  Cr  Cr14  1  0.87895000  0.80359500  0.62019000  1
  Cr  Cr15  1  0.80359500  0.12105000  0.37981000  1
  Cr  Cr16  1  0.69640500  0.62105000  0.12019000  1
  Cr  Cr17  1  0.62105000  0.30359500  0.87981000  1
  Cr  Cr18  1  0.37895000  0.69640500  0.87981000  1
  Cr  Cr19  1  0.30359500  0.37895000  0.12019000  1
  Cr  Cr20  1  0.19640500  0.87895000  0.37981000  1
  Cr  Cr21  1  0.12105000  0.19640500  0.62019000  1
  P  P22  1  0.50000000  0.50000000  0.00000000  1
  P  P23  1  0.55979700  0.80553000  0.11404100  1
  P  P24  1  0.60879600  0.25225600  0.36921300  1
  P  P25  1  0.69447000  0.94020300  0.61404100  1
  P  P26  1  0.74774400  0.60879600  0.63078700  1
  P  P27  1  0.75225600  0.10879600  0.86921300  1
  P  P28  1  0.80553000  0.44020300  0.88595900  1
  P  P29  1  0.89120400  0.75225600  0.13078700  1
  P  P30  1  0.00000000  0.00000000  0.50000000  1
  P  P31  1  0.05979700  0.69447000  0.38595900  1
  P  P32  1  0.10879600  0.24774400  0.13078700  1
  P  P33  1  0.19447000  0.55979700  0.88595900  1
  P  P34  1  0.24774400  0.89120400  0.86921300  1
  P  P35  1  0.25225600  0.39120400  0.63078700  1
  P  P36  1  0.30553000  0.05979700  0.61404100  1
  P  P37  1  0.39120400  0.74774400  0.36921300  1
  P  P38  1  0.44020300  0.19447000  0.11404100  1
  P  P39  1  0.94020300  0.30553000  0.38595900  1
  O  O40  1  0.56275300  0.43633200  0.84879600  1
  O  O41  1  0.89183800  0.81281200  0.92987900  1
  O  O42  1  0.91547600  0.44116300  0.89326800  1
  O  O43  1  0.94116300  0.41547600  0.39326800  1
  O  O44  1  0.93724700  0.93633200  0.65120400  1
  O  O45  1  0.93633200  0.06275300  0.34879600  1
  O  O46  1  0.98766300  0.25416700  0.57632800  1
  O  O47  1  0.99497900  0.27256100  0.16841100  1
  O  O48  1  0.00502100  0.72743900  0.16841100  1
  O  O49  1  0.01233700  0.74583300  0.57632800  1
  O  O50  1  0.06366800  0.93724700  0.34879600  1
  O  O51  1  0.06275300  0.06366800  0.65120400  1
  O  O52  1  0.05883700  0.58452400  0.39326800  1
  O  O53  1  0.08452400  0.55883700  0.89326800  1
  O  O54  1  0.10816200  0.18718800  0.92987900  1
  O  O55  1  0.14098200  0.18034600  0.31151100  1
  O  O56  1  0.15595600  0.33753700  0.62019200  1
  O  O57  1  0.16246300  0.34404400  0.12019200  1
  O  O58  1  0.16386700  0.73376600  0.35318000  1
  O  O59  1  0.18034600  0.85901800  0.68848900  1
  O  O60  1  0.18718800  0.89183800  0.07012100  1
  O  O61  1  0.22743900  0.50502100  0.66841100  1
  O  O62  1  0.23376600  0.66386700  0.85318000  1
  O  O63  1  0.24583300  0.51233700  0.07632800  1
  O  O64  1  0.25416700  0.01233700  0.42367200  1
  O  O65  1  0.26623400  0.16386700  0.64682000  1
  O  O66  1  0.27256100  0.00502100  0.83158900  1
  O  O67  1  0.31281200  0.39183800  0.42987900  1
  O  O68  1  0.31965400  0.35901800  0.81151100  1
  O  O69  1  0.33613300  0.23376600  0.14682000  1
  O  O70  1  0.33753700  0.84404400  0.37980800  1
  O  O71  1  0.34404400  0.83753700  0.87980800  1
  O  O72  1  0.35901800  0.68034600  0.18848900  1
  O  O73  1  0.39183800  0.68718800  0.57012100  1
  O  O74  1  0.41547600  0.05883700  0.60673200  1
  O  O75  1  0.44116300  0.08452400  0.10673200  1
  O  O76  1  0.43724700  0.56366800  0.84879600  1
  O  O77  1  0.43633200  0.43724700  0.15120400  1
  O  O78  1  0.48766300  0.24583300  0.92367200  1
  O  O79  1  0.49497900  0.22743900  0.33158900  1
  O  O80  1  0.50502100  0.77256100  0.33158900  1
  O  O81  1  0.51233700  0.75416700  0.92367200  1
  O  O82  1  0.56366800  0.56275300  0.15120400  1
  O  O83  1  0.85901800  0.81965400  0.31151100  1
  O  O84  1  0.55883700  0.91547600  0.10673200  1
  O  O85  1  0.58452400  0.94116300  0.60673200  1
  O  O86  1  0.60816200  0.31281200  0.57012100  1
  O  O87  1  0.64098200  0.31965400  0.18848900  1
  O  O88  1  0.65595600  0.16246300  0.87980800  1
  O  O89  1  0.66246300  0.15595600  0.37980800  1
  O  O90  1  0.66386700  0.76623400  0.14682000  1
  O  O91  1  0.68034600  0.64098200  0.81151100  1
  O  O92  1  0.68718800  0.60816200  0.42987900  1
  O  O93  1  0.72743900  0.99497900  0.83158900  1
  O  O94  1  0.73376600  0.83613300  0.64682000  1
  O  O95  1  0.74583300  0.98766300  0.42367200  1
  O  O96  1  0.84404400  0.66246300  0.62019200  1
  O  O97  1  0.76623400  0.33613300  0.85318000  1
  O  O98  1  0.77256100  0.49497900  0.66841100  1
  O  O99  1  0.81281200  0.10816200  0.07012100  1
  O  O100  1  0.81965400  0.14098200  0.68848900  1
  O  O101  1  0.83613300  0.26623400  0.35318000  1
  O  O102  1  0.83753700  0.65595600  0.12019200  1
  O  O103  1  0.75416700  0.48766300  0.07632800  1
