# generated using pymatgen
data_Ca2Fe2O5
_symmetry_space_group_name_H-M   'P 1'
_cell_length_a   5.41874890
_cell_length_b   5.58304769
_cell_length_c   14.71208948
_cell_angle_alpha   90.00048390
_cell_angle_beta   90.00281206
_cell_angle_gamma   89.99994979
_symmetry_Int_Tables_number   1
_chemical_formula_structural   Ca2Fe2O5
_chemical_formula_sum   'Ca8 Fe8 O20'
_cell_volume   445.08680725
_cell_formula_units_Z   4
loop_
 _symmetry_equiv_pos_site_id
 _symmetry_equiv_pos_as_xyz
  1  'x, y, z'
loop_
 _atom_site_type_symbol
 _atom_site_label
 _atom_site_symmetry_multiplicity
 _atom_site_fract_x
 _atom_site_fract_y
 _atom_site_fract_z
 _atom_site_occupancy
  Ca  Ca0  1  0.52299265  0.97823817  0.89189489  1
  Ca  Ca1  1  0.02295772  0.52177051  0.60809269  1
  Ca  Ca2  1  0.97701163  0.47823604  0.10810502  1
  Ca  Ca3  1  0.47703567  0.02177066  0.39190561  1
  Ca  Ca4  1  0.47701678  0.02176389  0.10810464  1
  Ca  Ca5  1  0.97703407  0.47823106  0.39190622  1
  Ca  Ca6  1  0.02299166  0.52176297  0.89189479  1
  Ca  Ca7  1  0.52295888  0.97822843  0.60809352  1
  Fe  Fe8  1  0.49999452  0.49999851  0.50000054  1
  Fe  Fe9  1  0.50000227  0.50000021  0.00000065  1
  Fe  Fe10  1  0.05386527  0.06541973  0.74996694  1
  Fe  Fe11  1  0.94613377  0.93458069  0.25003283  1
  Fe  Fe12  1  0.00000312  -0.00000085  0.00000031  1
  Fe  Fe13  1  -0.00000627  -0.00000034  0.50000107  1
  Fe  Fe14  1  0.55386467  0.43457992  0.74996806  1
  Fe  Fe15  1  0.44613116  0.56542122  0.25003115  1
  O  O16  1  0.60086298  0.87207636  0.25000097  1
  O  O17  1  0.10085780  0.62792336  0.25000067  1
  O  O18  1  0.89914348  0.37207625  0.74999919  1
  O  O19  1  0.39914844  0.12792767  0.74999860  1
  O  O20  1  0.97412065  0.92714170  0.64034167  1
  O  O21  1  0.47409401  0.57293966  0.85967181  1
  O  O22  1  0.52588005  0.42714319  0.35966054  1
  O  O23  1  0.02590965  0.07294567  0.14032627  1
  O  O24  1  0.02587625  0.07285589  0.35965716  1
  O  O25  1  0.52591080  0.42705930  0.14032731  1
  O  O26  1  0.47411907  0.57285658  0.64034296  1
  O  O27  1  0.97409405  0.92705370  0.85967548  1
  O  O28  1  0.73358754  0.76608232  0.48341144  1
  O  O29  1  0.23360732  0.73392898  0.01659798  1
  O  O30  1  0.76641186  0.26607857  0.51659192  1
  O  O31  1  0.26640623  0.23393655  0.98340293  1
  O  O32  1  0.73359967  0.76606451  0.01659649  1
  O  O33  1  0.23357735  0.73392241  0.48340992  1
  O  O34  1  0.76639642  0.26607104  0.98340255  1
  O  O35  1  0.26640981  0.23391345  0.51658920  1
