# generated using pymatgen
data_ScTaSi(SO6)2
_symmetry_space_group_name_H-M   'P 1'
_cell_length_a   8.89060658
_cell_length_b   8.91364441
_cell_length_c   22.91544562
_cell_angle_alpha   90.00326423
_cell_angle_beta   90.00000000
_cell_angle_gamma   119.91454027
_symmetry_Int_Tables_number   1
_chemical_formula_structural   ScTaSi(SO6)2
_chemical_formula_sum   'Sc6 Ta6 Si6 S12 O72'
_cell_volume   1574.05166768
_cell_formula_units_Z   6
loop_
 _symmetry_equiv_pos_site_id
 _symmetry_equiv_pos_as_xyz
  1  'x, y, z'
loop_
 _atom_site_type_symbol
 _atom_site_label
 _atom_site_symmetry_multiplicity
 _atom_site_fract_x
 _atom_site_fract_y
 _atom_site_fract_z
 _atom_site_occupancy
  Sc  Sc0  1  0.98997977  0.00955304  0.35693087  1
  Sc  Sc1  1  0.01957327  0.00955304  0.85693087  1
  Sc  Sc2  1  0.67009732  0.33670880  0.68958725  1
  Sc  Sc3  1  0.66661247  0.33670880  0.18958725  1
  Sc  Sc4  1  0.32826052  0.66626107  0.02354358  1
  Sc  Sc5  1  0.33799954  0.66626107  0.52354358  1
  Ta  Ta6  1  0.00677964  0.01591271  0.64340413  1
  Ta  Ta7  1  0.00913307  0.01591271  0.14340413  1
  Ta  Ta8  1  0.65348467  0.32788657  0.97639013  1
  Ta  Ta9  1  0.67440290  0.32788657  0.47639013  1
  Ta  Ta10  1  0.33675017  0.67068806  0.31004692  1
  Ta  Ta11  1  0.33393690  0.67068806  0.81004692  1
  Si  Si12  1  0.99837692  0.29119984  0.25116053  1
  Si  Si13  1  0.29282292  0.29119984  0.75116053  1
  Si  Si14  1  0.95701298  0.34003855  0.58497878  1
  Si  Si15  1  0.38302658  0.34003855  0.08497878  1
  Si  Si16  1  0.33119971  0.94877463  0.91817180  1
  Si  Si17  1  0.61757393  0.94877463  0.41817180  1
  S  S18  1  0.28309290  0.99583621  0.25062990  1
  S  S19  1  0.71339565  0.71489998  0.25058130  1
  S  S20  1  0.00150432  0.71489998  0.75058130  1
  S  S21  1  0.71274331  0.99583621  0.75062990  1
  S  S22  1  0.37887377  0.04843715  0.58333225  1
  S  S23  1  0.67203694  0.62246720  0.58396130  1
  S  S24  1  0.95043126  0.62246720  0.08396130  1
  S  S25  1  0.66956439  0.04843715  0.08333225  1
  S  S26  1  0.61943757  0.66615951  0.91652089  1
  S  S27  1  0.04450926  0.38270426  0.91695742  1
  S  S28  1  0.33819400  0.38270426  0.41695742  1
  S  S29  1  0.04672094  0.66615951  0.41652089  1
  O  O30  1  0.20356510  0.01836301  0.30237861  1
  O  O31  1  0.81860104  0.79174988  0.30233607  1
  O  O32  1  0.97728425  0.17163368  0.30547870  1
  O  O33  1  0.19434943  0.17163368  0.80547870  1
  O  O34  1  0.97314884  0.79174988  0.80233607  1
  O  O35  1  0.81479791  0.01836301  0.80237861  1
  O  O36  1  0.79294749  0.96171798  0.69742449  1
  O  O37  1  0.15904533  0.19003576  0.69270063  1
  O  O38  1  0.03366662  0.82433182  0.69773735  1
  O  O39  1  0.79066521  0.82433182  0.19773735  1
  O  O40  1  0.03099042  0.19003576  0.19270063  1
  O  O41  1  0.16877049  0.96171798  0.19742449  1
  O  O42  1  0.86003931  0.35591781  0.64050381  1
  O  O43  1  0.48276497  0.12726743  0.63499123  1
  O  O44  1  0.64204760  0.51448709  0.63546344  1
  O  O45  1  0.87244049  0.51448709  0.13546344  1
  O  O46  1  0.64450347  0.12726743  0.13499123  1
  O  O47  1  0.49587950  0.35591781  0.14050381  1
  O  O48  1  0.47974218  0.30486070  0.02634830  1
  O  O49  1  0.84068035  0.54078275  0.03079699  1
  O  O50  1  0.70732714  0.16352039  0.03047985  1
  O  O51  1  0.45619424  0.16352039  0.53047985  1
  O  O52  1  0.70010340  0.54078275  0.53079699  1
  O  O53  1  0.82511951  0.30486070  0.52634830  1
  O  O54  1  0.53947331  0.68835244  0.96832160  1
  O  O55  1  0.15326998  0.45762264  0.96830723  1
  O  O56  1  0.31550510  0.83736827  0.97401405  1
  O  O57  1  0.52186216  0.83736827  0.47401405  1
  O  O58  1  0.30435166  0.45762264  0.46830723  1
  O  O59  1  0.14887814  0.68835244  0.46832160  1
  O  O60  1  0.12465859  0.62799185  0.36363342  1
  O  O61  1  0.49072171  0.85551363  0.35977353  1
  O  O62  1  0.36695497  0.49592734  0.36392990  1
  O  O63  1  0.12897137  0.49592734  0.86392990  1
  O  O64  1  0.36479092  0.85551363  0.85977353  1
  O  O65  1  0.50333226  0.62799185  0.86363342  1
  O  O66  1  0.02434102  0.81343336  0.40541263  1
  O  O67  1  0.80741408  0.97840370  0.40858399  1
  O  O68  1  0.19597163  0.20841191  0.40706822  1
  O  O69  1  0.01244028  0.20841191  0.90706822  1
  O  O70  1  0.17098962  0.97840370  0.90858399  1
  O  O71  1  0.78909234  0.81343336  0.90541263  1
  O  O72  1  0.96385387  0.15397520  0.59401963  1
  O  O73  1  0.19962311  0.02951151  0.59155251  1
  O  O74  1  0.83308073  0.79516664  0.59342482  1
  O  O75  1  0.96208590  0.79516664  0.09342482  1
  O  O76  1  0.82988840  0.02951151  0.09155251  1
  O  O77  1  0.19012133  0.15397520  0.09401963  1
  O  O78  1  0.68439575  0.14035951  0.74073089  1
  O  O79  1  0.47870017  0.31757892  0.73683764  1
  O  O80  1  0.85628750  0.54096040  0.74255188  1
  O  O81  1  0.68467390  0.54096040  0.24255188  1
  O  O82  1  0.83887975  0.31757892  0.23683764  1
  O  O83  1  0.45596476  0.14035951  0.24073089  1
  O  O84  1  0.63914913  0.50630563  0.92460231  1
  O  O85  1  0.87342096  0.37532166  0.92575766  1
  O  O86  1  0.51434648  0.14499277  0.92782748  1
  O  O87  1  0.63064729  0.14499277  0.42782748  1
  O  O88  1  0.50190170  0.37532166  0.42575766  1
  O  O89  1  0.86715751  0.50630563  0.42460231  1
  O  O90  1  0.34881999  0.49391317  0.07099208  1
  O  O91  1  0.12368007  0.64782662  0.07554697  1
  O  O92  1  0.52340075  0.87627095  0.07410387  1
  O  O93  1  0.35286920  0.87627095  0.57410387  1
  O  O94  1  0.52414554  0.64782662  0.57554697  1
  O  O95  1  0.14509218  0.49391317  0.57099208  1
  O  O96  1  0.29617049  0.83193238  0.25781044  1
  O  O97  1  0.53494599  0.69937231  0.25925425  1
  O  O98  1  0.17717604  0.48129130  0.26310646  1
  O  O99  1  0.30411426  0.48129130  0.76310646  1
  O  O100  1  0.16442533  0.69937231  0.75925425  1
  O  O101  1  0.53576089  0.83193238  0.75781044  1
