# generated using pymatgen
data_Na3Ca3ZrPS5O24
_symmetry_space_group_name_H-M   'P 1'
_cell_length_a   9.23355439
_cell_length_b   9.22050326
_cell_length_c   23.92094961
_cell_angle_alpha   89.91446042
_cell_angle_beta   90.04213996
_cell_angle_gamma   120.37260708
_symmetry_Int_Tables_number   1
_chemical_formula_structural   Na3Ca3ZrPS5O24
_chemical_formula_sum   'Na9 Ca9 Zr3 P3 S15 O72'
_cell_volume   1757.07058425
_cell_formula_units_Z   3
loop_
 _symmetry_equiv_pos_site_id
 _symmetry_equiv_pos_as_xyz
  1  'x, y, z'
loop_
 _atom_site_type_symbol
 _atom_site_label
 _atom_site_symmetry_multiplicity
 _atom_site_fract_x
 _atom_site_fract_y
 _atom_site_fract_z
 _atom_site_occupancy
  Na  Na0  1  0.36070202  0.35942523  0.25247192  1
  Na  Na1  1  0.03058891  0.69942768  0.58504283  1
  Na  Na2  1  0.29721856  0.96205110  0.07564959  1
  Na  Na3  1  0.98543810  0.00095664  0.50141754  1
  Na  Na4  1  0.00058768  0.01431135  0.98848832  1
  Na  Na5  1  0.66458676  0.32591949  0.82690698  1
  Na  Na6  1  0.68383583  0.33019956  0.33215311  1
  Na  Na7  1  0.33170835  0.66561764  0.17001441  1
  Na  Na8  1  0.36827373  0.66317106  0.66567940  1
  Ca  Ca9  1  0.99375405  0.99253569  0.35125723  1
  Ca  Ca10  1  0.00458672  0.00361646  0.85097714  1
  Ca  Ca11  1  0.99254513  0.00415076  0.65172240  1
  Ca  Ca12  1  0.98613449  0.99515530  0.14774031  1
  Ca  Ca13  1  0.66019241  0.33236282  0.68605167  1
  Ca  Ca14  1  0.68031654  0.33831093  0.18446453  1
  Ca  Ca15  1  0.33035365  0.65730140  0.01488820  1
  Ca  Ca16  1  0.34627985  0.66554676  0.51641161  1
  Ca  Ca17  1  0.33434348  0.67764806  0.32104535  1
  Zr  Zr18  1  0.67152886  0.33131265  0.97472146  1
  Zr  Zr19  1  0.66207964  0.33798573  0.48432927  1
  Zr  Zr20  1  0.32417524  0.66807510  0.82091883  1
  P  P21  1  0.67194425  0.63168423  0.58409617  1
  P  P22  1  0.03400929  0.36925105  0.91823592  1
  P  P23  1  0.33452561  0.96352321  0.92148416  1
  S  S24  1  0.29793464  0.00028784  0.24709216  1
  S  S25  1  0.69160608  0.69428246  0.25028966  1
  S  S26  1  0.00615646  0.30162174  0.25100043  1
  S  S27  1  0.30091232  0.31124817  0.75291365  1
  S  S28  1  0.00773030  0.69981970  0.75073338  1
  S  S29  1  0.68996828  0.99134091  0.75340253  1
  S  S30  1  0.95595355  0.33333958  0.58145754  1
  S  S31  1  0.36834948  0.03747040  0.58187052  1
  S  S32  1  0.96165818  0.62960526  0.08036359  1
  S  S33  1  0.66640715  0.04393742  0.08014431  1
  S  S34  1  0.37846087  0.33140974  0.08295257  1
  S  S35  1  0.62574665  0.66032424  0.91720116  1
  S  S36  1  0.63814667  0.97984966  0.41869380  1
  S  S37  1  0.33800063  0.36179343  0.41596376  1
  S  S38  1  0.02562811  0.66071477  0.42120319  1
  O  O39  1  0.20701877  0.01533908  0.29580659  1
  O  O40  1  0.78862022  0.77875464  0.30093494  1
  O  O41  1  0.99188110  0.20300582  0.30152911  1
  O  O42  1  0.21634315  0.20764329  0.80161572  1
  O  O43  1  0.98922995  0.78899064  0.79797509  1
  O  O44  1  0.79397919  0.01038583  0.80180034  1
  O  O45  1  0.75923250  0.96607250  0.70072015  1
  O  O46  1  0.20501367  0.24015749  0.70048308  1
  O  O47  1  0.03335395  0.79058851  0.69686263  1
  O  O48  1  0.77441929  0.78910634  0.19902905  1
  O  O49  1  0.02093529  0.21864692  0.19988401  1
  O  O50  1  0.20703588  0.98601318  0.19402878  1
  O  O51  1  0.87571901  0.34707985  0.63236720  1
  O  O52  1  0.46520292  0.11465857  0.63252089  1
  O  O53  1  0.66254957  0.53288965  0.63612826  1
  O  O54  1  0.88162479  0.53883204  0.13195770  1
  O  O55  1  0.65140570  0.12468623  0.13117285  1
  O  O56  1  0.46543212  0.34292219  0.13618409  1
  O  O57  1  0.47853824  0.32247722  0.03430611  1
  O  O58  1  0.85940505  0.53346321  0.03045606  1
  O  O59  1  0.67672273  0.14932054  0.02987530  1
  O  O60  1  0.46446295  0.14045701  0.53110614  1
  O  O61  1  0.67654931  0.52306263  0.53103540  1
  O  O62  1  0.84880148  0.31889405  0.53099396  1
  O  O63  1  0.55351215  0.68203910  0.96851424  1
  O  O64  1  0.13286857  0.44705380  0.97094594  1
  O  O65  1  0.32064223  0.87520143  0.97683597  1
  O  O66  1  0.55270222  0.87643266  0.46800707  1
  O  O67  1  0.32044136  0.45066441  0.46405843  1
  O  O68  1  0.12162142  0.67738581  0.47261701  1
  O  O69  1  0.10271404  0.63663595  0.37088065  1
  O  O70  1  0.54142525  0.90766225  0.36686386  1
  O  O71  1  0.36486905  0.45546140  0.36294886  1
  O  O72  1  0.12830345  0.48649915  0.86606078  1
  O  O73  1  0.35839187  0.86547657  0.87081402  1
  O  O74  1  0.51642361  0.63676926  0.86742495  1
  O  O75  1  0.00121474  0.80670378  0.41608375  1
  O  O76  1  0.80886210  0.00356358  0.41512312  1
  O  O77  1  0.19192719  0.19003755  0.41312171  1
  O  O78  1  -0.00245021  0.19071940  0.91027288  1
  O  O79  1  0.18681478  0.98972151  0.91203848  1
  O  O80  1  0.79599481  0.80195594  0.90948692  1
  O  O81  1  0.97636169  0.18452517  0.58137118  1
  O  O82  1  0.20220357  0.02668916  0.58207004  1
  O  O83  1  0.84212582  0.79970241  0.58034229  1
  O  O84  1  0.97916524  0.79998312  0.07952637  1
  O  O85  1  0.81749345  0.02838695  0.08009265  1
  O  O86  1  0.21344163  0.16956807  0.08154376  1
  O  O87  1  0.66517990  0.13796745  0.74918581  1
  O  O88  1  0.47211474  0.33522485  0.74937694  1
  O  O89  1  0.86328638  0.52617477  0.74825643  1
  O  O90  1  0.66791821  0.52087401  0.24868180  1
  O  O91  1  0.85891013  0.32530892  0.24850230  1
  O  O92  1  0.46537073  0.15979312  0.24637600  1
  O  O93  1  0.63465166  0.49998464  0.92190515  1
  O  O94  1  0.85869596  0.36606882  0.92229220  1
  O  O95  1  0.50398068  0.14352195  0.92366341  1
  O  O96  1  0.65443250  0.15115484  0.42554404  1
  O  O97  1  0.49391313  0.34638621  0.42444912  1
  O  O98  1  0.85235487  0.50286099  0.42608967  1
  O  O99  1  0.35524767  0.47733533  0.07856033  1
  O  O100  1  0.13438949  0.65471509  0.07848631  1
  O  O101  1  0.51048906  0.87718524  0.07666690  1
  O  O102  1  0.33890135  0.86395920  0.57639105  1
  O  O103  1  0.51904680  0.65402137  0.57926231  1
  O  O104  1  0.12009756  0.49172250  0.57570171  1
  O  O105  1  0.32030676  0.85246340  0.25194744  1
  O  O106  1  0.51867633  0.67124989  0.25264143  1
  O  O107  1  0.16545092  0.46915151  0.25381348  1
  O  O108  1  0.31897313  0.48427440  0.76055362  1
  O  O109  1  0.16590165  0.68752330  0.75994796  1
  O  O110  1  0.51742900  0.83417312  0.76110160  1
