# generated using pymatgen
data_Na7CaY3(PO4)6
_symmetry_space_group_name_H-M   'P 1'
_cell_length_a   9.38367770
_cell_length_b   9.37058578
_cell_length_c   23.43459497
_cell_angle_alpha   89.68604322
_cell_angle_beta   90.02452501
_cell_angle_gamma   120.05370152
_symmetry_Int_Tables_number   1
_chemical_formula_structural   Na7CaY3(PO4)6
_chemical_formula_sum   'Na21 Ca3 Y9 P18 O72'
_cell_volume   1783.54703427
_cell_formula_units_Z   3
loop_
 _symmetry_equiv_pos_site_id
 _symmetry_equiv_pos_as_xyz
  1  'x, y, z'
loop_
 _atom_site_type_symbol
 _atom_site_label
 _atom_site_symmetry_multiplicity
 _atom_site_fract_x
 _atom_site_fract_y
 _atom_site_fract_z
 _atom_site_occupancy
  Na  Na0  1  0.64015411  0.00964329  0.24451922  1
  Na  Na1  1  0.37001760  0.35859145  0.24507069  1
  Na  Na2  1  0.98912286  0.63101256  0.24316114  1
  Na  Na3  1  0.63688263  0.62838158  0.74554961  1
  Na  Na4  1  0.98968789  0.36197857  0.74738140  1
  Na  Na5  1  0.37397532  0.00954376  0.74640377  1
  Na  Na6  1  0.02716124  0.69448117  0.58471642  1
  Na  Na7  1  0.66534287  0.97219046  0.58413719  1
  Na  Na8  1  0.30839004  0.97401145  0.08441566  1
  Na  Na9  1  0.66628756  0.69286655  0.08473079  1
  Na  Na10  1  0.69606171  0.03095152  0.92049313  1
  Na  Na11  1  0.33410132  0.30205138  0.91942208  1
  Na  Na12  1  0.96846910  0.29360736  0.41207246  1
  Na  Na13  1  0.32396099  0.02980634  0.41311823  1
  Na  Na14  1  0.70788875  0.67705017  0.41236006  1
  Na  Na15  1  0.01255736  0.01243549  0.49939310  1
  Na  Na16  1  -0.00000719  0.99959521  0.00358452  1
  Na  Na17  1  0.67970699  0.34652908  0.83406419  1
  Na  Na18  1  0.66680636  0.33336322  0.32594055  1
  Na  Na19  1  0.31836713  0.65206094  0.16312882  1
  Na  Na20  1  0.33345357  0.65252436  0.66350398  1
  Ca  Ca21  1  0.99957623  0.99907497  0.34739111  1
  Ca  Ca22  1  0.66054041  0.33213621  0.67967588  1
  Ca  Ca23  1  0.67191872  0.33302264  0.17783166  1
  Y  Y24  1  0.99950228  0.99049590  0.85103068  1
  Y  Y25  1  0.00851693  0.00878187  0.64977627  1
  Y  Y26  1  0.00022903  0.00967960  0.15120518  1
  Y  Y27  1  0.68057861  0.34261471  0.98581217  1
  Y  Y28  1  0.66156603  0.33384079  0.48708108  1
  Y  Y29  1  0.31981836  0.65845639  0.01505250  1
  Y  Y30  1  0.33348059  0.65862481  0.51658859  1
  Y  Y31  1  0.33386035  0.66777172  0.31814109  1
  Y  Y32  1  0.32877841  0.66763612  0.81925737  1
  P  P33  1  0.30305401  0.99928262  0.25085661  1
  P  P34  1  0.69507824  0.69633529  0.25126077  1
  P  P35  1  0.00108619  0.30569800  0.25405279  1
  P  P36  1  0.29924862  0.30203307  0.75347281  1
  P  P37  1  0.00189030  0.70012182  0.74785434  1
  P  P38  1  0.70007763  0.99759467  0.75070002  1
  P  P39  1  0.96625167  0.33335425  0.58401053  1
  P  P40  1  0.35995029  0.02209744  0.58338598  1
  P  P41  1  0.67151693  0.64480480  0.58462658  1
  P  P42  1  0.97349999  0.64574519  0.08682702  1
  P  P43  1  0.66193884  0.02225710  0.08226340  1
  P  P44  1  0.36728682  0.33343379  0.08262476  1
  P  P45  1  0.62886283  0.66486954  0.91707141  1
  P  P46  1  0.02865074  0.35845950  0.91339161  1
  P  P47  1  0.33943239  0.97543584  0.91728942  1
  P  P48  1  0.63368226  0.97002523  0.41811580  1
  P  P49  1  0.33537761  0.36519068  0.41533676  1
  P  P50  1  0.03115685  0.66396059  0.41849319  1
  O  O51  1  0.22466355  0.01922110  0.30552718  1
  O  O52  1  0.79338932  0.77468389  0.30591922  1
  O  O53  1  0.97992475  0.21143463  0.31009958  1
  O  O54  1  0.21698417  0.20100023  0.80800823  1
  O  O55  1  0.98351826  0.79231849  0.79888423  1
  O  O56  1  0.80498567  0.01442197  0.80383484  1
  O  O57  1  0.78383008  0.97708036  0.69666543  1
  O  O58  1  0.18855482  0.21349531  0.70167314  1
  O  O59  1  0.02390666  0.80077555  0.69264594  1
  O  O60  1  0.78440490  0.80593766  0.19820570  1
  O  O61  1  0.02322574  0.21278669  0.20338185  1
  O  O62  1  0.19492066  0.98039295  0.19780618  1
  O  O63  1  0.88814106  0.35631270  0.63856592  1
  O  O64  1  0.46127084  0.10110095  0.63779265  1
  O  O65  1  0.65140136  0.54720494  0.63998130  1
  O  O66  1  0.90400389  0.55419466  0.14362631  1
  O  O67  1  0.63948812  0.10007851  0.13688756  1
  O  O68  1  0.46793908  0.35793237  0.13744718  1
  O  O69  1  0.45601568  0.31348980  0.02973511  1
  O  O70  1  0.85900007  0.55057502  0.03651965  1
  O  O71  1  0.68067179  0.12825318  0.02877074  1
  O  O72  1  0.44680056  0.12680116  0.52952773  1
  O  O73  1  0.68882989  0.55509321  0.53159133  1
  O  O74  1  0.85824777  0.31327325  0.53084565  1
  O  O75  1  0.54185799  0.68567251  0.96979940  1
  O  O76  1  0.14237116  0.45103198  0.96387428  1
  O  O77  1  0.32102263  0.87022467  0.97051036  1
  O  O78  1  0.54475431  0.86384072  0.47087571  1
  O  O79  1  0.31625612  0.45783333  0.46575513  1
  O  O80  1  0.13638949  0.68101334  0.47128242  1
  O  O81  1  0.11534206  0.64292393  0.36439361  1
  O  O82  1  0.52901593  0.88579435  0.36391719  1
  O  O83  1  0.35810013  0.46596441  0.35967730  1
  O  O84  1  0.10473099  0.45563710  0.85725195  1
  O  O85  1  0.35662886  0.88985559  0.86296938  1
  O  O86  1  0.52435813  0.64374031  0.86277605  1
  O  O87  1  0.01354954  0.81961637  0.41550580  1
  O  O88  1  0.80667040  0.98748003  0.41552940  1
  O  O89  1  0.18149586  0.19068044  0.41448779  1
  O  O90  1  0.01487978  0.18551373  0.91259462  1
  O  O91  1  0.19029101  0.00379386  0.91416531  1
  O  O92  1  0.79882941  0.82499806  0.91314927  1
  O  O93  1  0.97543628  0.17220038  0.58636396  1
  O  O94  1  0.18263197  0.99552970  0.58549896  1
  O  O95  1  0.83271844  0.81719381  0.58571552  1
  O  O96  1  0.98570036  0.81867460  0.08690175  1
  O  O97  1  0.81231217  0.99435773  0.08528557  1
  O  O98  1  0.19692754  0.17191014  0.08585185  1
  O  O99  1  0.68108825  0.15299822  0.74790105  1
  O  O100  1  0.47256893  0.31960698  0.74881776  1
  O  O101  1  0.84723201  0.52522172  0.74702875  1
  O  O102  1  0.67216034  0.52056062  0.24648106  1
  O  O103  1  0.84704256  0.32527402  0.24704770  1
  O  O104  1  0.47902477  0.15214473  0.24590043  1
  O  O105  1  0.64036799  0.50571708  0.92149626  1
  O  O106  1  0.85224709  0.33131919  0.91954130  1
  O  O107  1  0.50003338  0.14724327  0.92042872  1
  O  O108  1  0.64879025  0.14368419  0.42135688  1
  O  O109  1  0.49422586  0.35177939  0.42076794  1
  O  O110  1  0.85702327  0.50596999  0.42193152  1
  O  O111  1  0.35247311  0.49090567  0.07638157  1
  O  O112  1  0.15152206  0.67628813  0.07920279  1
  O  O113  1  0.50346143  0.84812919  0.07735603  1
  O  O114  1  0.34433956  0.84847454  0.57908158  1
  O  O115  1  0.52451270  0.67637601  0.57954566  1
  O  O116  1  0.13768835  0.49060432  0.57838391  1
  O  O117  1  0.31662929  0.83889130  0.25281700  1
  O  O118  1  0.52144913  0.68313240  0.25295640  1
  O  O119  1  0.15995594  0.48065879  0.25390714  1
  O  O120  1  0.31712379  0.47738132  0.75499920  1
  O  O121  1  0.16097166  0.68643531  0.75322455  1
  O  O122  1  0.52551568  0.83901995  0.75439216  1
