# generated using pymatgen
data_MoP2O7
_symmetry_space_group_name_H-M   'P 1'
_cell_length_a   8.31923605
_cell_length_b   7.20334903
_cell_length_c   9.53431400
_cell_angle_alpha   70.26676583
_cell_angle_beta   90.00000000
_cell_angle_gamma   90.00000000
_symmetry_Int_Tables_number   1
_chemical_formula_structural   MoP2O7
_chemical_formula_sum   'Mo4 P8 O28'
_cell_volume   537.80373488
_cell_formula_units_Z   4
loop_
 _symmetry_equiv_pos_site_id
 _symmetry_equiv_pos_as_xyz
  1  'x, y, z'
loop_
 _atom_site_type_symbol
 _atom_site_label
 _atom_site_symmetry_multiplicity
 _atom_site_fract_x
 _atom_site_fract_y
 _atom_site_fract_z
 _atom_site_occupancy
  Mo  Mo0  1  0.00585858  0.27520969  0.75215009  1
  Mo  Mo1  1  0.99414142  0.72479031  0.24784991  1
  Mo  Mo2  1  0.49414142  0.27520969  0.25215009  1
  Mo  Mo3  1  0.50585858  0.72479031  0.74784991  1
  P  P4  1  0.29731365  0.67613946  0.05017933  1
  P  P5  1  0.70268635  0.32386054  0.94982067  1
  P  P6  1  0.20268635  0.67613946  0.55017933  1
  P  P7  1  0.26113500  0.07504112  0.55400493  1
  P  P8  1  0.79731365  0.32386054  0.44982067  1
  P  P9  1  0.76113500  0.92495888  0.94599507  1
  P  P10  1  0.23886500  0.07504112  0.05400493  1
  P  P11  1  0.73886500  0.92495888  0.44599507  1
  O  O12  1  0.14691932  0.19926248  0.60399438  1
  O  O13  1  0.31719719  0.18550525  0.39609575  1
  O  O14  1  0.41487839  0.54646288  0.16404667  1
  O  O15  1  0.40220971  0.99353220  0.65852432  1
  O  O16  1  0.15772359  0.89302130  0.54475838  1
  O  O17  1  0.68280281  0.81449475  0.60390425  1
  O  O18  1  0.91487839  0.45353712  0.33595333  1
  O  O19  1  0.34227641  0.89302130  0.04475838  1
  O  O20  1  0.58512161  0.45353712  0.83595333  1
  O  O21  1  0.64691932  0.80073752  0.89600562  1
  O  O22  1  0.18280281  0.18550525  0.89609575  1
  O  O23  1  0.67647898  0.33381716  0.10470428  1
  O  O24  1  0.37534810  0.63715784  0.59807417  1
  O  O25  1  0.81719719  0.81449475  0.10390425  1
  O  O26  1  0.90220971  0.00646780  0.84147568  1
  O  O27  1  0.85308068  0.80073752  0.39600562  1
  O  O28  1  0.65772359  0.10697870  0.95524162  1
  O  O29  1  0.08512161  0.54646288  0.66404667  1
  O  O30  1  0.84227641  0.10697870  0.45524162  1
  O  O31  1  0.17647898  0.66618284  0.39529572  1
  O  O32  1  0.87534810  0.36284216  0.90192583  1
  O  O33  1  0.09779029  0.99353220  0.15852432  1
  O  O34  1  0.62465190  0.36284216  0.40192583  1
  O  O35  1  0.12465190  0.63715784  0.09807417  1
  O  O36  1  0.35308068  0.19926248  0.10399438  1
  O  O37  1  0.59779029  0.00646780  0.34147568  1
  O  O38  1  0.82352102  0.33381716  0.60470428  1
  O  O39  1  0.32352102  0.66618284  0.89529572  1
