# generated using pymatgen
data_MgFe2Mo2(ClO4)2
_symmetry_space_group_name_H-M   'P 1'
_cell_length_a   7.09046533
_cell_length_b   6.83747381
_cell_length_c   5.81905150
_cell_angle_alpha   89.94687025
_cell_angle_beta   90.25806456
_cell_angle_gamma   90.02641422
_symmetry_Int_Tables_number   1
_chemical_formula_structural   MgFe2Mo2(ClO4)2
_chemical_formula_sum   'Mg1 Fe2 Mo2 Cl2 O8'
_cell_volume   282.10967307
_cell_formula_units_Z   1
loop_
 _symmetry_equiv_pos_site_id
 _symmetry_equiv_pos_as_xyz
  1  'x, y, z'
loop_
 _atom_site_type_symbol
 _atom_site_label
 _atom_site_symmetry_multiplicity
 _atom_site_fract_x
 _atom_site_fract_y
 _atom_site_fract_z
 _atom_site_occupancy
  Mg  Mg0  1  0.91709700  0.24983800  0.59234700  1
  Fe  Fe1  1  0.75448700  0.75004900  0.75732600  1
  Fe  Fe2  1  0.24074800  0.24979600  0.22442400  1
  Mo  Mo3  1  0.24937800  0.74994800  0.98279300  1
  Mo  Mo4  1  0.74928100  0.24972700  0.03238400  1
  Cl  Cl5  1  0.24187300  0.24989300  0.65265900  1
  Cl  Cl6  1  0.74802600  0.75148200  0.34266000  1
  O  O7  1  0.92741300  0.25042500  0.25963300  1
  O  O8  1  0.78946100  0.44243000  0.82254100  1
  O  O9  1  0.78973500  0.05719500  0.82285700  1
  O  O10  1  0.52695300  0.24934700  0.15723500  1
  O  O11  1  0.47060400  0.75025000  0.83178000  1
  O  O12  1  0.23268800  0.96570700  0.15772300  1
  O  O13  1  0.04936500  0.74983700  0.79301200  1
  O  O14  1  0.23289200  0.53407700  0.15812700  1
