# generated using pymatgen
data_LaNbSi(SO6)2
_symmetry_space_group_name_H-M   'P 1'
_cell_length_a   9.36107644
_cell_length_b   9.37339380
_cell_length_c   23.23320534
_cell_angle_alpha   90.06776001
_cell_angle_beta   90.00000000
_cell_angle_gamma   119.95654019
_symmetry_Int_Tables_number   1
_chemical_formula_structural   LaNbSi(SO6)2
_chemical_formula_sum   'La6 Nb6 Si6 S12 O72'
_cell_volume   1766.24943896
_cell_formula_units_Z   6
loop_
 _symmetry_equiv_pos_site_id
 _symmetry_equiv_pos_as_xyz
  1  'x, y, z'
loop_
 _atom_site_type_symbol
 _atom_site_label
 _atom_site_symmetry_multiplicity
 _atom_site_fract_x
 _atom_site_fract_y
 _atom_site_fract_z
 _atom_site_occupancy
  La  La0  1  0.99516633  0.01080412  0.36679897  1
  La  La1  1  0.01563779  0.01080412  0.86679897  1
  La  La2  1  0.66641449  0.33354786  0.69964659  1
  La  La3  1  0.66713436  0.33354786  0.19964659  1
  La  La4  1  0.32823054  0.66720079  0.03329158  1
  La  La5  1  0.33896926  0.66720079  0.53329158  1
  Nb  Nb6  1  0.00554545  0.01941964  0.64272303  1
  Nb  Nb7  1  0.01387419  0.01941964  0.14272303  1
  Nb  Nb8  1  0.65274342  0.32931112  0.97588127  1
  Nb  Nb9  1  0.67656871  0.32931112  0.47588127  1
  Nb  Nb10  1  0.33908013  0.67165493  0.31021101  1
  Nb  Nb11  1  0.33257380  0.67165493  0.81021101  1
  Si  Si12  1  0.03125971  0.30043534  0.25031743  1
  Si  Si13  1  0.26917562  0.30043534  0.75031743  1
  Si  Si14  1  0.93502716  0.31120113  0.58339108  1
  Si  Si15  1  0.37617497  0.31120113  0.08339108  1
  Si  Si16  1  0.36317580  0.95860087  0.91718424  1
  Si  Si17  1  0.59542407  0.95860087  0.41718424  1
  S  S18  1  0.26583253  0.96346149  0.25013224  1
  S  S19  1  0.69981405  0.73105372  0.25052948  1
  S  S20  1  0.03123966  0.73105372  0.75052948  1
  S  S21  1  0.69762895  0.96346149  0.75013224  1
  S  S22  1  0.36355100  0.06548744  0.58200252  1
  S  S23  1  0.70662539  0.63666796  0.58365534  1
  S  S24  1  0.93004357  0.63666796  0.08365534  1
  S  S25  1  0.70193744  0.06548744  0.08200252  1
  S  S26  1  0.60184264  0.63651334  0.91527270  1
  S  S27  1  0.03111153  0.40417372  0.91475332  1
  S  S28  1  0.37306118  0.40417372  0.41475332  1
  S  S29  1  0.03466971  0.63651334  0.41527270  1
  O  O30  1  0.19944622  0.99254299  0.30199258  1
  O  O31  1  0.79689860  0.79564991  0.30214769  1
  O  O32  1  0.00181135  0.18345282  0.30312709  1
  O  O33  1  0.18164146  0.18345282  0.80312709  1
  O  O34  1  0.99875131  0.79564991  0.80214769  1
  O  O35  1  0.79309677  0.99254299  0.80199258  1
  O  O36  1  0.78155675  0.93953581  0.69855447  1
  O  O37  1  0.13916783  0.19062857  0.69282596  1
  O  O38  1  0.05616592  0.83503630  0.69891876  1
  O  O39  1  0.77887037  0.83503630  0.19891876  1
  O  O40  1  0.05146074  0.19062857  0.19282596  1
  O  O41  1  0.15797907  0.93953581  0.19855447  1
  O  O42  1  0.84941462  0.33072415  0.63868001  1
  O  O43  1  0.45999253  0.13048243  0.63431821  1
  O  O44  1  0.67010320  0.53397249  0.63468731  1
  O  O45  1  0.86387029  0.53397249  0.13468731  1
  O  O46  1  0.67049091  0.13048243  0.13431821  1
  O  O47  1  0.48131053  0.33072415  0.13868001  1
  O  O48  1  0.48148026  0.28997708  0.02636336  1
  O  O49  1  0.82755114  0.55315703  0.03177245  1
  O  O50  1  0.72900363  0.17501974  0.03142207  1
  O  O51  1  0.44601711  0.17501974  0.53142207  1
  O  O52  1  0.72560689  0.55315703  0.53177245  1
  O  O53  1  0.80849781  0.28997708  0.52636336  1
  O  O54  1  0.53589834  0.66429226  0.96785109  1
  O  O55  1  0.13646480  0.46584222  0.96580342  1
  O  O56  1  0.34573498  0.85770842  0.97370995  1
  O  O57  1  0.51197244  0.85770842  0.47370995  1
  O  O58  1  0.32937642  0.46584222  0.46580342  1
  O  O59  1  0.12839291  0.66429226  0.46785109  1
  O  O60  1  0.11696947  0.60777637  0.36465189  1
  O  O61  1  0.47163555  0.85601321  0.36086047  1
  O  O62  1  0.39391636  0.51363394  0.36380657  1
  O  O63  1  0.11971658  0.51363394  0.86380657  1
  O  O64  1  0.38437666  0.85601321  0.86086047  1
  O  O65  1  0.49080590  0.60777637  0.86465189  1
  O  O66  1  0.99799405  0.76695430  0.40387376  1
  O  O67  1  0.78087007  0.00602440  0.40627403  1
  O  O68  1  0.24845991  0.23508638  0.40294218  1
  O  O69  1  0.98662647  0.23508638  0.90294218  1
  O  O70  1  0.22515433  0.00602440  0.90627403  1
  O  O71  1  0.76896025  0.76695430  0.90387376  1
  O  O72  1  0.93835547  0.13052317  0.59452006  1
  O  O73  1  0.19598864  0.05764308  0.59068616  1
  O  O74  1  0.86353293  0.79788484  0.59407748  1
  O  O75  1  0.93435191  0.79788484  0.09407748  1
  O  O76  1  0.86165444  0.05764308  0.09068616  1
  O  O77  1  0.19216770  0.13052317  0.09452006  1
  O  O78  1  0.65567296  0.09145359  0.73990944  1
  O  O79  1  0.45045333  0.34279279  0.73424665  1
  O  O80  1  0.90422135  0.55982405  0.74163283  1
  O  O81  1  0.65560370  0.55982405  0.24163283  1
  O  O82  1  0.89234046  0.34279279  0.23424665  1
  O  O83  1  0.43578163  0.09145359  0.23990944  1
  O  O84  1  0.61180897  0.47742888  0.92310941  1
  O  O85  1  0.87409139  0.40829901  0.92539995  1
  O  O86  1  0.54069803  0.14790914  0.92888499  1
  O  O87  1  0.60721211  0.14790914  0.42888499  1
  O  O88  1  0.53420862  0.40829901  0.42539995  1
  O  O89  1  0.86562091  0.47742888  0.42310941  1
  O  O90  1  0.32446728  0.44337203  0.06822404  1
  O  O91  1  0.10147875  0.67516647  0.07443702  1
  O  O92  1  0.57338113  0.89627203  0.07211365  1
  O  O93  1  0.32288990  0.89627203  0.57211365  1
  O  O94  1  0.57368672  0.67516647  0.57443702  1
  O  O95  1  0.11890375  0.44337203  0.56822404  1
  O  O96  1  0.26938880  0.80142966  0.25786676  1
  O  O97  1  0.53303650  0.72638849  0.25959703  1
  O  O98  1  0.20369245  0.48056853  0.26492042  1
  O  O99  1  0.27687508  0.48056853  0.76492042  1
  O  O100  1  0.19335099  0.72638849  0.75959703  1
  O  O101  1  0.53203986  0.80142966  0.75786676  1
