# generated using pymatgen
data_MgTi2(SeO3)4
_symmetry_space_group_name_H-M   'P 1'
_cell_length_a   4.93960832
_cell_length_b   6.78821964
_cell_length_c   8.74023321
_cell_angle_alpha   89.87114031
_cell_angle_beta   87.10490539
_cell_angle_gamma   111.32052929
_symmetry_Int_Tables_number   1
_chemical_formula_structural   MgTi2(SeO3)4
_chemical_formula_sum   'Mg1 Ti2 Se4 O12'
_cell_volume   272.59724266
_cell_formula_units_Z   1
loop_
 _symmetry_equiv_pos_site_id
 _symmetry_equiv_pos_as_xyz
  1  'x, y, z'
loop_
 _atom_site_type_symbol
 _atom_site_label
 _atom_site_symmetry_multiplicity
 _atom_site_fract_x
 _atom_site_fract_y
 _atom_site_fract_z
 _atom_site_occupancy
  Mg  Mg0  1  0.04867979  0.53440182  0.14316744  1
  Ti  Ti1  1  0.03161691  0.51737455  0.51004776  1
  Ti  Ti2  1  0.48437431  0.02120088  0.99485962  1
  Se  Se3  1  0.68161079  0.84206471  0.31842124  1
  Se  Se4  1  0.77288095  0.67122260  0.84480210  1
  Se  Se5  1  0.31744295  0.17998965  0.63799360  1
  Se  Se6  1  0.38130231  0.29583648  0.22716958  1
  O  O7  1  0.71790090  0.90717763  0.84862568  1
  O  O8  1  0.81730218  0.63415160  0.32308488  1
  O  O9  1  0.18436466  0.05106058  0.13402710  1
  O  O10  1  0.23342243  0.41007757  0.64906147  1
  O  O11  1  0.07370556  0.71553929  0.95451508  1
  O  O12  1  0.39428518  0.76410033  0.45348888  1
  O  O13  1  0.08988334  0.36337008  0.33950367  1
  O  O14  1  0.38425521  0.16657964  0.82644685  1
  O  O15  1  0.94020220  0.69996365  0.66078084  1
  O  O16  1  0.48963848  0.77856999  0.15003150  1
  O  O17  1  0.66532783  0.28189750  0.55651620  1
  O  O18  1  0.75013700  0.24875445  0.06808152  1
