# generated using pymatgen
data_Na14Hf3Mg5(PO4)12
_symmetry_space_group_name_H-M   'P 1'
_cell_length_a   18.03094189
_cell_length_b   9.01495512
_cell_length_c   22.26876826
_cell_angle_alpha   90.12823064
_cell_angle_beta   89.89680468
_cell_angle_gamma   120.07275818
_symmetry_Int_Tables_number   1
_chemical_formula_structural   Na14Hf3Mg5(PO4)12
_chemical_formula_sum   'Na42 Hf9 Mg15 P36 O144'
_cell_volume   3132.48293789
_cell_formula_units_Z   3
loop_
 _symmetry_equiv_pos_site_id
 _symmetry_equiv_pos_as_xyz
  1  'x, y, z'
loop_
 _atom_site_type_symbol
 _atom_site_label
 _atom_site_symmetry_multiplicity
 _atom_site_fract_x
 _atom_site_fract_y
 _atom_site_fract_z
 _atom_site_occupancy
  Na  Na0  1  0.18459853  0.35968746  0.24649250  1
  Na  Na1  1  0.68519383  0.36080744  0.24708525  1
  Na  Na2  1  0.99391517  0.62950702  0.24756573  1
  Na  Na3  1  0.49417422  0.62886351  0.24632680  1
  Na  Na4  1  0.31961791  0.62920449  0.74644125  1
  Na  Na5  1  0.82020029  0.63108227  0.74680352  1
  Na  Na6  1  0.18507302  0.01255078  0.74650937  1
  Na  Na7  1  0.68542736  0.01144009  0.74590792  1
  Na  Na8  1  0.15589348  0.34378482  0.57776085  1
  Na  Na9  1  0.65616669  0.34427057  0.57762945  1
  Na  Na10  1  0.01529161  0.68687324  0.57822096  1
  Na  Na11  1  0.51530388  0.68656975  0.57812355  1
  Na  Na12  1  0.32761142  0.96824810  0.57765209  1
  Na  Na13  1  0.82782505  0.96797454  0.57811444  1
  Na  Na14  1  0.15644333  0.97101697  0.07824710  1
  Na  Na15  1  0.65344862  0.96343723  0.08088835  1
  Na  Na16  1  0.32777847  0.68640781  0.07809860  1
  Na  Na17  1  0.01908551  0.34529863  0.08055799  1
  Na  Na18  1  0.51557873  0.34541321  0.07749742  1
  Na  Na19  1  0.48100623  0.66538893  0.91871118  1
  Na  Na20  1  0.98815346  0.67941980  0.91355055  1
  Na  Na21  1  0.35125437  0.03626868  0.91836156  1
  Na  Na22  1  0.16737205  0.29427962  0.91868291  1
  Na  Na23  1  0.66180671  0.30051898  0.91386938  1
  Na  Na24  1  0.48212698  0.29772719  0.41836017  1
  Na  Na25  1  0.98209851  0.29753164  0.41826014  1
  Na  Na26  1  0.16662110  0.03642683  0.41850414  1
  Na  Na27  1  0.66675370  0.03644966  0.41860250  1
  Na  Na28  1  0.35141419  0.66571498  0.41858540  1
  Na  Na29  1  0.85156883  0.66599180  0.41829745  1
  Na  Na30  1  0.99989810  0.00028178  0.49396601  1
  Na  Na31  1  0.49993355  0.00037071  0.49384092  1
  Na  Na32  1  0.98838594  0.99163724  0.99346604  1
  Na  Na33  1  0.49869142  0.99898872  0.99428351  1
  Na  Na34  1  0.33962621  0.33380950  0.83167805  1
  Na  Na35  1  0.84136934  0.32473166  0.82683560  1
  Na  Na36  1  0.33281795  0.32009214  0.33173978  1
  Na  Na37  1  0.83321393  0.32062703  0.33203885  1
  Na  Na38  1  0.17250520  0.67852216  0.16234839  1
  Na  Na39  1  0.67832654  0.67842201  0.16006215  1
  Na  Na40  1  0.16070129  0.65607490  0.66159601  1
  Na  Na41  1  0.66124115  0.65677517  0.66178079  1
  Hf  Hf42  1  0.99964524  0.00292160  0.64963665  1
  Hf  Hf43  1  0.50004060  0.00286571  0.64968516  1
  Hf  Hf44  1  0.99570084  0.99493463  0.14831263  1
  Hf  Hf45  1  0.49881779  0.00018313  0.14947250  1
  Hf  Hf46  1  0.83349001  0.33095630  0.98139180  1
  Hf  Hf47  1  0.16874680  0.67168584  0.31498131  1
  Hf  Hf48  1  0.66889633  0.67201380  0.31511444  1
  Hf  Hf49  1  0.16429169  0.66288744  0.81498994  1
  Hf  Hf50  1  0.66569009  0.66464331  0.81552737  1
  Mg  Mg51  1  0.99907215  0.00068776  0.35007286  1
  Mg  Mg52  1  0.49925753  0.00093214  0.35017886  1
  Mg  Mg53  1  0.99709809  0.00280226  0.85118268  1
  Mg  Mg54  1  0.49899253  0.00072929  0.85003289  1
  Mg  Mg55  1  0.33678404  0.33406160  0.68337895  1
  Mg  Mg56  1  0.83692318  0.33424358  0.68288652  1
  Mg  Mg57  1  0.33273761  0.32630432  0.18338671  1
  Mg  Mg58  1  0.83289205  0.32787868  0.18485708  1
  Mg  Mg59  1  0.33316720  0.33246110  0.98390011  1
  Mg  Mg60  1  0.33373132  0.33334361  0.48357338  1
  Mg  Mg61  1  0.83377147  0.33343186  0.48355368  1
  Mg  Mg62  1  0.16717993  0.66756846  0.01640910  1
  Mg  Mg63  1  0.67040890  0.66782898  0.01744956  1
  Mg  Mg64  1  0.16662681  0.66678195  0.51604621  1
  Mg  Mg65  1  0.66671897  0.66684526  0.51606464  1
  P  P66  1  0.14744160  0.00235688  0.25132880  1
  P  P67  1  0.64828317  0.00290354  0.25225458  1
  P  P68  1  0.35260780  0.70283490  0.25201442  1
  P  P69  1  0.85276936  0.70307396  0.25304408  1
  P  P70  1  0.99806203  0.29347944  0.25236915  1
  P  P71  1  0.49811145  0.29464675  0.25279656  1
  P  P72  1  0.14832971  0.29427900  0.75235797  1
  P  P73  1  0.64873967  0.29555011  0.75238592  1
  P  P74  1  0.99861631  0.70367126  0.75231554  1
  P  P75  1  0.49892839  0.70347114  0.75235285  1
  P  P76  1  0.35264519  0.00392103  0.75297473  1
  P  P77  1  0.85317713  0.00411775  0.75181413  1
  P  P78  1  0.48033840  0.33538015  0.58222034  1
  P  P79  1  0.98047947  0.33546355  0.58205283  1
  P  P80  1  0.18651379  0.03881501  0.58402020  1
  P  P81  1  0.68655609  0.03887242  0.58395263  1
  P  P82  1  0.33245243  0.62601253  0.58413900  1
  P  P83  1  0.83252663  0.62597048  0.58406102  1
  P  P84  1  0.48036506  0.62627077  0.08382678  1
  P  P85  1  0.98109491  0.62791319  0.08499834  1
  P  P86  1  0.33244792  0.03941753  0.08211019  1
  P  P87  1  0.83150716  0.03853500  0.08512050  1
  P  P88  1  0.18643383  0.33404872  0.08413522  1
  P  P89  1  0.68707014  0.33790080  0.08608404  1
  P  P90  1  0.31476558  0.66708791  0.91836700  1
  P  P91  1  0.81489885  0.67009191  0.91770848  1
  P  P92  1  0.01994659  0.36986466  0.91995415  1
  P  P93  1  0.51854712  0.37025789  0.92010301  1
  P  P94  1  0.16643073  0.96310008  0.91853599  1
  P  P95  1  0.66535033  0.95985078  0.91847207  1
  P  P96  1  0.31535005  0.96297794  0.42002151  1
  P  P97  1  0.81544085  0.96326923  0.42013253  1
  P  P98  1  0.16640991  0.37036579  0.41832249  1
  P  P99  1  0.66636894  0.37021623  0.41839230  1
  P  P100  1  0.01881060  0.66782335  0.41841321  1
  P  P101  1  0.51871478  0.66769109  0.41838287  1
  O  O102  1  0.10433502  0.02401060  0.30705975  1
  O  O103  1  0.60449503  0.02421733  0.30747977  1
  O  O104  1  0.40730695  0.78913813  0.30718813  1
  O  O105  1  0.90591709  0.78520802  0.30915226  1
  O  O106  1  0.49017531  0.19142549  0.30855205  1
  O  O107  1  0.99016418  0.19140327  0.30855544  1
  O  O108  1  0.10536289  0.18446472  0.80747415  1
  O  O109  1  0.60576405  0.18646026  0.80765320  1
  O  O110  1  0.48793559  0.79016517  0.80773230  1
  O  O111  1  0.98841663  0.79044945  0.80792893  1
  O  O112  1  0.40391587  0.01954824  0.80883621  1
  O  O113  1  0.90756505  0.02064380  0.80534861  1
  O  O114  1  0.39561867  0.97328812  0.69610323  1
  O  O115  1  0.89310117  0.97193213  0.69327247  1
  O  O116  1  0.09297857  0.20853320  0.69481024  1
  O  O117  1  0.59330294  0.20865980  0.69499498  1
  O  O118  1  0.01355552  0.82117907  0.69572665  1
  O  O119  1  0.51421465  0.82130026  0.69573323  1
  O  O120  1  0.39599174  0.81400249  0.19451170  1
  O  O121  1  0.89773123  0.81813135  0.19723464  1
  O  O122  1  0.01282489  0.20702126  0.19550564  1
  O  O123  1  0.51359946  0.20872308  0.19568503  1
  O  O124  1  0.08849111  0.97105272  0.19480824  1
  O  O125  1  0.58976512  0.97276537  0.19539171  1
  O  O126  1  0.43697937  0.36236967  0.63617465  1
  O  O127  1  0.93721794  0.36249730  0.63609578  1
  O  O128  1  0.23970708  0.12153354  0.64049534  1
  O  O129  1  0.73960204  0.12173607  0.64042153  1
  O  O130  1  0.32021383  0.51955131  0.64058601  1
  O  O131  1  0.82018181  0.51951719  0.64056919  1
  O  O132  1  0.43874908  0.52014794  0.14023566  1
  O  O133  1  0.93849766  0.51889244  0.14057520  1
  O  O134  1  0.31903998  0.12618743  0.13607491  1
  O  O135  1  0.81903173  0.12536249  0.13926306  1
  O  O136  1  0.24032178  0.36005955  0.14046221  1
  O  O137  1  0.73807850  0.35322309  0.14233495  1
  O  O138  1  0.22453240  0.29873016  0.02742172  1
  O  O139  1  0.72956081  0.30614160  0.02914791  1
  O  O140  1  0.42488144  0.55048159  0.02720282  1
  O  O141  1  0.92587723  0.54081936  0.02748018  1
  O  O142  1  0.35144706  0.14619610  0.02418650  1
  O  O143  1  0.84823773  0.15695431  0.02865801  1
  O  O144  1  0.22480182  0.15027753  0.52740101  1
  O  O145  1  0.72471460  0.15017785  0.52734660  1
  O  O146  1  0.35058762  0.55066761  0.52747180  1
  O  O147  1  0.85033746  0.55013350  0.52745475  1
  O  O148  1  0.42679586  0.29699676  0.52431840  1
  O  O149  1  0.92682309  0.29716914  0.52425093  1
  O  O150  1  0.27230770  0.69239142  0.97365752  1
  O  O151  1  0.76849468  0.68601089  0.97157742  1
  O  O152  1  0.07200295  0.45328718  0.97634577  1
  O  O153  1  0.57273677  0.45173439  0.97617005  1
  O  O154  1  0.15288341  0.85098135  0.97332744  1
  O  O155  1  0.65326265  0.85117056  0.97400048  1
  O  O156  1  0.27454449  0.85495312  0.47599499  1
  O  O157  1  0.77451655  0.85505892  0.47604230  1
  O  O158  1  0.15386697  0.45555631  0.47356686  1
  O  O159  1  0.65375995  0.45538987  0.47363729  1
  O  O160  1  0.07433687  0.69384040  0.47340021  1
  O  O161  1  0.57427443  0.69402161  0.47342568  1
  O  O162  1  0.06469689  0.64501829  0.36101746  1
  O  O163  1  0.56466235  0.64490685  0.36107059  1
  O  O164  1  0.25554202  0.86621212  0.36463782  1
  O  O165  1  0.75561097  0.86650909  0.36473154  1
  O  O166  1  0.17755109  0.48524724  0.36128115  1
  O  O167  1  0.67743405  0.48499204  0.36134535  1
  O  O168  1  0.06487781  0.49136744  0.86475429  1
  O  O169  1  0.56794569  0.49044294  0.86499873  1
  O  O170  1  0.17752119  0.87041161  0.86123265  1
  O  O171  1  0.67817233  0.87467068  0.86089452  1
  O  O172  1  0.25703626  0.64444760  0.86145964  1
  O  O173  1  0.75914168  0.63824080  0.85924574  1
  O  O174  1  0.00959904  0.82886951  0.41168190  1
  O  O175  1  0.50926799  0.82847078  0.41155808  1
  O  O176  1  0.40485188  0.98114514  0.41186854  1
  O  O177  1  0.90495868  0.98164789  0.41201204  1
  O  O178  1  0.08591403  0.19029820  0.41160715  1
  O  O179  1  0.58584322  0.19018241  0.41172297  1
  O  O180  1  0.01195819  0.19390613  0.91135173  1
  O  O181  1  0.50920666  0.19107576  0.91171824  1
  O  O182  1  0.08658831  0.98322148  0.91149836  1
  O  O183  1  0.58591206  0.98198179  0.91198500  1
  O  O184  1  0.40469770  0.82801902  0.91161626  1
  O  O185  1  0.90664621  0.81927980  0.91140624  1
  O  O186  1  0.49045899  0.16991096  0.59039886  1
  O  O187  1  0.99084119  0.17029995  0.59004431  1
  O  O188  1  0.09349745  0.01843449  0.59007103  1
  O  O189  1  0.59351033  0.01850718  0.59004670  1
  O  O190  1  0.41526598  0.81245434  0.59062616  1
  O  O191  1  0.91553353  0.81199885  0.59032326  1
  O  O192  1  0.49048454  0.81252457  0.08993084  1
  O  O193  1  0.99181217  0.81198694  0.08808691  1
  O  O194  1  0.41534576  0.01935151  0.09007208  1
  O  O195  1  0.91649111  0.02977355  0.08898614  1
  O  O196  1  0.09356954  0.16898344  0.09080232  1
  O  O197  1  0.59572087  0.16584447  0.08838383  1
  O  O198  1  0.33670307  0.15437644  0.74541561  1
  O  O199  1  0.83663881  0.15375376  0.74468624  1
  O  O200  1  0.23877390  0.31735894  0.74539542  1
  O  O201  1  0.73889376  0.31730977  0.74554507  1
  O  O202  1  0.41900011  0.52664819  0.74422748  1
  O  O203  1  0.91891286  0.52663236  0.74432851  1
  O  O204  1  0.34143679  0.52243341  0.24512058  1
  O  O205  1  0.84168602  0.52275477  0.24523279  1
  O  O206  1  0.42280563  0.32598491  0.24517049  1
  O  O207  1  0.92318108  0.32688417  0.24535586  1
  O  O208  1  0.23593821  0.16165307  0.24358743  1
  O  O209  1  0.73670611  0.16254324  0.24482038  1
  O  O210  1  0.32157622  0.50202164  0.91990807  1
  O  O211  1  0.82033338  0.49885624  0.92154905  1
  O  O212  1  0.42963268  0.35778909  0.92058256  1
  O  O213  1  0.93060805  0.36153866  0.92207887  1
  O  O214  1  0.24965098  0.14125962  0.92022697  1
  O  O215  1  0.74639098  0.14472755  0.92193663  1
  O  O216  1  0.32155828  0.14084654  0.42081994  1
  O  O217  1  0.82156361  0.14102793  0.42088554  1
  O  O218  1  0.24894099  0.35680334  0.41996048  1
  O  O219  1  0.74886991  0.35664721  0.42001130  1
  O  O220  1  0.42943370  0.50227186  0.42012326  1
  O  O221  1  0.92952749  0.50240425  0.42008697  1
  O  O222  1  0.17363876  0.49132363  0.07868686  1
  O  O223  1  0.67036154  0.48722431  0.07908595  1
  O  O224  1  0.07175962  0.65121776  0.07872395  1
  O  O225  1  0.57220567  0.65397281  0.07866414  1
  O  O226  1  0.25464865  0.85498905  0.07746437  1
  O  O227  1  0.75256871  0.86079157  0.07657607  1
  O  O228  1  0.17286447  0.85539115  0.57873431  1
  O  O229  1  0.67283125  0.85537869  0.57874926  1
  O  O230  1  0.25417258  0.65241431  0.57877856  1
  O  O231  1  0.75422736  0.65249020  0.57878805  1
  O  O232  1  0.07257822  0.49099610  0.57736706  1
  O  O233  1  0.57248992  0.49079050  0.57746964  1
  O  O234  1  0.15194255  0.83229324  0.25461807  1
  O  O235  1  0.65236123  0.83274114  0.25501567  1
  O  O236  1  0.26083308  0.68221748  0.25465910  1
  O  O237  1  0.76078219  0.68158013  0.25515083  1
  O  O238  1  0.08387231  0.47552423  0.25430889  1
  O  O239  1  0.58375783  0.47609353  0.25473895  1
  O  O240  1  0.15874076  0.47806557  0.75529255  1
  O  O241  1  0.65904898  0.47915089  0.75509827  1
  O  O242  1  0.08368589  0.69500357  0.75484989  1
  O  O243  1  0.58400012  0.69526894  0.75543161  1
  O  O244  1  0.26178151  0.83254518  0.75477622  1
  O  O245  1  0.76210534  0.83324687  0.75496895  1
