# generated using pymatgen
data_NaZrTi(PO4)3
_symmetry_space_group_name_H-M   'P 1'
_cell_length_a   8.76096514
_cell_length_b   8.76096485
_cell_length_c   22.76961562
_cell_angle_alpha   90.00000000
_cell_angle_beta   90.00000000
_cell_angle_gamma   120.00000109
_symmetry_Int_Tables_number   1
_chemical_formula_structural   NaZrTi(PO4)3
_chemical_formula_sum   'Na6 Zr6 Ti6 P18 O72'
_cell_volume   1513.52715204
_cell_formula_units_Z   6
loop_
 _symmetry_equiv_pos_site_id
 _symmetry_equiv_pos_as_xyz
  1  'x, y, z'
loop_
 _atom_site_type_symbol
 _atom_site_label
 _atom_site_symmetry_multiplicity
 _atom_site_fract_x
 _atom_site_fract_y
 _atom_site_fract_z
 _atom_site_occupancy
  Na  Na0  1  -0.00000000  0.00000000  0.49773290  1
  Na  Na1  1  -0.00000000  0.00000000  0.99699360  1
  Na  Na2  1  0.66666700  0.33333300  0.83655923  1
  Na  Na3  1  0.66666700  0.33333300  0.33076933  1
  Na  Na4  1  0.33333300  0.66666700  0.16376495  1
  Na  Na5  1  0.33333300  0.66666700  0.66898263  1
  Zr  Zr6  1  -0.00000000  -0.00000000  0.64866073  1
  Zr  Zr7  1  -0.00000000  0.00000000  0.14297797  1
  Zr  Zr8  1  0.66666700  0.33333300  0.69037870  1
  Zr  Zr9  1  0.66666700  0.33333300  0.47864316  1
  Zr  Zr10  1  0.33333300  0.66666700  0.51850802  1
  Zr  Zr11  1  0.33333300  0.66666700  0.31118042  1
  Ti  Ti12  1  -0.00000000  0.00000000  0.35113797  1
  Ti  Ti13  1  -0.00000000  0.00000000  0.85447194  1
  Ti  Ti14  1  0.66666700  0.33333300  0.18578380  1
  Ti  Ti15  1  0.66666700  0.33333300  0.97954482  1
  Ti  Ti16  1  0.33333300  0.66666700  0.01833453  1
  Ti  Ti17  1  0.33333300  0.66666700  0.81634514  1
  P  P18  1  0.29326438  0.00976677  0.24977563  1
  P  P19  1  0.71650239  0.70673562  0.24977563  1
  P  P20  1  0.99023323  0.28349761  0.24977563  1
  P  P21  1  0.28492876  0.29334768  0.75498876  1
  P  P22  1  0.00841891  0.71507124  0.75498876  1
  P  P23  1  0.70665232  0.99158109  0.75498876  1
  P  P24  1  0.95905631  0.33388035  0.58394841  1
  P  P25  1  0.37482503  0.04094369  0.58394841  1
  P  P26  1  0.66611965  0.62517497  0.58394841  1
  P  P27  1  0.95259335  0.60973390  0.08139961  1
  P  P28  1  0.65714154  0.04740665  0.08139961  1
  P  P29  1  0.39026610  0.34285846  0.08139961  1
  P  P30  1  0.62022014  0.66684234  0.91728142  1
  P  P31  1  0.04662120  0.37977986  0.91728142  1
  P  P32  1  0.33315766  0.95337880  0.91728142  1
  P  P33  1  0.63545472  0.95940078  0.41476015  1
  P  P34  1  0.32394506  0.36454528  0.41476015  1
  P  P35  1  0.04059922  0.67605494  0.41476015  1
  O  O36  1  0.19943278  0.03023815  0.30430583  1
  O  O37  1  0.83080537  0.80056722  0.30430583  1
  O  O38  1  0.96976185  0.16919463  0.30430583  1
  O  O39  1  0.19063971  0.17119169  0.80769538  1
  O  O40  1  0.98055198  0.80936029  0.80769538  1
  O  O41  1  0.82880831  0.01944802  0.80769538  1
  O  O42  1  0.78592468  0.96551506  0.69821245  1
  O  O43  1  0.17959038  0.21407532  0.69821245  1
  O  O44  1  0.03448494  0.82040962  0.69821245  1
  O  O45  1  0.79624431  0.81927127  0.19465628  1
  O  O46  1  0.02302696  0.20375569  0.19465628  1
  O  O47  1  0.18072873  0.97697304  0.19465628  1
  O  O48  1  0.87129282  0.35716186  0.63914419  1
  O  O49  1  0.48587004  0.12870718  0.63914419  1
  O  O50  1  0.64283814  0.51412996  0.63914419  1
  O  O51  1  0.86409714  0.50055184  0.13759537  1
  O  O52  1  0.63645570  0.13590286  0.13759537  1
  O  O53  1  0.49944816  0.36354430  0.13759537  1
  O  O54  1  0.47716500  0.31382440  0.02673598  1
  O  O55  1  0.83666040  0.52283500  0.02673598  1
  O  O56  1  0.68617560  0.16333960  0.02673598  1
  O  O57  1  0.46065934  0.15163941  0.52871071  1
  O  O58  1  0.69098107  0.53934066  0.52871071  1
  O  O59  1  0.84836059  0.30901893  0.52871071  1
  O  O60  1  0.53094277  0.69535358  0.97181905  1
  O  O61  1  0.16440981  0.46905723  0.97181905  1
  O  O62  1  0.30464642  0.83559019  0.97181905  1
  O  O63  1  0.54881737  0.84795712  0.46993633  1
  O  O64  1  0.29913875  0.45118263  0.46993633  1
  O  O65  1  0.15204288  0.70086125  0.46993633  1
  O  O66  1  0.12703392  0.64320404  0.36125404  1
  O  O67  1  0.51616912  0.87296608  0.36125404  1
  O  O68  1  0.35679596  0.48383088  0.36125404  1
  O  O69  1  0.13491800  0.49697071  0.86276562  1
  O  O70  1  0.36205172  0.86508200  0.86276562  1
  O  O71  1  0.50302929  0.63794828  0.86276562  1
  O  O72  1  0.02357753  0.84104605  0.40623239  1
  O  O73  1  0.81746852  0.97642247  0.40623239  1
  O  O74  1  0.15895395  0.18253148  0.40623239  1
  O  O75  1  0.02722161  0.19512542  0.90937576  1
  O  O76  1  0.16790382  0.97277839  0.90937576  1
  O  O77  1  0.80487458  0.83209618  0.90937576  1
  O  O78  1  0.97715101  0.16932409  0.58907749  1
  O  O79  1  0.19217309  0.02284899  0.58907749  1
  O  O80  1  0.83067591  0.80782691  0.58907749  1
  O  O81  1  0.97168406  0.79483535  0.08635332  1
  O  O82  1  0.82315129  0.02831594  0.08635332  1
  O  O83  1  0.20516465  0.17684871  0.08635332  1
  O  O84  1  0.69064511  0.15873263  0.74921153  1
  O  O85  1  0.46808852  0.30935489  0.74921153  1
  O  O86  1  0.84126737  0.53191148  0.74921153  1
  O  O87  1  0.69866873  0.52349614  0.24164562  1
  O  O88  1  0.82482842  0.30133127  0.24164562  1
  O  O89  1  0.47650386  0.17517158  0.24164562  1
  O  O90  1  0.63991205  0.50192482  0.92505943  1
  O  O91  1  0.86201377  0.36008795  0.92505943  1
  O  O92  1  0.49807518  0.13798623  0.92505943  1
  O  O93  1  0.65281933  0.14226069  0.42051103  1
  O  O94  1  0.48944235  0.34718067  0.42051103  1
  O  O95  1  0.85773931  0.51055765  0.42051103  1
  O  O96  1  0.36866240  0.50633006  0.07427263  1
  O  O97  1  0.13766666  0.63133760  0.07427263  1
  O  O98  1  0.49366994  0.86233334  0.07427263  1
  O  O99  1  0.35689608  0.85814202  0.57882561  1
  O  O100  1  0.50124495  0.64310392  0.57882561  1
  O  O101  1  0.14185798  0.49875505  0.57882561  1
  O  O102  1  0.31430094  0.84500644  0.25506150  1
  O  O103  1  0.53070450  0.68569906  0.25506150  1
  O  O104  1  0.15499356  0.46929550  0.25506150  1
  O  O105  1  0.30639199  0.47787839  0.76246523  1
  O  O106  1  0.17148540  0.69360801  0.76246523  1
  O  O107  1  0.52212161  0.82851460  0.76246523  1
