# generated using pymatgen
data_BiClF8
_symmetry_space_group_name_H-M   'P 1'
_cell_length_a   5.08753128
_cell_length_b   5.67411913
_cell_length_c   10.51414887
_cell_angle_alpha   90.98409705
_cell_angle_beta   94.95000229
_cell_angle_gamma   93.13601182
_symmetry_Int_Tables_number   1
_chemical_formula_structural   BiClF8
_chemical_formula_sum   'Bi2 Cl2 F16'
_cell_volume   301.85669058
_cell_formula_units_Z   2
loop_
 _symmetry_equiv_pos_site_id
 _symmetry_equiv_pos_as_xyz
  1  'x, y, z'
loop_
 _atom_site_type_symbol
 _atom_site_label
 _atom_site_symmetry_multiplicity
 _atom_site_fract_x
 _atom_site_fract_y
 _atom_site_fract_z
 _atom_site_occupancy
  Bi  Bi0  1  -0.00000000  0.00000000  0.50000000  1
  Bi  Bi1  1  -0.00000000  0.00000000  -0.00000000  1
  Cl  Cl2  1  0.42255538  0.39546623  0.74992773  1
  Cl  Cl3  1  0.57744462  0.60453377  0.25007227  1
  F  F4  1  0.82688643  0.17043480  0.35309502  1
  F  F5  1  0.17311357  0.82956520  0.64690498  1
  F  F6  1  0.69877812  0.05677706  0.60551830  1
  F  F7  1  0.30122188  0.94322294  0.39448170  1
  F  F8  1  0.40563201  0.54900124  0.11730205  1
  F  F9  1  0.59436799  0.45099876  0.88269795  1
  F  F10  1  0.37460904  0.46806191  0.33480160  1
  F  F11  1  0.62539096  0.53193809  0.66519840  1
  F  F12  1  0.88510647  0.28939036  0.08646884  1
  F  F13  1  0.11489353  0.71060964  0.91353116  1
  F  F14  1  0.34908418  0.04272160  0.10446969  1
  F  F15  1  0.65091582  0.95727840  0.89553031  1
  F  F16  1  0.87299233  0.78809872  0.14464817  1
  F  F17  1  0.12700767  0.21190128  0.85535183  1
  F  F18  1  0.81698542  0.68094733  0.43005907  1
  F  F19  1  0.18301458  0.31905267  0.56994093  1
