# generated using pymatgen
data_Na2Sc4Ti4Si3(S3O16)3
_symmetry_space_group_name_H-M   'P 1'
_cell_length_a   17.53623622
_cell_length_b   8.75989787
_cell_length_c   22.80333086
_cell_angle_alpha   89.90397516
_cell_angle_beta   89.90677526
_cell_angle_gamma   120.05845952
_symmetry_Int_Tables_number   1
_chemical_formula_structural   Na2Sc4Ti4Si3(S3O16)3
_chemical_formula_sum   'Na6 Sc12 Ti12 Si9 S27 O144'
_cell_volume   3031.83695579
_cell_formula_units_Z   3
loop_
 _symmetry_equiv_pos_site_id
 _symmetry_equiv_pos_as_xyz
  1  'x, y, z'
loop_
 _atom_site_type_symbol
 _atom_site_label
 _atom_site_symmetry_multiplicity
 _atom_site_fract_x
 _atom_site_fract_y
 _atom_site_fract_z
 _atom_site_occupancy
  Na  Na0  1  0.99704792  0.00501749  0.50038548  1
  Na  Na1  1  0.49761074  0.98964947  0.00310865  1
  Na  Na2  1  0.32933719  0.32632708  0.83676259  1
  Na  Na3  1  0.83060336  0.33151730  0.83165499  1
  Na  Na4  1  0.33211667  0.33000696  0.33074997  1
  Na  Na5  1  0.82705307  0.32961304  0.33447704  1
  Sc  Sc6  1  0.00412608  0.00222381  0.35014165  1
  Sc  Sc7  1  0.50514618  0.00757262  0.85156076  1
  Sc  Sc8  1  0.99936133  0.00626574  0.64639164  1
  Sc  Sc9  1  0.50240008  0.99072927  0.14802071  1
  Sc  Sc10  1  0.33100261  0.33531265  0.98148347  1
  Sc  Sc11  1  0.83786887  0.34331351  0.98301013  1
  Sc  Sc12  1  0.33767385  0.33026302  0.48083119  1
  Sc  Sc13  1  0.83139088  0.32710073  0.48022611  1
  Sc  Sc14  1  0.16696802  0.67626527  0.30736125  1
  Sc  Sc15  1  0.66837333  0.66659824  0.31014646  1
  Sc  Sc16  1  0.16912009  0.67577554  0.81291690  1
  Sc  Sc17  1  0.66566759  0.65722801  0.80795690  1
  Ti  Ti18  1  0.51387390  0.01691642  0.35526961  1
  Ti  Ti19  1  0.00447414  0.99866967  0.85908541  1
  Ti  Ti20  1  0.50791093  0.02300830  0.64481598  1
  Ti  Ti21  1  0.00717383  0.99080468  0.14487171  1
  Ti  Ti22  1  0.33987994  0.33979281  0.68283273  1
  Ti  Ti23  1  0.83457947  0.33413307  0.68440533  1
  Ti  Ti24  1  0.33722998  0.33839442  0.18664839  1
  Ti  Ti25  1  0.83531216  0.33210521  0.18783027  1
  Ti  Ti26  1  0.16153684  0.68127762  0.02418249  1
  Ti  Ti27  1  0.66270619  0.66834505  0.02712912  1
  Ti  Ti28  1  0.16312667  0.65818075  0.52373314  1
  Ti  Ti29  1  0.66050095  0.64337502  0.51987857  1
  Si  Si30  1  0.14845403  0.00821561  0.24921683  1
  Si  Si31  1  0.64787140  0.00349693  0.24909237  1
  Si  Si32  1  0.64887684  0.28977624  0.74924993  1
  Si  Si33  1  0.48004697  0.33436504  0.58227973  1
  Si  Si34  1  0.97662400  0.33150796  0.58257437  1
  Si  Si35  1  0.47532981  0.62377484  0.08227624  1
  Si  Si36  1  0.97648364  0.62022400  0.08472164  1
  Si  Si37  1  0.16989000  0.95886556  0.91596411  1
  Si  Si38  1  0.66908447  0.37852939  0.41445910  1
  S  S39  1  0.35675632  0.70894483  0.25113125  1
  S  S40  1  0.85735671  0.71067259  0.24750329  1
  S  S41  1  0.99848231  0.28609547  0.24828195  1
  S  S42  1  0.49786862  0.28542773  0.24993274  1
  S  S43  1  0.14571757  0.28686709  0.75104883  1
  S  S44  1  0.99858812  0.71045643  0.75059277  1
  S  S45  1  0.49701963  0.70918927  0.74825294  1
  S  S46  1  0.35635409  0.00356849  0.74751437  1
  S  S47  1  0.85722021  0.00527367  0.75132027  1
  S  S48  1  0.18974169  0.04214106  0.58307359  1
  S  S49  1  0.68804455  0.04036247  0.58449154  1
  S  S50  1  0.33404290  0.62505837  0.58382946  1
  S  S51  1  0.83201399  0.62199624  0.58303393  1
  S  S52  1  0.33271365  0.04344428  0.08326468  1
  S  S53  1  0.83408225  0.04311274  0.08429794  1
  S  S54  1  0.18804338  0.33616772  0.08464876  1
  S  S55  1  0.68910045  0.33699930  0.08259442  1
  S  S56  1  0.31077588  0.66873060  0.91754931  1
  S  S57  1  0.81129773  0.66904184  0.91588145  1
  S  S58  1  0.02261785  0.37522214  0.91599784  1
  S  S59  1  0.52373786  0.38044798  0.91820031  1
  S  S60  1  0.66702961  0.95308898  0.91780534  1
  S  S61  1  0.31101941  0.95153272  0.41643965  1
  S  S62  1  0.81117364  0.95253964  0.41794749  1
  S  S63  1  0.16659835  0.37996467  0.41777984  1
  S  S64  1  0.02388654  0.66754771  0.41787954  1
  S  S65  1  0.52257732  0.66979211  0.41637445  1
  O  O66  1  0.10534538  0.04540754  0.30656671  1
  O  O67  1  0.59916115  0.03826025  0.30777418  1
  O  O68  1  0.41188475  0.78930683  0.30347395  1
  O  O69  1  0.91069420  0.78485119  0.30136451  1
  O  O70  1  0.48128762  0.17221209  0.30304048  1
  O  O71  1  0.98004492  0.17728435  0.30211187  1
  O  O72  1  0.10242201  0.17240849  0.80381246  1
  O  O73  1  0.60497001  0.16467535  0.80619846  1
  O  O74  1  0.47832827  0.77966010  0.80186512  1
  O  O75  1  0.98439469  0.79613279  0.80329447  1
  O  O76  1  0.40954330  0.03772455  0.80124531  1
  O  O77  1  0.91321412  0.03386669  0.80342358  1
  O  O78  1  0.39932530  0.97823361  0.69573513  1
  O  O79  1  0.89586754  0.97557543  0.69820553  1
  O  O80  1  0.09232892  0.20639918  0.69839654  1
  O  O81  1  0.58384764  0.18674592  0.69250350  1
  O  O82  1  0.01204846  0.81672917  0.69788632  1
  O  O83  1  0.50848811  0.81627000  0.69601778  1
  O  O84  1  0.39294104  0.81385681  0.19778383  1
  O  O85  1  0.90071676  0.82376799  0.19572358  1
  O  O86  1  0.00957227  0.20124834  0.19613455  1
  O  O87  1  0.50930771  0.20695712  0.19691138  1
  O  O88  1  0.08358943  0.98048378  0.19250448  1
  O  O89  1  0.58820584  0.97695796  0.19330754  1
  O  O90  1  0.42861485  0.36315678  0.64038102  1
  O  O91  1  0.92954541  0.36445275  0.64070904  1
  O  O92  1  0.24515840  0.12772942  0.63602534  1
  O  O93  1  0.74527969  0.12958699  0.63698044  1
  O  O94  1  0.31607310  0.50456201  0.63674375  1
  O  O95  1  0.81699896  0.51032368  0.63650414  1
  O  O96  1  0.42909821  0.49544946  0.14021268  1
  O  O97  1  0.92701070  0.49169233  0.14093716  1
  O  O98  1  0.31630528  0.12259757  0.13612055  1
  O  O99  1  0.81469685  0.12184890  0.13620810  1
  O  O100  1  0.24494358  0.36310792  0.13653793  1
  O  O101  1  0.74362400  0.36493258  0.13507063  1
  O  O102  1  0.22307052  0.29428944  0.03219242  1
  O  O103  1  0.72760513  0.30351751  0.02972071  1
  O  O104  1  0.41963231  0.53178279  0.02501873  1
  O  O105  1  0.91933633  0.54004692  0.02650217  1
  O  O106  1  0.34572380  0.14910714  0.03021045  1
  O  O107  1  0.84835649  0.15083162  0.03130740  1
  O  O108  1  0.22711498  0.15348796  0.53063910  1
  O  O109  1  0.72323110  0.15341475  0.53266454  1
  O  O110  1  0.34849684  0.54466971  0.53181063  1
  O  O111  1  0.84749202  0.54425117  0.53090541  1
  O  O112  1  0.41759300  0.29723339  0.52748192  1
  O  O113  1  0.91902990  0.30329144  0.52591941  1
  O  O114  1  0.26756519  0.68959198  0.97011708  1
  O  O115  1  0.77247897  0.69682958  0.96901885  1
  O  O116  1  0.07607938  0.45224404  0.96904742  1
  O  O117  1  0.58005013  0.46703524  0.97059769  1
  O  O118  1  0.15157777  0.83008144  0.97418814  1
  O  O119  1  0.65656044  0.84343487  0.97108417  1
  O  O120  1  0.26782862  0.84438753  0.47007380  1
  O  O121  1  0.76747082  0.84526332  0.47126701  1
  O  O122  1  0.15617858  0.46919627  0.47154525  1
  O  O123  1  0.65237412  0.47392463  0.47418971  1
  O  O124  1  0.08014124  0.69225050  0.47090944  1
  O  O125  1  0.57672002  0.69675763  0.47007622  1
  O  O126  1  0.06403578  0.64252025  0.36503995  1
  O  O127  1  0.56116412  0.63755564  0.36444938  1
  O  O128  1  0.25504356  0.87162019  0.36444769  1
  O  O129  1  0.75966137  0.87553037  0.36456997  1
  O  O130  1  0.17844332  0.48377386  0.36499062  1
  O  O131  1  0.68217969  0.49773415  0.35894855  1
  O  O132  1  0.06193770  0.48284493  0.86315843  1
  O  O133  1  0.56395139  0.48544832  0.86479200  1
  O  O134  1  0.18026419  0.86522666  0.85882808  1
  O  O135  1  0.67861535  0.87321734  0.86459173  1
  O  O136  1  0.25862530  0.64232746  0.86354923  1
  O  O137  1  0.75718634  0.64121383  0.86340766  1
  O  O138  1  0.01580288  0.82831745  0.41422802  1
  O  O139  1  0.51224663  0.82671172  0.40901922  1
  O  O140  1  0.39804548  0.96911013  0.40858457  1
  O  O141  1  0.90012125  0.97016845  0.41327162  1
  O  O142  1  0.08538219  0.20396942  0.41517992  1
  O  O143  1  0.57648010  0.18584107  0.40681390  1
  O  O144  1  0.01277552  0.19621279  0.90640030  1
  O  O145  1  0.51497121  0.20242957  0.91358532  1
  O  O146  1  0.07816337  0.97215278  0.90362818  1
  O  O147  1  0.58563568  0.96662979  0.91443235  1
  O  O148  1  0.39958896  0.82910830  0.91156490  1
  O  O149  1  0.90062122  0.82911741  0.90629954  1
  O  O150  1  0.48862217  0.16147858  0.59652880  1
  O  O151  1  0.99405232  0.16859243  0.59145413  1
  O  O152  1  0.10054061  0.01590033  0.59141043  1
  O  O153  1  0.59838034  0.01629354  0.59561087  1
  O  O154  1  0.41092280  0.79706224  0.59578161  1
  O  O155  1  0.91131753  0.79779306  0.59141728  1
  O  O156  1  0.49103302  0.81927766  0.08741564  1
  O  O157  1  0.98893925  0.81567210  0.09627867  1
  O  O158  1  0.41034884  0.02408979  0.09046947  1
  O  O159  1  0.91074127  0.02282864  0.09477177  1
  O  O160  1  0.09812810  0.18140586  0.09508267  1
  O  O161  1  0.59921461  0.18776812  0.08865903  1
  O  O162  1  0.34495478  0.16326155  0.73925462  1
  O  O163  1  0.84871911  0.16666551  0.74388574  1
  O  O164  1  0.23433484  0.30286791  0.74391280  1
  O  O165  1  0.74585525  0.30980111  0.73651399  1
  O  O166  1  0.41536536  0.52644819  0.74034633  1
  O  O167  1  0.91698069  0.53318025  0.74499844  1
  O  O168  1  0.34774442  0.52875378  0.24352413  1
  O  O169  1  0.84801884  0.53144269  0.24020302  1
  O  O170  1  0.41598178  0.30201815  0.24421957  1
  O  O171  1  0.91796329  0.30554593  0.24136018  1
  O  O172  1  0.24541718  0.18192163  0.23627330  1
  O  O173  1  0.74555313  0.18505500  0.23911764  1
  O  O174  1  0.32088046  0.51118107  0.92180643  1
  O  O175  1  0.82232735  0.51167357  0.92109007  1
  O  O176  1  0.43528109  0.35914547  0.92336118  1
  O  O177  1  0.93250378  0.34977409  0.92215520  1
  O  O178  1  0.25100273  0.15358825  0.92235722  1
  O  O179  1  0.74499629  0.13156829  0.92414908  1
  O  O180  1  0.31930990  0.13004646  0.42234428  1
  O  O181  1  0.82155755  0.13063519  0.42298630  1
  O  O182  1  0.24465343  0.35894508  0.42504435  1
  O  O183  1  0.75115210  0.34923032  0.42397443  1
  O  O184  1  0.43254735  0.51267449  0.42373119  1
  O  O185  1  0.93565485  0.51160776  0.42381838  1
  O  O186  1  0.18020878  0.49386364  0.07505189  1
  O  O187  1  0.68387155  0.50131855  0.07275478  1
  O  O188  1  0.07414119  0.63918203  0.07356624  1
  O  O189  1  0.57540156  0.64058702  0.07101018  1
  O  O190  1  0.25318819  0.86383911  0.07518418  1
  O  O191  1  0.75422757  0.86500304  0.07397865  1
  O  O192  1  0.18360911  0.86835910  0.57466961  1
  O  O193  1  0.68050873  0.86796584  0.57651820  1
  O  O194  1  0.25412632  0.64109840  0.57543894  1
  O  O195  1  0.75403558  0.64351319  0.57554509  1
  O  O196  1  0.07644726  0.51215463  0.57011050  1
  O  O197  1  0.57544567  0.51157352  0.57373599  1
  O  O198  1  0.15588507  0.83446387  0.25627101  1
  O  O199  1  0.66023011  0.83979689  0.26186340  1
  O  O200  1  0.26747661  0.68091844  0.25955312  1
  O  O201  1  0.77024771  0.69107642  0.25320340  1
  O  O202  1  0.07591369  0.46021767  0.25637684  1
  O  O203  1  0.57393789  0.46163200  0.25773329  1
  O  O204  1  0.15545778  0.46108386  0.75938463  1
  O  O205  1  0.65629593  0.47838179  0.75645193  1
  O  O206  1  0.07486867  0.68652188  0.75839785  1
  O  O207  1  0.57377766  0.68774576  0.75595684  1
  O  O208  1  0.26896953  0.84693891  0.75370469  1
  O  O209  1  0.76884007  0.85251922  0.75921076  1
