# generated using pymatgen
data_Na10Ta2In6Si7S5O48
_symmetry_space_group_name_H-M   'P 1'
_cell_length_a   18.28472008
_cell_length_b   9.10804222
_cell_length_c   22.82600211
_cell_angle_alpha   90.01182027
_cell_angle_beta   90.15687767
_cell_angle_gamma   119.86868508
_symmetry_Int_Tables_number   1
_chemical_formula_structural   Na10Ta2In6Si7S5O48
_chemical_formula_sum   'Na30 Ta6 In18 Si21 S15 O144'
_cell_volume   3296.43595692
_cell_formula_units_Z   3
loop_
 _symmetry_equiv_pos_site_id
 _symmetry_equiv_pos_as_xyz
  1  'x, y, z'
loop_
 _atom_site_type_symbol
 _atom_site_label
 _atom_site_symmetry_multiplicity
 _atom_site_fract_x
 _atom_site_fract_y
 _atom_site_fract_z
 _atom_site_occupancy
  Na  Na0  1  0.31572572  0.00156416  0.24345332  1
  Na  Na1  1  0.81703139  0.01382783  0.24513763  1
  Na  Na2  1  0.18737550  0.36510999  0.24523603  1
  Na  Na3  1  0.31772385  0.62053150  0.74561662  1
  Na  Na4  1  0.81483913  0.62880731  0.74310270  1
  Na  Na5  1  0.68623515  0.00834040  0.74610813  1
  Na  Na6  1  0.16565702  0.33996980  0.58560042  1
  Na  Na7  1  0.65786140  0.33617694  0.57727335  1
  Na  Na8  1  0.01241689  0.69558768  0.57089872  1
  Na  Na9  1  0.16148170  0.98654717  0.08287786  1
  Na  Na10  1  0.66469252  0.98895593  0.08471895  1
  Na  Na11  1  0.51188084  0.32882887  0.06974527  1
  Na  Na12  1  0.85017837  0.02038026  0.92160723  1
  Na  Na13  1  0.66371626  0.30658670  0.91883787  1
  Na  Na14  1  0.48538613  0.29459027  0.42254552  1
  Na  Na15  1  0.16574698  0.02328094  0.42007219  1
  Na  Na16  1  0.66654293  0.05552247  0.41456505  1
  Na  Na17  1  0.84970343  0.65540613  0.41500113  1
  Na  Na18  1  0.99733813  0.98928773  0.49748431  1
  Na  Na19  1  0.47983497  0.97124078  0.49398766  1
  Na  Na20  1  0.99239452  0.99029171  0.99611102  1
  Na  Na21  1  0.48550398  0.00350581  0.99398919  1
  Na  Na22  1  0.33694533  0.33292553  0.83077394  1
  Na  Na23  1  0.83941620  0.33931373  0.83103137  1
  Na  Na24  1  0.33360753  0.35348425  0.33167249  1
  Na  Na25  1  0.83626261  0.34271113  0.32963892  1
  Na  Na26  1  0.16844945  0.64813384  0.15953834  1
  Na  Na27  1  0.67855490  0.66883422  0.16178139  1
  Na  Na28  1  0.18032465  0.68962245  0.66212383  1
  Na  Na29  1  0.66820803  0.68793243  0.65923967  1
  Ta  Ta30  1  0.99880601  0.00708430  0.65207522  1
  Ta  Ta31  1  0.50446346  0.98963666  0.64661399  1
  Ta  Ta32  1  0.00493069  0.01967097  0.14653922  1
  Ta  Ta33  1  0.49799949  0.98846170  0.15138362  1
  Ta  Ta34  1  0.16416637  0.67665626  0.31055989  1
  Ta  Ta35  1  0.66264496  0.64894671  0.81065472  1
  In  In36  1  0.00299816  0.00346905  0.34796686  1
  In  In37  1  0.50061437  0.99503781  0.35038054  1
  In  In38  1  0.00145592  0.00829938  0.84928108  1
  In  In39  1  0.49851963  0.00317515  0.84946625  1
  In  In40  1  0.32879129  0.33461160  0.68461458  1
  In  In41  1  0.82569911  0.31598764  0.68125903  1
  In  In42  1  0.32649390  0.33350276  0.18098969  1
  In  In43  1  0.82916118  0.32399336  0.18411800  1
  In  In44  1  0.33439723  0.31942330  0.98109213  1
  In  In45  1  0.82928028  0.33602628  0.98766345  1
  In  In46  1  0.32539951  0.32762421  0.48786915  1
  In  In47  1  0.83351478  0.34693591  0.48282578  1
  In  In48  1  0.17214280  0.66644532  0.01958658  1
  In  In49  1  0.67742342  0.65400241  0.01641799  1
  In  In50  1  0.17818239  0.69980631  0.51679641  1
  In  In51  1  0.67047223  0.66651620  0.52028157  1
  In  In52  1  0.66315212  0.66399041  0.31207568  1
  In  In53  1  0.16345009  0.65465696  0.81338478  1
  Si  Si54  1  0.14675813  0.99921157  0.25020693  1
  Si  Si55  1  0.64826385  0.99502379  0.25500065  1
  Si  Si56  1  0.35290281  0.70060191  0.25360541  1
  Si  Si57  1  0.99804656  0.29524054  0.25290475  1
  Si  Si58  1  0.14872624  0.29797272  0.75368852  1
  Si  Si59  1  0.64530528  0.29085959  0.75062594  1
  Si  Si60  1  0.49797337  0.70252459  0.75365437  1
  Si  Si61  1  0.85183726  0.00451895  0.75559980  1
  Si  Si62  1  0.18132232  0.03193323  0.58608288  1
  Si  Si63  1  0.68289014  0.02772842  0.58141054  1
  Si  Si64  1  0.33305811  0.63339560  0.58437072  1
  Si  Si65  1  0.83702303  0.63694495  0.58702762  1
  Si  Si66  1  0.33678234  0.03862743  0.08698721  1
  Si  Si67  1  0.83345159  0.03244569  0.08176781  1
  Si  Si68  1  0.18478267  0.33444324  0.08226093  1
  Si  Si69  1  0.68199015  0.33039293  0.08628408  1
  Si  Si70  1  0.82001440  0.66823142  0.91263389  1
  Si  Si71  1  0.51619011  0.37111303  0.91783076  1
  Si  Si72  1  0.31693915  0.97290694  0.41315179  1
  Si  Si73  1  0.66571716  0.37530755  0.41628867  1
  Si  Si74  1  0.01854822  0.66416288  0.41736615  1
  S  S75  1  0.85580819  0.71057866  0.24842608  1
  S  S76  1  0.50179678  0.29543420  0.24671961  1
  S  S77  1  0.00253409  0.71009718  0.74793050  1
  S  S78  1  0.35395258  0.99902704  0.74854766  1
  S  S79  1  0.48046714  0.32421335  0.58521937  1
  S  S80  1  0.97911652  0.32471457  0.58380001  1
  S  S81  1  0.47982561  0.63373517  0.08388476  1
  S  S82  1  0.98227266  0.63858274  0.08489742  1
  S  S83  1  0.31644989  0.66696090  0.91535481  1
  S  S84  1  0.01734915  0.37614153  0.91857364  1
  S  S85  1  0.16518745  0.95237548  0.91585726  1
  S  S86  1  0.66626709  0.95311537  0.91612690  1
  S  S87  1  0.81666654  0.96475692  0.41544935  1
  S  S88  1  0.16602681  0.37892473  0.41590356  1
  S  S89  1  0.51747246  0.65964329  0.41858379  1
  O  O90  1  0.11158566  0.03842679  0.30956814  1
  O  O91  1  0.60943566  0.01032357  0.31657567  1
  O  O92  1  0.40626082  0.78642568  0.31112314  1
  O  O93  1  0.89591447  0.77688242  0.30683702  1
  O  O94  1  0.49134060  0.20276710  0.30135584  1
  O  O95  1  0.97178633  0.16411022  0.30705781  1
  O  O96  1  0.10601846  0.18924532  0.81146952  1
  O  O97  1  0.60941367  0.17871825  0.80907457  1
  O  O98  1  0.47359977  0.78369720  0.80764302  1
  O  O99  1  0.98746020  0.78287750  0.80039832  1
  O  O100  1  0.39714470  0.01890370  0.80514101  1
  O  O101  1  0.89974290  0.02713738  0.81679887  1
  O  O102  1  0.40163898  0.97782975  0.69923423  1
  O  O103  1  0.90536610  0.97617152  0.70099078  1
  O  O104  1  0.08583553  0.19275111  0.69571948  1
  O  O105  1  0.58584461  0.19153945  0.69297029  1
  O  O106  1  0.01050266  0.81838605  0.69500254  1
  O  O107  1  0.51468000  0.83325430  0.69533011  1
  O  O108  1  0.40179347  0.82811688  0.19649652  1
  O  O109  1  0.90792913  0.82912272  0.20088343  1
  O  O110  1  0.01438852  0.19635328  0.19499298  1
  O  O111  1  0.50699235  0.19560285  0.19550081  1
  O  O112  1  0.08720644  0.98186066  0.19284505  1
  O  O113  1  0.58315703  0.97831029  0.19897099  1
  O  O114  1  0.43692088  0.34320352  0.63519112  1
  O  O115  1  0.94200090  0.35622144  0.63645377  1
  O  O116  1  0.24684673  0.12635044  0.63770447  1
  O  O117  1  0.73242156  0.09875825  0.64290061  1
  O  O118  1  0.31602665  0.52597318  0.64448664  1
  O  O119  1  0.82673081  0.52449026  0.64487236  1
  O  O120  1  0.44221266  0.52734652  0.13643064  1
  O  O121  1  0.94426857  0.53478857  0.13665789  1
  O  O122  1  0.32101630  0.11583835  0.14700389  1
  O  O123  1  0.81757221  0.11370701  0.14019495  1
  O  O124  1  0.23102928  0.36294102  0.14527433  1
  O  O125  1  0.74774390  0.37087201  0.13829577  1
  O  O126  1  0.22920457  0.28599590  0.02998132  1
  O  O127  1  0.71330657  0.28482763  0.02433182  1
  O  O128  1  0.42869034  0.56565565  0.03125658  1
  O  O129  1  0.93309362  0.56776638  0.03047444  1
  O  O130  1  0.36828533  0.17289536  0.03290342  1
  O  O131  1  0.85285402  0.14836157  0.02223280  1
  O  O132  1  0.21031349  0.13887489  0.52373860  1
  O  O133  1  0.72491898  0.15386239  0.52561849  1
  O  O134  1  0.35539812  0.55304094  0.52796703  1
  O  O135  1  0.86452642  0.57294288  0.52814131  1
  O  O136  1  0.43584020  0.30296175  0.52854007  1
  O  O137  1  0.92784956  0.29269598  0.53130500  1
  O  O138  1  0.27345823  0.68945947  0.96635404  1
  O  O139  1  0.78327636  0.72050420  0.96840283  1
  O  O140  1  0.06660587  0.46821634  0.97044583  1
  O  O141  1  0.57049560  0.45234441  0.97768274  1
  O  O142  1  0.15955819  0.86022078  0.97117250  1
  O  O143  1  0.65849818  0.86103820  0.97051988  1
  O  O144  1  0.28093700  0.86712867  0.47221613  1
  O  O145  1  0.77379718  0.85418351  0.46595700  1
  O  O146  1  0.15931573  0.45633528  0.47034038  1
  O  O147  1  0.64899675  0.45051451  0.47708677  1
  O  O148  1  0.07273641  0.69577670  0.47717498  1
  O  O149  1  0.57137091  0.68047328  0.46966333  1
  O  O150  1  0.07644755  0.65865070  0.36091004  1
  O  O151  1  0.55524812  0.63909401  0.36364744  1
  O  O152  1  0.25372443  0.86422485  0.35543071  1
  O  O153  1  0.76834894  0.89382490  0.35995399  1
  O  O154  1  0.16952775  0.47788898  0.36270315  1
  O  O155  1  0.68313100  0.50391139  0.36101879  1
  O  O156  1  0.05597804  0.46847486  0.86327721  1
  O  O157  1  0.57594818  0.49503967  0.86138814  1
  O  O158  1  0.17051762  0.85971678  0.86339526  1
  O  O159  1  0.67120106  0.86011945  0.86342471  1
  O  O160  1  0.27029258  0.65444013  0.85932757  1
  O  O161  1  0.75582614  0.64751928  0.85462527  1
  O  O162  1  0.00760482  0.83533485  0.41154283  1
  O  O163  1  0.50868930  0.81262356  0.41736829  1
  O  O164  1  0.41305266  0.01245810  0.40626207  1
  O  O165  1  0.90038843  0.97308670  0.41323879  1
  O  O166  1  0.09093128  0.20365119  0.41374857  1
  O  O167  1  0.58277356  0.18559404  0.41209556  1
  O  O168  1  0.01002297  0.20519393  0.91899077  1
  O  O169  1  0.51250997  0.18621692  0.91233258  1
  O  O170  1  0.08808980  0.96657923  0.91358591  1
  O  O171  1  0.59376797  0.98373669  0.91281145  1
  O  O172  1  0.40176064  0.81977331  0.91467625  1
  O  O173  1  0.91449473  0.83243398  0.90737777  1
  O  O174  1  0.48985102  0.16895640  0.59158069  1
  O  O175  1  0.98733068  0.16735977  0.59283900  1
  O  O176  1  0.08737810  0.02449422  0.59767615  1
  O  O177  1  0.58882764  0.02338847  0.59057968  1
  O  O178  1  0.41504224  0.82873966  0.59592129  1
  O  O179  1  0.92053893  0.82877744  0.59745527  1
  O  O180  1  0.48904085  0.80818390  0.09342925  1
  O  O181  1  0.99123064  0.81217374  0.09194614  1
  O  O182  1  0.41987701  0.01153191  0.09658399  1
  O  O183  1  0.91574761  0.00250188  0.09508424  1
  O  O184  1  0.08921106  0.15263743  0.09030088  1
  O  O185  1  0.58845982  0.15036789  0.09804763  1
  O  O186  1  0.34323105  0.14660632  0.74124154  1
  O  O187  1  0.83669094  0.16362997  0.74619521  1
  O  O188  1  0.24357412  0.32680121  0.75011205  1
  O  O189  1  0.74234139  0.33033195  0.74584909  1
  O  O190  1  0.42143358  0.51413814  0.74299552  1
  O  O191  1  0.92884514  0.53968111  0.74069390  1
  O  O192  1  0.33654980  0.50985036  0.24588246  1
  O  O193  1  0.84580230  0.54321692  0.24207381  1
  O  O194  1  0.42624158  0.31312350  0.24012610  1
  O  O195  1  0.92110304  0.32921894  0.24221555  1
  O  O196  1  0.24305879  0.15454782  0.24590051  1
  O  O197  1  0.74261654  0.15839077  0.24956642  1
  O  O198  1  0.32156847  0.51054023  0.92006986  1
  O  O199  1  0.81533882  0.48302572  0.91793606  1
  O  O200  1  0.42480307  0.36050258  0.91604105  1
  O  O201  1  0.93052441  0.35277302  0.92034085  1
  O  O202  1  0.24235686  0.12102775  0.91586184  1
  O  O203  1  0.74655461  0.12048029  0.91489330  1
  O  O204  1  0.31781767  0.15754033  0.41655913  1
  O  O205  1  0.82535568  0.13394969  0.42235891  1
  O  O206  1  0.24333791  0.36243915  0.41431223  1
  O  O207  1  0.75093151  0.35688966  0.41835255  1
  O  O208  1  0.43419830  0.50130063  0.42322863  1
  O  O209  1  0.92551088  0.49646162  0.41671580  1
  O  O210  1  0.16261838  0.48455923  0.07589988  1
  O  O211  1  0.65621232  0.47768273  0.08387358  1
  O  O212  1  0.07077383  0.67262158  0.07926880  1
  O  O213  1  0.56655488  0.66485655  0.07830730  1
  O  O214  1  0.24801904  0.86130936  0.07802127  1
  O  O215  1  0.74482038  0.85164245  0.07642601  1
  O  O216  1  0.15563143  0.83316539  0.58460633  1
  O  O217  1  0.66146496  0.83401525  0.57533951  1
  O  O218  1  0.24430754  0.63595913  0.57707972  1
  O  O219  1  0.74893433  0.63907337  0.58233914  1
  O  O220  1  0.06590030  0.46697893  0.57765892  1
  O  O221  1  0.56811471  0.47045819  0.58393210  1
  O  O222  1  0.15157430  0.82017332  0.25388752  1
  O  O223  1  0.65796335  0.82250836  0.25007840  1
  O  O224  1  0.25808436  0.68881730  0.25708072  1
  O  O225  1  0.77344967  0.70872442  0.24598665  1
  O  O226  1  0.09007787  0.47038217  0.26098764  1
  O  O227  1  0.57997704  0.46172906  0.24488622  1
  O  O228  1  0.15640917  0.48801599  0.75012094  1
  O  O229  1  0.65065794  0.48013510  0.75473150  1
  O  O230  1  0.08216920  0.70432071  0.74959182  1
  O  O231  1  0.59006842  0.70985819  0.76153925  1
  O  O232  1  0.26996560  0.83759689  0.74909480  1
  O  O233  1  0.75763452  0.82642058  0.75651793  1
