# generated using pymatgen
data_Na9Ca2Nb4Si6(PO12)3
_symmetry_space_group_name_H-M   'P 1'
_cell_length_a   15.98903704
_cell_length_b   27.49135479
_cell_length_c   9.14337908
_cell_angle_alpha   90.25914812
_cell_angle_beta   125.24760426
_cell_angle_gamma   89.76813553
_symmetry_Int_Tables_number   1
_chemical_formula_structural   Na9Ca2Nb4Si6(PO12)3
_chemical_formula_sum   'Na36 Ca8 Nb16 Si24 P12 O144'
_cell_volume   3282.19494041
_cell_formula_units_Z   4
loop_
 _symmetry_equiv_pos_site_id
 _symmetry_equiv_pos_as_xyz
  1  'x, y, z'
loop_
 _atom_site_type_symbol
 _atom_site_label
 _atom_site_symmetry_multiplicity
 _atom_site_fract_x
 _atom_site_fract_y
 _atom_site_fract_z
 _atom_site_occupancy
  Na  Na0  1  0.25219121  0.24604183  0.01833589  1
  Na  Na1  1  0.24248290  0.59335979  0.00824289  1
  Na  Na2  1  0.25891932  0.91471500  0.01031364  1
  Na  Na3  1  0.74952028  0.25166351  0.50403423  1
  Na  Na4  1  0.74432867  0.58122527  0.50226124  1
  Na  Na5  1  0.74964431  0.91605128  0.51069272  1
  Na  Na6  1  0.74248290  0.09335979  0.00824289  1
  Na  Na7  1  0.75891932  0.41471500  0.01031364  1
  Na  Na8  1  0.75219121  0.74604183  0.01833589  1
  Na  Na9  1  0.24432867  0.08122527  0.50226124  1
  Na  Na10  1  0.24964431  0.41605128  0.51069272  1
  Na  Na11  1  0.24952028  0.75166351  0.50403423  1
  Na  Na12  1  0.48234524  0.02697118  0.71020088  1
  Na  Na13  1  0.49019183  0.36720732  0.74864755  1
  Na  Na14  1  0.48424682  0.69588531  0.72607597  1
  Na  Na15  1  0.49213697  0.29662142  0.25752507  1
  Na  Na16  1  0.49972122  0.62850347  0.26345297  1
  Na  Na17  1  0.50056829  0.95784907  0.27777770  1
  Na  Na18  1  0.98424682  0.19588531  0.72607597  1
  Na  Na19  1  0.98234524  0.52697118  0.71020088  1
  Na  Na20  1  0.99019183  0.86720732  0.74864755  1
  Na  Na21  1  0.99972122  0.12850347  0.26345297  1
  Na  Na22  1  0.00056829  0.45784907  0.27777770  1
  Na  Na23  1  0.99213697  0.79662142  0.25752507  1
  Na  Na24  1  0.81877736  0.98154372  0.20813673  1
  Na  Na25  1  0.20858797  0.30759933  0.30072391  1
  Na  Na26  1  0.19546118  0.97396049  0.27679598  1
  Na  Na27  1  0.19711057  0.35884361  0.78900636  1
  Na  Na28  1  0.82491836  0.02032957  0.72448863  1
  Na  Na29  1  0.81452683  0.69354250  0.68415362  1
  Na  Na30  1  0.31877736  0.48154372  0.20813673  1
  Na  Na31  1  0.69546118  0.47396049  0.27679598  1
  Na  Na32  1  0.70858797  0.80759933  0.30072391  1
  Na  Na33  1  0.69711057  0.85884361  0.78900636  1
  Na  Na34  1  0.31452683  0.19354250  0.68415362  1
  Na  Na35  1  0.32491836  0.52032957  0.72448863  1
  Ca  Ca36  1  0.89789959  0.91676348  0.94096801  1
  Ca  Ca37  1  0.89259915  0.08825630  0.43266992  1
  Ca  Ca38  1  0.89463557  0.41303185  0.44355223  1
  Ca  Ca39  1  0.90063223  0.74399183  0.43556304  1
  Ca  Ca40  1  0.39789959  0.41676348  0.94096801  1
  Ca  Ca41  1  0.40063223  0.24399183  0.43556304  1
  Ca  Ca42  1  0.39259915  0.58825630  0.43266992  1
  Ca  Ca43  1  0.39463557  0.91303185  0.44355223  1
  Nb  Nb44  1  0.10471488  0.24949963  0.57755525  1
  Nb  Nb45  1  0.10640221  0.58423911  0.56540691  1
  Nb  Nb46  1  0.10453714  0.91607744  0.56339407  1
  Nb  Nb47  1  0.89153814  0.25041250  0.93864964  1
  Nb  Nb48  1  0.89567639  0.58189312  0.94494827  1
  Nb  Nb49  1  0.10658689  0.08517050  0.05848636  1
  Nb  Nb50  1  0.10440003  0.41750987  0.05627279  1
  Nb  Nb51  1  0.10515193  0.74986821  0.05641558  1
  Nb  Nb52  1  0.60640221  0.08423911  0.56540691  1
  Nb  Nb53  1  0.60453714  0.41607744  0.56339407  1
  Nb  Nb54  1  0.60471488  0.74949963  0.57755525  1
  Nb  Nb55  1  0.39567639  0.08189312  0.94494827  1
  Nb  Nb56  1  0.39153814  0.75041250  0.93864964  1
  Nb  Nb57  1  0.60515193  0.24986821  0.05641558  1
  Nb  Nb58  1  0.60658689  0.58517050  0.05848636  1
  Nb  Nb59  1  0.60440003  0.91750987  0.05627279  1
  Si  Si60  1  0.99946878  0.31663477  0.75426004  1
  Si  Si61  1  0.49946878  0.81663477  0.75426004  1
  Si  Si62  1  0.34931605  0.29584789  0.75117878  1
  Si  Si63  1  0.35138461  0.63261904  0.76241636  1
  Si  Si64  1  0.34807235  0.96495924  0.74653031  1
  Si  Si65  1  0.64569826  0.30037102  0.73589284  1
  Si  Si66  1  0.64985287  0.63331340  0.74073948  1
  Si  Si67  1  0.64574397  0.97029418  0.73890991  1
  Si  Si68  1  0.64243961  0.03122440  0.24654300  1
  Si  Si69  1  0.63811085  0.69927699  0.24482543  1
  Si  Si70  1  0.35147299  0.03857180  0.25244635  1
  Si  Si71  1  0.34561607  0.37194680  0.24896036  1
  Si  Si72  1  0.35175245  0.70763473  0.25319125  1
  Si  Si73  1  0.85138461  0.13261904  0.76241636  1
  Si  Si74  1  0.84807235  0.46495924  0.74653031  1
  Si  Si75  1  0.84931605  0.79584789  0.75117878  1
  Si  Si76  1  0.14985287  0.13331340  0.74073948  1
  Si  Si77  1  0.14574397  0.47029418  0.73890991  1
  Si  Si78  1  0.14569826  0.80037102  0.73589284  1
  Si  Si79  1  0.13811085  0.19927699  0.24482543  1
  Si  Si80  1  0.14243961  0.53122440  0.24654300  1
  Si  Si81  1  0.85175245  0.20763473  0.25319125  1
  Si  Si82  1  0.85147299  0.53857180  0.25244635  1
  Si  Si83  1  0.84561607  0.87194680  0.24896036  1
  P  P84  1  0.00314118  0.64920666  0.75521454  1
  P  P85  1  0.00668553  0.98624704  0.74380530  1
  P  P86  1  0.00854494  0.01507353  0.24660728  1
  P  P87  1  0.00763604  0.34532833  0.25019369  1
  P  P88  1  0.00830523  0.67954202  0.24314075  1
  P  P89  1  0.50314118  0.14920666  0.75521454  1
  P  P90  1  0.50668553  0.48624704  0.74380530  1
  P  P91  1  0.50830523  0.17954202  0.24314075  1
  P  P92  1  0.50854494  0.51507353  0.24660728  1
  P  P93  1  0.50763604  0.84532833  0.25019369  1
  P  P94  1  0.63877233  0.36247577  0.24021813  1
  P  P95  1  0.13877233  0.86247577  0.24021813  1
  O  O96  1  0.14800432  0.19387767  0.75212616  1
  O  O97  1  0.14563320  0.53142324  0.74847823  1
  O  O98  1  0.14282725  0.86135708  0.74026229  1
  O  O99  1  0.83818829  0.19070342  0.79080610  1
  O  O100  1  0.84259420  0.52378982  0.79193521  1
  O  O101  1  0.83474401  0.85398717  0.74034918  1
  O  O102  1  0.84697476  0.14997309  0.22743778  1
  O  O103  1  0.83966679  0.48063053  0.22720464  1
  O  O104  1  0.83930354  0.81365759  0.25408237  1
  O  O105  1  0.14411541  0.13847718  0.23959987  1
  O  O106  1  0.13433741  0.47110484  0.24306374  1
  O  O107  1  0.15031029  0.80534354  0.25768800  1
  O  O108  1  0.64563320  0.03142324  0.74847823  1
  O  O109  1  0.64282725  0.36135708  0.74026229  1
  O  O110  1  0.64800432  0.69387767  0.75212616  1
  O  O111  1  0.34259420  0.02378982  0.79193521  1
  O  O112  1  0.33474401  0.35398717  0.74034918  1
  O  O113  1  0.33818829  0.69070342  0.79080610  1
  O  O114  1  0.33930354  0.31365759  0.25408237  1
  O  O115  1  0.34697476  0.64997309  0.22743778  1
  O  O116  1  0.33966679  0.98063053  0.22720464  1
  O  O117  1  0.65031029  0.30534354  0.25768800  1
  O  O118  1  0.64411541  0.63847718  0.23959987  1
  O  O119  1  0.63433741  0.97110484  0.24306374  1
  O  O120  1  0.42196917  0.17511353  0.58524517  1
  O  O121  1  0.43895496  0.51663664  0.57874700  1
  O  O122  1  0.42383728  0.84493837  0.57648408  1
  O  O123  1  0.56214061  0.18609492  0.91737064  1
  O  O124  1  0.56778354  0.52018207  0.91809734  1
  O  O125  1  0.57170427  0.85581430  0.93005213  1
  O  O126  1  0.56310740  0.14556377  0.41394553  1
  O  O127  1  0.56607719  0.47703250  0.40757737  1
  O  O128  1  0.56745852  0.81207273  0.42326694  1
  O  O129  1  0.45809302  0.14532291  0.07848870  1
  O  O130  1  0.44890401  0.48804429  0.07012155  1
  O  O131  1  0.46025797  0.81149383  0.08595500  1
  O  O132  1  0.93895496  0.01663664  0.57874700  1
  O  O133  1  0.92383728  0.34493837  0.57648408  1
  O  O134  1  0.92196917  0.67511353  0.58524517  1
  O  O135  1  0.06778354  0.02018207  0.91809734  1
  O  O136  1  0.07170427  0.35581430  0.93005213  1
  O  O137  1  0.06214061  0.68609492  0.91737064  1
  O  O138  1  0.06745852  0.31207273  0.42326694  1
  O  O139  1  0.06310740  0.64556377  0.41394553  1
  O  O140  1  0.06607719  0.97703250  0.40757737  1
  O  O141  1  0.96025797  0.31149383  0.08595500  1
  O  O142  1  0.95809302  0.64532291  0.07848870  1
  O  O143  1  0.94890401  0.98804429  0.07012155  1
  O  O144  1  0.25523298  0.26998635  0.75369058  1
  O  O145  1  0.25502129  0.60333225  0.74242628  1
  O  O146  1  0.25202219  0.93611676  0.72630319  1
  O  O147  1  0.75637260  0.28351347  0.77875400  1
  O  O148  1  0.76100937  0.61916796  0.77511692  1
  O  O149  1  0.74317702  0.95247103  0.74479481  1
  O  O150  1  0.73329552  0.04848704  0.23448981  1
  O  O151  1  0.72550146  0.38912785  0.25153555  1
  O  O152  1  0.72210363  0.72580037  0.23296451  1
  O  O153  1  0.25235947  0.06220200  0.24013648  1
  O  O154  1  0.25394268  0.39953275  0.25709692  1
  O  O155  1  0.25056668  0.73119164  0.23434489  1
  O  O156  1  0.75502129  0.10333225  0.74242628  1
  O  O157  1  0.75202219  0.43611676  0.72630319  1
  O  O158  1  0.75523298  0.76998635  0.75369058  1
  O  O159  1  0.26100937  0.11916796  0.77511692  1
  O  O160  1  0.24317702  0.45247103  0.74479481  1
  O  O161  1  0.25637260  0.78351347  0.77875400  1
  O  O162  1  0.22210363  0.22580037  0.23296451  1
  O  O163  1  0.23329552  0.54848704  0.23448981  1
  O  O164  1  0.22550146  0.88912785  0.25153555  1
  O  O165  1  0.75056668  0.23119164  0.23434489  1
  O  O166  1  0.75235947  0.56220200  0.24013648  1
  O  O167  1  0.75394268  0.89953275  0.25709692  1
  O  O168  1  0.34307097  0.27474402  0.58279845  1
  O  O169  1  0.35764593  0.62963003  0.59590306  1
  O  O170  1  0.34351109  0.96803558  0.56737253  1
  O  O171  1  0.63079579  0.28322347  0.90093242  1
  O  O172  1  0.63657651  0.61622500  0.90690006  1
  O  O173  1  0.64362239  0.95355244  0.92117536  1
  O  O174  1  0.64653548  0.04877545  0.42973072  1
  O  O175  1  0.63090231  0.37911372  0.40076033  1
  O  O176  1  0.64102791  0.71296483  0.42945955  1
  O  O177  1  0.35336053  0.06382646  0.09021262  1
  O  O178  1  0.32841779  0.39154169  0.06987051  1
  O  O179  1  0.35548746  0.73396133  0.09696680  1
  O  O180  1  0.85764593  0.12963003  0.59590306  1
  O  O181  1  0.84351109  0.46803558  0.56737253  1
  O  O182  1  0.84307097  0.77474402  0.58279845  1
  O  O183  1  0.13657651  0.11622500  0.90690006  1
  O  O184  1  0.14362239  0.45355244  0.92117536  1
  O  O185  1  0.13079579  0.78322347  0.90093242  1
  O  O186  1  0.14102791  0.21296483  0.42945955  1
  O  O187  1  0.14653548  0.54877545  0.42973072  1
  O  O188  1  0.13090231  0.87911372  0.40076033  1
  O  O189  1  0.85548746  0.23396133  0.09696680  1
  O  O190  1  0.85336053  0.56382646  0.09021262  1
  O  O191  1  0.82841779  0.89154169  0.06987051  1
  O  O192  1  0.46262774  0.27414853  0.93683502  1
  O  O193  1  0.46106067  0.60677788  0.93756611  1
  O  O194  1  0.46014578  0.94177686  0.91711365  1
  O  O195  1  0.55314893  0.27987085  0.54918516  1
  O  O196  1  0.55607508  0.61399977  0.55446238  1
  O  O197  1  0.54137478  0.95158856  0.56519901  1
  O  O198  1  0.52860370  0.05076531  0.08282025  1
  O  O199  1  0.53840956  0.37286916  0.06247022  1
  O  O200  1  0.52143912  0.71311970  0.08013369  1
  O  O201  1  0.46277612  0.05856100  0.43476298  1
  O  O202  1  0.46035446  0.39427350  0.42725104  1
  O  O203  1  0.46130498  0.72598694  0.44512572  1
  O  O204  1  0.96106067  0.10677788  0.93756611  1
  O  O205  1  0.96014578  0.44177686  0.91711365  1
  O  O206  1  0.96262774  0.77414853  0.93683502  1
  O  O207  1  0.05607508  0.11399977  0.55446238  1
  O  O208  1  0.04137478  0.45158856  0.56519901  1
  O  O209  1  0.05314893  0.77987085  0.54918516  1
  O  O210  1  0.02143912  0.21311970  0.08013369  1
  O  O211  1  0.02860370  0.55076531  0.08282025  1
  O  O212  1  0.03840956  0.87286916  0.06247022  1
  O  O213  1  0.96130498  0.22598694  0.44512572  1
  O  O214  1  0.96277612  0.55856100  0.43476298  1
  O  O215  1  0.96035446  0.89427350  0.42725104  1
  O  O216  1  0.09055200  0.28789329  0.74938591  1
  O  O217  1  0.08527355  0.62287589  0.74454674  1
  O  O218  1  0.09026198  0.95643846  0.74048378  1
  O  O219  1  0.94029427  0.27405716  0.78801585  1
  O  O220  1  0.94434356  0.60944605  0.78553008  1
  O  O221  1  0.93972649  0.94931515  0.75789821  1
  O  O222  1  0.93583632  0.04821422  0.25792967  1
  O  O223  1  0.92851085  0.37885839  0.23898765  1
  O  O224  1  0.92697347  0.71256743  0.22798761  1
  O  O225  1  0.09708810  0.04445923  0.25982019  1
  O  O226  1  0.09190531  0.37610857  0.25589762  1
  O  O227  1  0.09089915  0.71100847  0.24864816  1
  O  O228  1  0.58527355  0.12287589  0.74454674  1
  O  O229  1  0.59026198  0.45643846  0.74048378  1
  O  O230  1  0.59055200  0.78789329  0.74938591  1
  O  O231  1  0.44434356  0.10944605  0.78553008  1
  O  O232  1  0.43972649  0.44931515  0.75789821  1
  O  O233  1  0.44029427  0.77405716  0.78801585  1
  O  O234  1  0.42697347  0.21256743  0.22798761  1
  O  O235  1  0.43583632  0.54821422  0.25792967  1
  O  O236  1  0.42851085  0.87885839  0.23898765  1
  O  O237  1  0.59089915  0.21100847  0.24864816  1
  O  O238  1  0.59708810  0.54445923  0.25982019  1
  O  O239  1  0.59190531  0.87610857  0.25589762  1
