# generated using pymatgen
data_Na8MgTi3Si4(PO12)2
_symmetry_space_group_name_H-M   'P 1'
_cell_length_a   9.00306924
_cell_length_b   9.01895336
_cell_length_c   21.95716265
_cell_angle_alpha   89.95645684
_cell_angle_beta   89.99375553
_cell_angle_gamma   120.08887695
_symmetry_Int_Tables_number   1
_chemical_formula_structural   Na8MgTi3Si4(PO12)2
_chemical_formula_sum   'Na24 Mg3 Ti9 Si12 P6 O72'
_cell_volume   1542.63699717
_cell_formula_units_Z   3
loop_
 _symmetry_equiv_pos_site_id
 _symmetry_equiv_pos_as_xyz
  1  'x, y, z'
loop_
 _atom_site_type_symbol
 _atom_site_label
 _atom_site_symmetry_multiplicity
 _atom_site_fract_x
 _atom_site_fract_y
 _atom_site_fract_z
 _atom_site_occupancy
  Na  Na0  1  0.63524139  0.00839635  0.24375777  1
  Na  Na1  1  0.37359882  0.36267768  0.24343769  1
  Na  Na2  1  0.99045882  0.62845616  0.24349416  1
  Na  Na3  1  0.62937090  0.62048659  0.74668965  1
  Na  Na4  1  0.98996286  0.36972850  0.74921628  1
  Na  Na5  1  0.38064627  0.00779867  0.74549509  1
  Na  Na6  1  0.30575581  0.33441683  0.58668991  1
  Na  Na7  1  0.03182098  0.69847125  0.58392824  1
  Na  Na8  1  0.66321288  0.97113496  0.58705793  1
  Na  Na9  1  0.30944240  0.96931363  0.08447358  1
  Na  Na10  1  0.65984035  0.69078700  0.08442161  1
  Na  Na11  1  0.03055160  0.33964239  0.08443466  1
  Na  Na12  1  0.96375320  0.66475978  0.91758547  1
  Na  Na13  1  0.70201587  0.03815731  0.91772513  1
  Na  Na14  1  0.33439164  0.29733505  0.91720983  1
  Na  Na15  1  0.96325995  0.28978934  0.41470011  1
  Na  Na16  1  0.32220170  0.03485750  0.41450076  1
  Na  Na17  1  0.71157346  0.67442188  0.41282347  1
  Na  Na18  1  0.00436568  0.00067043  0.49721827  1
  Na  Na19  1  0.00114654  0.00124191  0.99817212  1
  Na  Na20  1  0.66935713  0.33336753  0.83112423  1
  Na  Na21  1  0.66758721  0.33409556  0.33035850  1
  Na  Na22  1  0.33441418  0.66775398  0.16313997  1
  Na  Na23  1  0.33733075  0.67051568  0.66830941  1
  Mg  Mg24  1  0.00244810  0.00004120  0.35275288  1
  Mg  Mg25  1  0.66494198  0.33132908  0.68586501  1
  Mg  Mg26  1  0.66645782  0.33307522  0.18189207  1
  Ti  Ti27  1  0.99305949  0.99532989  0.85375544  1
  Ti  Ti28  1  0.99698885  0.98875232  0.64774235  1
  Ti  Ti29  1  0.99985856  0.99887441  0.14333186  1
  Ti  Ti30  1  0.66721543  0.33344073  0.98242418  1
  Ti  Ti31  1  0.66193800  0.34162228  0.48208893  1
  Ti  Ti32  1  0.33297440  0.66633307  0.01829911  1
  Ti  Ti33  1  0.33155668  0.66729608  0.51914338  1
  Ti  Ti34  1  0.32811890  0.65933945  0.31576861  1
  Ti  Ti35  1  0.33521101  0.67285280  0.81535041  1
  Si  Si36  1  0.00211653  0.70823092  0.75151199  1
  Si  Si37  1  0.70835682  0.99769450  0.75036888  1
  Si  Si38  1  0.37490401  0.04057441  0.58466231  1
  Si  Si39  1  0.66387591  0.62696582  0.58548059  1
  Si  Si40  1  0.96017988  0.62423141  0.08516240  1
  Si  Si41  1  0.66440135  0.03983096  0.08517877  1
  Si  Si42  1  0.37571330  0.33578106  0.08505850  1
  Si  Si43  1  0.62221595  0.66474551  0.91622875  1
  Si  Si44  1  0.04330808  0.37697080  0.91593139  1
  Si  Si45  1  0.33420345  0.95938692  0.91699435  1
  Si  Si46  1  0.33397542  0.37625649  0.41773880  1
  Si  Si47  1  0.03867780  0.66225777  0.41745359  1
  P  P48  1  0.29260187  0.99871129  0.25154428  1
  P  P49  1  0.70711784  0.70948791  0.25171551  1
  P  P50  1  0.00089508  0.29175186  0.25179007  1
  P  P51  1  0.28383461  0.28709440  0.75048518  1
  P  P52  1  0.95835018  0.33463248  0.58306090  1
  P  P53  1  0.61869103  0.95571766  0.41634713  1
  O  O54  1  0.20895764  0.02281688  0.30894611  1
  O  O55  1  0.81444738  0.79374263  0.30908446  1
  O  O56  1  0.97762903  0.18487423  0.30922081  1
  O  O57  1  0.19432339  0.17546371  0.80759866  1
  O  O58  1  0.98076953  0.81153135  0.80957606  1
  O  O59  1  0.83174290  0.02167892  0.80963134  1
  O  O60  1  0.80756953  0.97106010  0.69058584  1
  O  O61  1  0.17154380  0.19908856  0.69258297  1
  O  O62  1  0.03293517  0.83364184  0.69070617  1
  O  O63  1  0.79845283  0.82508327  0.19427965  1
  O  O64  1  0.02850899  0.20419220  0.19437919  1
  O  O65  1  0.17606115  0.97208908  0.19422828  1
  O  O66  1  0.88490641  0.37079165  0.64016209  1
  O  O67  1  0.49321296  0.11277625  0.64391132  1
  O  O68  1  0.62267495  0.50787570  0.64407925  1
  O  O69  1  0.88714544  0.51069580  0.14520867  1
  O  O70  1  0.62375087  0.11310298  0.14502945  1
  O  O71  1  0.48981270  0.37695524  0.14498459  1
  O  O72  1  0.46528145  0.29723908  0.02520081  1
  O  O73  1  0.83231038  0.53490941  0.02527375  1
  O  O74  1  0.70304059  0.16813403  0.02532816  1
  O  O75  1  0.47340533  0.16917564  0.52470478  1
  O  O76  1  0.69983665  0.53404341  0.52497271  1
  O  O77  1  0.84217352  0.30610237  0.52599386  1
  O  O78  1  0.53328752  0.69974006  0.97514453  1
  O  O79  1  0.16680507  0.46806670  0.97497853  1
  O  O80  1  0.29988621  0.83384178  0.97529988  1
  O  O81  1  0.53156016  0.84283402  0.47338448  1
  O  O82  1  0.31342396  0.47820035  0.47574532  1
  O  O83  1  0.16449488  0.68954463  0.47548107  1
  O  O84  1  0.13978924  0.63549506  0.35804938  1
  O  O85  1  0.50300415  0.86684294  0.35948301  1
  O  O86  1  0.36786094  0.50376137  0.35778388  1
  O  O87  1  0.13615785  0.50211193  0.85638464  1
  O  O88  1  0.36715249  0.86610287  0.85739025  1
  O  O89  1  0.49872551  0.63409301  0.85661952  1
  O  O90  1  0.01752040  0.82918137  0.41441192  1
  O  O91  1  0.79764060  0.97363919  0.41228692  1
  O  O92  1  0.16439070  0.18989579  0.41468559  1
  O  O93  1  0.02577127  0.18717674  0.91131766  1
  O  O94  1  0.16371283  0.97903428  0.91130868  1
  O  O95  1  0.81367381  0.83789306  0.91171524  1
  O  O96  1  0.97812652  0.17291689  0.58654115  1
  O  O97  1  0.18480065  0.02765230  0.58680848  1
  O  O98  1  0.84008988  0.81877844  0.58722124  1
  O  O99  1  0.97760527  0.81764641  0.09035873  1
  O  O100  1  0.84059086  0.02248954  0.09055736  1
  O  O101  1  0.18211133  0.15952773  0.09051876  1
  O  O102  1  0.69102624  0.16680462  0.74935838  1
  O  O103  1  0.46228240  0.30457853  0.74794128  1
  O  O104  1  0.83110032  0.52327659  0.74870690  1
  O  O105  1  0.68394237  0.52868076  0.24736187  1
  O  O106  1  0.84480621  0.31705757  0.24734073  1
  O  O107  1  0.47346944  0.15711746  0.24694504  1
  O  O108  1  0.64101072  0.49391812  0.92128646  1
  O  O109  1  0.85368457  0.35969083  0.92139195  1
  O  O110  1  0.50772284  0.14774323  0.92148496  1
  O  O111  1  0.63336213  0.13412916  0.42084374  1
  O  O112  1  0.51137374  0.36404213  0.42146288  1
  O  O113  1  0.85328538  0.48244866  0.42122849  1
  O  O114  1  0.34654143  0.49998068  0.07527705  1
  O  O115  1  0.15384357  0.65342798  0.07548572  1
  O  O116  1  0.49992388  0.84638584  0.07536801  1
  O  O117  1  0.34588691  0.84603031  0.57440167  1
  O  O118  1  0.49830458  0.65446984  0.57488430  1
  O  O119  1  0.14251253  0.49526809  0.57559566  1
  O  O120  1  0.30639478  0.83087408  0.25433939  1
  O  O121  1  0.52595007  0.69758874  0.25377951  1
  O  O122  1  0.17149584  0.47457370  0.25465257  1
  O  O123  1  0.29716412  0.46573356  0.75331975  1
  O  O124  1  0.17896462  0.69715633  0.75375251  1
  O  O125  1  0.52178798  0.81860777  0.75355449  1
