# generated using pymatgen
data_Na6La2Ta2Si5SO24
_symmetry_space_group_name_H-M   'P 1'
_cell_length_a   9.39970229
_cell_length_b   9.38055212
_cell_length_c   22.84659061
_cell_angle_alpha   89.83531588
_cell_angle_beta   90.42641522
_cell_angle_gamma   119.98085704
_symmetry_Int_Tables_number   1
_chemical_formula_structural   Na6La2Ta2Si5SO24
_chemical_formula_sum   'Na18 La6 Ta6 Si15 S3 O72'
_cell_volume   1744.88190354
_cell_formula_units_Z   3
loop_
 _symmetry_equiv_pos_site_id
 _symmetry_equiv_pos_as_xyz
  1  'x, y, z'
loop_
 _atom_site_type_symbol
 _atom_site_label
 _atom_site_symmetry_multiplicity
 _atom_site_fract_x
 _atom_site_fract_y
 _atom_site_fract_z
 _atom_site_occupancy
  Na  Na0  1  0.66314121  0.02189339  0.24838254  1
  Na  Na1  1  0.35372882  0.33219144  0.25634003  1
  Na  Na2  1  0.99184162  0.64124073  0.24935305  1
  Na  Na3  1  0.98554932  0.34647207  0.74514811  1
  Na  Na4  1  0.30207735  0.34508281  0.58169832  1
  Na  Na5  1  0.65578030  0.95010486  0.57933707  1
  Na  Na6  1  0.69202786  0.69205308  0.07038363  1
  Na  Na7  1  0.01508022  0.33507478  0.08034296  1
  Na  Na8  1  0.95285506  0.66564632  0.90400033  1
  Na  Na9  1  0.72684939  0.03736592  0.91123786  1
  Na  Na10  1  0.32360752  0.30663016  0.90366423  1
  Na  Na11  1  0.69677329  0.68130817  0.41529958  1
  Na  Na12  1  0.01638589  0.03000488  0.49882994  1
  Na  Na13  1  0.98431922  0.99590081  0.99595666  1
  Na  Na14  1  0.66117117  0.34882732  0.82776999  1
  Na  Na15  1  0.66142704  0.31463469  0.33705797  1
  Na  Na16  1  0.33668083  0.70633188  0.16386541  1
  Na  Na17  1  0.33057500  0.68400384  0.66598104  1
  La  La18  1  0.00846355  0.01772240  0.35546354  1
  La  La19  1  0.99294072  0.99562544  0.82859283  1
  La  La20  1  0.66630323  0.32851631  0.17809537  1
  La  La21  1  0.68680982  0.34310866  0.98256644  1
  La  La22  1  0.33940865  0.68049696  0.01422057  1
  La  La23  1  0.31765674  0.66432521  0.52542405  1
  Ta  Ta24  1  0.99285923  0.98889442  0.64991994  1
  Ta  Ta25  1  0.99627763  0.99432705  0.15606866  1
  Ta  Ta26  1  0.66580783  0.33693854  0.68547230  1
  Ta  Ta27  1  0.65273255  0.31985143  0.48332989  1
  Ta  Ta28  1  0.34842184  0.67097411  0.31583238  1
  Ta  Ta29  1  0.33714186  0.65410239  0.80466077  1
  Si  Si30  1  0.29726559  0.98803463  0.25425492  1
  Si  Si31  1  0.69478725  0.70222988  0.25591310  1
  Si  Si32  1  0.01464613  0.31067920  0.24943020  1
  Si  Si33  1  0.30871893  0.30044642  0.74833488  1
  Si  Si34  1  0.00261777  0.69052287  0.75007087  1
  Si  Si35  1  0.68702091  0.99866821  0.74752141  1
  Si  Si36  1  0.93998854  0.31016562  0.58732555  1
  Si  Si37  1  0.36706788  0.05543064  0.58777462  1
  Si  Si38  1  0.68829986  0.62778030  0.58325731  1
  Si  Si39  1  0.98523246  0.66381698  0.08862723  1
  Si  Si40  1  0.67999853  0.01452743  0.08841805  1
  Si  Si41  1  0.63070021  0.66465204  0.91214095  1
  Si  Si42  1  0.03865165  0.37069870  0.91088825  1
  Si  Si43  1  0.61825104  0.96942640  0.42347813  1
  Si  Si44  1  0.35670146  0.38005727  0.42315591  1
  S  S45  1  0.33469234  0.31411998  0.08427404  1
  S  S46  1  0.33662351  0.96724851  0.90596680  1
  S  S47  1  0.01854457  0.63650706  0.41178069  1
  O  O48  1  0.22965972  0.03803284  0.30959015  1
  O  O49  1  0.80134756  0.75889705  0.31465351  1
  O  O50  1  0.94874748  0.18006190  0.30198142  1
  O  O51  1  0.25656702  0.21441608  0.81121844  1
  O  O52  1  0.96780364  0.74127874  0.81292519  1
  O  O53  1  0.78960195  0.05490622  0.80836646  1
  O  O54  1  0.80718759  0.97357585  0.69798929  1
  O  O55  1  0.15961786  0.18900465  0.69921694  1
  O  O56  1  0.02077067  0.83419670  0.70094027  1
  O  O57  1  0.81025686  0.83997630  0.20199831  1
  O  O58  1  0.04249239  0.20965576  0.19233568  1
  O  O59  1  0.16791314  0.97293056  0.19854236  1
  O  O60  1  0.83956653  0.31741361  0.64368712  1
  O  O61  1  0.48670721  0.17810091  0.63815253  1
  O  O62  1  0.68764209  0.51453186  0.63745048  1
  O  O63  1  0.88772977  0.56037912  0.14569136  1
  O  O64  1  0.66280727  0.09706996  0.14772537  1
  O  O65  1  0.42798566  0.33308435  0.13869417  1
  O  O66  1  0.42268786  0.30761676  0.03181555  1
  O  O67  1  0.86684842  0.58243475  0.02957514  1
  O  O68  1  0.69964595  0.12680479  0.02932304  1
  O  O69  1  0.46266971  0.17151118  0.52695982  1
  O  O70  1  0.70227490  0.53282198  0.52320535  1
  O  O71  1  0.82164211  0.29997183  0.52940025  1
  O  O72  1  0.56215893  0.67884502  0.97559167  1
  O  O73  1  0.12121758  0.45063434  0.97392960  1
  O  O74  1  0.32539882  0.89154161  0.96373813  1
  O  O75  1  0.53576786  0.87766905  0.48364727  1
  O  O76  1  0.34909282  0.46643388  0.48261499  1
  O  O77  1  0.11214922  0.65398841  0.46581221  1
  O  O78  1  0.11490480  0.63789784  0.35890925  1
  O  O79  1  0.49055500  0.85792731  0.36581826  1
  O  O80  1  0.36624886  0.50791826  0.36558930  1
  O  O81  1  0.16005894  0.49438915  0.85583676  1
  O  O82  1  0.33601347  0.85937845  0.85800553  1
  O  O83  1  0.50407029  0.66764920  0.85873456  1
  O  O84  1  0.98426884  0.77327602  0.41100612  1
  O  O85  1  0.79179398  0.97280694  0.41900975  1
  O  O86  1  0.20601554  0.19459110  0.42129582  1
  O  O87  1  0.02233051  0.18895059  0.90741103  1
  O  O88  1  0.19372423  0.99295571  0.90304851  1
  O  O89  1  0.81506121  0.82480748  0.90672171  1
  O  O90  1  0.94719069  0.13493792  0.59132644  1
  O  O91  1  0.18566035  0.04399064  0.59361735  1
  O  O92  1  0.85258206  0.81493108  0.59284751  1
  O  O93  1  0.99425916  0.84469608  0.09525207  1
  O  O94  1  0.86159147  0.02180311  0.09305829  1
  O  O95  1  0.17255273  0.15760069  0.08638287  1
  O  O96  1  0.65659885  0.15232044  0.73311893  1
  O  O97  1  0.49704499  0.34532667  0.73560389  1
  O  O98  1  0.85107066  0.50178181  0.73760300  1
  O  O99  1  0.62971164  0.51169246  0.24131842  1
  O  O100  1  0.87648037  0.36372547  0.24141608  1
  O  O101  1  0.48675569  0.13045436  0.24589213  1
  O  O102  1  0.62299723  0.48618915  0.90714646  1
  O  O103  1  0.86023569  0.36435529  0.90509675  1
  O  O104  1  0.49387998  0.12814622  0.90333596  1
  O  O105  1  0.63309776  0.15456408  0.42429247  1
  O  O106  1  0.53910633  0.38674006  0.42101735  1
  O  O107  1  0.86092323  0.47582558  0.41248142  1
  O  O108  1  0.30351239  0.45430480  0.08209414  1
  O  O109  1  0.16162318  0.67357399  0.08658912  1
  O  O110  1  0.53920977  0.82056077  0.08740381  1
  O  O111  1  0.36449286  0.88323609  0.59165128  1
  O  O112  1  0.52654823  0.64816428  0.58715838  1
  O  O113  1  0.12815404  0.45894836  0.58994828  1
  O  O114  1  0.28502039  0.80367748  0.25990920  1
  O  O115  1  0.52655269  0.72357003  0.26115397  1
  O  O116  1  0.19764456  0.47906805  0.26169210  1
  O  O117  1  0.31239612  0.48284970  0.75144063  1
  O  O118  1  0.17324239  0.67773995  0.75224785  1
  O  O119  1  0.50965687  0.82552909  0.75283678  1
