# generated using pymatgen
data_NaCa2Sn2PS5O24
_symmetry_space_group_name_H-M   'P 1'
_cell_length_a   8.97063897
_cell_length_b   9.00499381
_cell_length_c   23.46393180
_cell_angle_alpha   89.82855708
_cell_angle_beta   89.88667671
_cell_angle_gamma   120.07085180
_symmetry_Int_Tables_number   1
_chemical_formula_structural   NaCa2Sn2PS5O24
_chemical_formula_sum   'Na3 Ca6 Sn6 P3 S15 O72'
_cell_volume   1640.29612542
_cell_formula_units_Z   3
loop_
 _symmetry_equiv_pos_site_id
 _symmetry_equiv_pos_as_xyz
  1  'x, y, z'
loop_
 _atom_site_type_symbol
 _atom_site_label
 _atom_site_symmetry_multiplicity
 _atom_site_fract_x
 _atom_site_fract_y
 _atom_site_fract_z
 _atom_site_occupancy
  Na  Na0  1  0.67354307  0.33415348  0.83052022  1
  Na  Na1  1  0.65714572  0.33486611  0.33305956  1
  Na  Na2  1  0.34010184  0.67456029  0.16522035  1
  Ca  Ca3  1  0.00025605  0.00356885  0.85682897  1
  Ca  Ca4  1  0.66677210  0.33275871  0.68315020  1
  Ca  Ca5  1  0.66269489  0.33379629  0.19094247  1
  Ca  Ca6  1  0.66679309  0.33469391  0.48709521  1
  Ca  Ca7  1  0.33065619  0.66344748  0.01866918  1
  Ca  Ca8  1  0.33452635  0.66720229  0.52364789  1
  Sn  Sn9  1  0.00067863  0.99470637  0.35207197  1
  Sn  Sn10  1  0.99923612  0.99978237  0.65050556  1
  Sn  Sn11  1  0.99840685  0.99143011  0.14898538  1
  Sn  Sn12  1  0.67253278  0.33376280  0.98141633  1
  Sn  Sn13  1  0.34001003  0.67526801  0.31447254  1
  Sn  Sn14  1  0.32472567  0.66073073  0.81533388  1
  P  P15  1  0.28237019  0.98946988  0.25237003  1
  P  P16  1  0.70770719  0.71763564  0.25249595  1
  P  P17  1  0.03390114  0.37983477  0.91700867  1
  S  S18  1  0.01150741  0.29230533  0.25206365  1
  S  S19  1  0.29156288  0.30092775  0.75159674  1
  S  S20  1  0.00910689  0.71004123  0.75199000  1
  S  S21  1  0.69580138  0.98732092  0.75248359  1
  S  S22  1  0.96436605  0.32044948  0.58579917  1
  S  S23  1  0.35671826  0.03518404  0.58583619  1
  S  S24  1  0.67947097  0.64352988  0.58590982  1
  S  S25  1  0.95554357  0.63218772  0.08532904  1
  S  S26  1  0.67896251  0.04431850  0.08611541  1
  S  S27  1  0.36644604  0.32117451  0.08486460  1
  S  S28  1  0.61910652  0.65160685  0.91666148  1
  S  S29  1  0.34800709  0.96737287  0.91684824  1
  S  S30  1  0.63485426  0.96362960  0.41212834  1
  S  S31  1  0.32618868  0.36922839  0.41073520  1
  S  S32  1  0.04134026  0.66931984  0.41182276  1
  O  O33  1  0.19640540  0.01636954  0.30535901  1
  O  O34  1  0.81549824  0.80768738  0.30570579  1
  O  O35  1  0.98798237  0.18752293  0.30366270  1
  O  O36  1  0.21049359  0.19596619  0.80173054  1
  O  O37  1  0.98619759  0.79107264  0.80213677  1
  O  O38  1  0.80124441  0.01045269  0.80218297  1
  O  O39  1  0.77343740  0.95988488  0.69882809  1
  O  O40  1  0.18521852  0.22234136  0.69840127  1
  O  O41  1  0.03509842  0.81521267  0.69846339  1
  O  O42  1  0.78651215  0.82949835  0.19698863  1
  O  O43  1  0.03876213  0.21525522  0.19907691  1
  O  O44  1  0.17316726  0.96205676  0.19686539  1
  O  O45  1  0.88488965  0.34466996  0.63705597  1
  O  O46  1  0.46134321  0.11483606  0.63678183  1
  O  O47  1  0.65432548  0.53881631  0.63699036  1
  O  O48  1  0.87335902  0.52758884  0.13547927  1
  O  O49  1  0.65591164  0.12691060  0.13585053  1
  O  O50  1  0.47117432  0.34328819  0.13480467  1
  O  O51  1  0.44573129  0.29512864  0.03097547  1
  O  O52  1  0.85104209  0.55386239  0.03174186  1
  O  O53  1  0.70434246  0.14782273  0.03195457  1
  O  O54  1  0.43026730  0.14125013  0.53417355  1
  O  O55  1  0.71246318  0.57084459  0.53436904  1
  O  O56  1  0.85825193  0.28865325  0.53443794  1
  O  O57  1  0.54235367  0.67383510  0.96796528  1
  O  O58  1  0.13442800  0.46464935  0.97011327  1
  O  O59  1  0.33192800  0.87166416  0.96845426  1
  O  O60  1  0.55640070  0.85768049  0.46177945  1
  O  O61  1  0.30102836  0.44630064  0.46094579  1
  O  O62  1  0.14474366  0.69376919  0.46164817  1
  O  O63  1  0.12367458  0.64390331  0.35784991  1
  O  O64  1  0.52632781  0.88318372  0.35843044  1
  O  O65  1  0.35371194  0.47910347  0.35699596  1
  O  O66  1  0.11343801  0.49841607  0.86127779  1
  O  O67  1  0.38486411  0.89191322  0.86429328  1
  O  O68  1  0.50905518  0.62092337  0.86390637  1
  O  O69  1  0.03080517  0.83099824  0.40531560  1
  O  O70  1  0.80836314  0.97646120  0.40430560  1
  O  O71  1  0.16336839  0.19779586  0.40305434  1
  O  O72  1  0.00559835  0.20482211  0.90757113  1
  O  O73  1  0.19994672  0.98779952  0.90851953  1
  O  O74  1  0.79131209  0.79363184  0.90815173  1
  O  O75  1  0.97480081  0.15724101  0.59340811  1
  O  O76  1  0.18236812  0.02430362  0.59358425  1
  O  O77  1  0.84242646  0.81767639  0.59345519  1
  O  O78  1  0.96405583  0.80467671  0.08930055  1
  O  O79  1  0.84355554  0.03583012  0.09118006  1
  O  O80  1  0.19152556  0.15917128  0.09042030  1
  O  O81  1  0.66943071  0.13453304  0.74618991  1
  O  O82  1  0.46584699  0.32745871  0.74536952  1
  O  O83  1  0.86209676  0.53594157  0.74610405  1
  O  O84  1  0.69055376  0.54226641  0.24997896  1
  O  O85  1  0.85965625  0.31199497  0.24815322  1
  O  O86  1  0.46198785  0.14311776  0.24984050  1
  O  O87  1  0.62684946  0.48499835  0.92137912  1
  O  O88  1  0.84724010  0.36636590  0.92097729  1
  O  O89  1  0.50973777  0.14663093  0.92105887  1
  O  O90  1  0.65667745  0.13576872  0.41418352  1
  O  O91  1  0.47656515  0.34578209  0.41247798  1
  O  O92  1  0.86729713  0.51954031  0.41328497  1
  O  O93  1  0.34207736  0.46968933  0.07942065  1
  O  O94  1  0.13084245  0.66087455  0.08018366  1
  O  O95  1  0.53112722  0.87020492  0.08048550  1
  O  O96  1  0.32948382  0.86347060  0.57829712  1
  O  O97  1  0.53391298  0.67008345  0.57830936  1
  O  O98  1  0.13706680  0.46517940  0.57806725  1
  O  O99  1  0.28921858  0.81769728  0.25656313  1
  O  O100  1  0.52405517  0.70189491  0.25621378  1
  O  O101  1  0.17200582  0.46587580  0.25624554  1
  O  O102  1  0.30226347  0.47444742  0.75636237  1
  O  O103  1  0.17494619  0.70325292  0.75606259  1
  O  O104  1  0.52148781  0.82325632  0.75820263  1
