# generated using pymatgen
data_Sr4MgIn2(SbO6)2
_symmetry_space_group_name_H-M   'P 1'
_cell_length_a   6.04888739
_cell_length_b   5.96640130
_cell_length_c   8.87424491
_cell_angle_alpha   89.90464618
_cell_angle_beta   83.45509092
_cell_angle_gamma   89.81981359
_symmetry_Int_Tables_number   1
_chemical_formula_structural   Sr4MgIn2(SbO6)2
_chemical_formula_sum   'Sr4 Mg1 In2 Sb2 O12'
_cell_volume   318.18317353
_cell_formula_units_Z   1
loop_
 _symmetry_equiv_pos_site_id
 _symmetry_equiv_pos_as_xyz
  1  'x, y, z'
loop_
 _atom_site_type_symbol
 _atom_site_label
 _atom_site_symmetry_multiplicity
 _atom_site_fract_x
 _atom_site_fract_y
 _atom_site_fract_z
 _atom_site_occupancy
  Sr  Sr0  1  0.95818000  0.02622200  0.73773100  1
  Sr  Sr1  1  0.43730400  0.55864800  0.69623700  1
  Sr  Sr2  1  0.96794900  0.95930700  0.24742600  1
  Sr  Sr3  1  0.50462900  0.46735700  0.28260700  1
  Mg  Mg4  1  0.71240700  0.43029500  0.93809500  1
  In  In5  1  0.96491100  0.49843300  0.49848600  1
  In  In6  1  0.51707500  0.97262300  0.03880200  1
  Sb  Sb7  1  0.47176900  0.00737500  0.49514100  1
  Sb  Sb8  1  0.10996700  0.50711600  0.03318500  1
  O  O9  1  0.68221600  0.73521000  0.44375100  1
  O  O10  1  0.71661700  0.68449900  0.07647500  1
  O  O11  1  0.83576100  0.47003000  0.72798400  1
  O  O12  1  0.25603500  0.27215800  0.54725000  1
  O  O13  1  0.40068300  0.33649500  0.99035300  1
  O  O14  1  0.54509500  0.97922900  0.70660300  1
  O  O15  1  0.10403100  0.53646900  0.25806300  1
  O  O16  1  0.39360800  0.03150400  0.27853700  1
  O  O17  1  0.23360800  0.80909300  0.97337700  1
  O  O18  1  0.20178100  0.78916700  0.54297800  1
  O  O19  1  0.82048300  0.14770600  0.01532600  1
  O  O20  1  0.73880700  0.21856400  0.43253000  1
