# generated using pymatgen
data_RbVBr3
_symmetry_space_group_name_H-M   'P 1'
_cell_length_a   12.90835489
_cell_length_b   12.90826948
_cell_length_c   6.46967678
_cell_angle_alpha   89.99976785
_cell_angle_beta   90.00013511
_cell_angle_gamma   119.99929243
_symmetry_Int_Tables_number   1
_chemical_formula_structural   RbVBr3
_chemical_formula_sum   'Rb6 V6 Br18'
_cell_volume   933.58793978
_cell_formula_units_Z   6
loop_
 _symmetry_equiv_pos_site_id
 _symmetry_equiv_pos_as_xyz
  1  'x, y, z'
loop_
 _atom_site_type_symbol
 _atom_site_label
 _atom_site_symmetry_multiplicity
 _atom_site_fract_x
 _atom_site_fract_y
 _atom_site_fract_z
 _atom_site_occupancy
  Rb  Rb0  1  0.33267524  0.33267200  0.26652872  1
  Rb  Rb1  1  0.66732886  0.66732535  0.76652851  1
  Rb  Rb2  1  0.99999733  0.66732519  0.26652814  1
  Rb  Rb3  1  0.66732921  0.00000305  0.26652844  1
  Rb  Rb4  1  0.33267551  0.00000334  0.76652851  1
  Rb  Rb5  1  0.99999754  0.33267157  0.76652867  1
  V  V6  1  0.00000027  0.00000022  0.99555201  1
  V  V7  1  0.00000127  0.00000100  0.49555249  1
  V  V8  1  0.33333321  0.66666602  0.05410015  1
  V  V9  1  0.66666638  0.33333325  0.55413245  1
  V  V10  1  0.33333407  0.66666689  0.55410388  1
  V  V11  1  0.66666715  0.33333420  0.05413009  1
  Br  Br12  1  0.50460372  0.33340689  0.80450444  1
  Br  Br13  1  0.49538173  0.66662560  0.30445230  1
  Br  Br14  1  0.33337107  0.82875548  0.30445273  1
  Br  Br15  1  0.17124625  0.50461691  0.30445596  1
  Br  Br16  1  0.82878586  0.49538849  0.80450051  1
  Br  Br17  1  -0.00000410  0.16227806  0.24458903  1
  Br  Br18  1  0.16228180  0.00000465  0.24458689  1
  Br  Br19  1  0.16228161  0.16227716  0.74458804  1
  Br  Br20  1  -0.00000318  0.83771934  0.74458666  1
  Br  Br21  1  0.50460305  0.17119742  0.30450152  1
  Br  Br22  1  0.83772433  0.83771983  0.24458814  1
  Br  Br23  1  0.83772404  0.00000575  0.74458814  1
  Br  Br24  1  0.49538351  0.82875375  0.80445425  1
  Br  Br25  1  0.33337540  0.50461823  0.80445373  1
  Br  Br26  1  0.17124607  0.66662946  0.80445495  1
  Br  Br27  1  0.82880308  0.33340582  0.30450000  1
  Br  Br28  1  0.66659454  0.49539824  0.30449955  1
  Br  Br29  1  0.66659418  0.17119686  0.80450309  1
