# generated using pymatgen
data_Na2ZrZn3(SO4)6
_symmetry_space_group_name_H-M   'P 1'
_cell_length_a   8.76167263
_cell_length_b   8.76167235
_cell_length_c   22.93451368
_cell_angle_alpha   90.00000000
_cell_angle_beta   90.00000000
_cell_angle_gamma   120.00000110
_symmetry_Int_Tables_number   1
_chemical_formula_structural   Na2ZrZn3(SO4)6
_chemical_formula_sum   'Na6 Zr3 Zn9 S18 O72'
_cell_volume   1524.73437972
_cell_formula_units_Z   3
loop_
 _symmetry_equiv_pos_site_id
 _symmetry_equiv_pos_as_xyz
  1  'x, y, z'
loop_
 _atom_site_type_symbol
 _atom_site_label
 _atom_site_symmetry_multiplicity
 _atom_site_fract_x
 _atom_site_fract_y
 _atom_site_fract_z
 _atom_site_occupancy
  Na  Na0  1  -0.00000000  -0.00000000  0.50790148  1
  Na  Na1  1  -0.00000000  -0.00000000  0.00575858  1
  Na  Na2  1  0.66666700  0.33333300  0.82839767  1
  Na  Na3  1  0.66666700  0.33333300  0.33633116  1
  Na  Na4  1  0.33333300  0.66666700  0.17620813  1
  Na  Na5  1  0.33333300  0.66666700  0.66022525  1
  Zr  Zr6  1  -0.00000000  -0.00000000  0.35414048  1
  Zr  Zr7  1  -0.00000000  -0.00000000  0.84840796  1
  Zr  Zr8  1  0.33333300  0.66666700  0.02181423  1
  Zn  Zn9  1  -0.00000000  -0.00000000  0.64352315  1
  Zn  Zn10  1  -0.00000000  -0.00000000  0.15430577  1
  Zn  Zn11  1  0.66666700  0.33333300  0.67435638  1
  Zn  Zn12  1  0.66666700  0.33333300  0.18716062  1
  Zn  Zn13  1  0.66666700  0.33333300  0.98597398  1
  Zn  Zn14  1  0.66666700  0.33333300  0.48867286  1
  Zn  Zn15  1  0.33333300  0.66666700  0.52029792  1
  Zn  Zn16  1  0.33333300  0.66666700  0.31998535  1
  Zn  Zn17  1  0.33333300  0.66666700  0.81209569  1
  S  S18  1  0.29572008  0.99865262  0.24803697  1
  S  S19  1  0.70293254  0.70427992  0.24803697  1
  S  S20  1  0.00134738  0.29706746  0.24803697  1
  S  S21  1  0.29812826  0.29791669  0.74760617  1
  S  S22  1  -0.00021158  0.70187174  0.74760617  1
  S  S23  1  0.70208331  0.00021157  0.74760617  1
  S  S24  1  0.96183794  0.33429636  0.58338253  1
  S  S25  1  0.37245942  0.03816206  0.58338253  1
  S  S26  1  0.66570364  0.62754058  0.58338253  1
  S  S27  1  0.95167435  0.62636007  0.08371538  1
  S  S28  1  0.67468671  0.04832565  0.08371538  1
  S  S29  1  0.37363993  0.32531329  0.08371538  1
  S  S30  1  0.62372756  0.66137354  0.91554513  1
  S  S31  1  0.03764499  0.37627244  0.91554513  1
  S  S32  1  0.33862646  0.96235501  0.91554513  1
  S  S33  1  0.61861994  0.95987209  0.41695906  1
  S  S34  1  0.34125114  0.38138006  0.41695906  1
  S  S35  1  0.04012791  0.65874886  0.41695906  1
  O  O36  1  0.20671750  0.02273141  0.30082082  1
  O  O37  1  0.81601390  0.79328250  0.30082082  1
  O  O38  1  0.97726859  0.18398610  0.30082082  1
  O  O39  1  0.20760482  0.18500690  0.80306082  1
  O  O40  1  0.97740208  0.79239518  0.80306082  1
  O  O41  1  0.81499310  0.02259792  0.80306082  1
  O  O42  1  0.78809823  0.97393127  0.69761579  1
  O  O43  1  0.18583304  0.21190177  0.69761579  1
  O  O44  1  0.02606873  0.81416696  0.69761579  1
  O  O45  1  0.78372109  0.81103356  0.19527477  1
  O  O46  1  0.02731247  0.21627891  0.19527477  1
  O  O47  1  0.18896644  0.97268753  0.19527477  1
  O  O48  1  0.88437958  0.36122213  0.63736341  1
  O  O49  1  0.47684355  0.11562042  0.63736341  1
  O  O50  1  0.63877787  0.52315645  0.63736341  1
  O  O51  1  0.87926834  0.51750350  0.13562483  1
  O  O52  1  0.63823616  0.12073166  0.13562483  1
  O  O53  1  0.48249650  0.36176384  0.13562483  1
  O  O54  1  0.45178805  0.30485100  0.02943576  1
  O  O55  1  0.85306395  0.54821195  0.02943576  1
  O  O56  1  0.69514900  0.14693605  0.02943576  1
  O  O57  1  0.45196241  0.14547922  0.53052946  1
  O  O58  1  0.69351781  0.54803759  0.53052946  1
  O  O59  1  0.85452078  0.30648219  0.53052946  1
  O  O60  1  0.54115220  0.69000221  0.96908766  1
  O  O61  1  0.14884901  0.45884780  0.96908766  1
  O  O62  1  0.30999779  0.85115099  0.96908766  1
  O  O63  1  0.54631915  0.85081246  0.46881242  1
  O  O64  1  0.30449231  0.45368085  0.46881242  1
  O  O65  1  0.14918754  0.69550769  0.46881242  1
  O  O66  1  0.11827217  0.63788201  0.36267733  1
  O  O67  1  0.51960884  0.88172783  0.36267733  1
  O  O68  1  0.36211799  0.48039116  0.36267733  1
  O  O69  1  0.12172226  0.48055562  0.86380771  1
  O  O70  1  0.35883236  0.87827774  0.86380771  1
  O  O71  1  0.51944438  0.64116764  0.86380771  1
  O  O72  1  0.02210885  0.82428728  0.40901450  1
  O  O73  1  0.80217843  0.97789115  0.40901450  1
  O  O74  1  0.17571272  0.19782157  0.40901450  1
  O  O75  1  0.02374778  0.19781115  0.91210929  1
  O  O76  1  0.17406337  0.97625222  0.91210929  1
  O  O77  1  0.80218885  0.82593663  0.91210929  1
  O  O78  1  0.97793770  0.17326250  0.58876308  1
  O  O79  1  0.19532479  0.02206230  0.58876308  1
  O  O80  1  0.82673750  0.80467521  0.58876308  1
  O  O81  1  0.97915123  0.80609815  0.08893543  1
  O  O82  1  0.82694692  0.02084877  0.08893543  1
  O  O83  1  0.19390185  0.17305308  0.08893543  1
  O  O84  1  0.69010526  0.16153292  0.74607523  1
  O  O85  1  0.47142866  0.30989474  0.74607523  1
  O  O86  1  0.83846708  0.52857134  0.74607523  1
  O  O87  1  0.69175106  0.53033385  0.24470501  1
  O  O88  1  0.83858380  0.30824894  0.24470501  1
  O  O89  1  0.46966615  0.16141620  0.24470501  1
  O  O90  1  0.64533066  0.50687158  0.92346617  1
  O  O91  1  0.86154191  0.35466934  0.92346617  1
  O  O92  1  0.49312842  0.13845809  0.92346617  1
  O  O93  1  0.64591255  0.13944412  0.42236134  1
  O  O94  1  0.49353256  0.35408745  0.42236134  1
  O  O95  1  0.86055588  0.50646744  0.42236134  1
  O  O96  1  0.35531772  0.49055237  0.07620054  1
  O  O97  1  0.13523366  0.64468228  0.07620054  1
  O  O98  1  0.50944763  0.86476634  0.07620054  1
  O  O99  1  0.35496581  0.86098190  0.57801380  1
  O  O100  1  0.50601510  0.64503419  0.57801380  1
  O  O101  1  0.13901810  0.49398490  0.57801380  1
  O  O102  1  0.31211489  0.84017889  0.25552641  1
  O  O103  1  0.52806300  0.68788511  0.25552641  1
  O  O104  1  0.15982111  0.47193700  0.25552641  1
  O  O105  1  0.31137512  0.47077460  0.75695430  1
  O  O106  1  0.15939848  0.68862488  0.75695430  1
  O  O107  1  0.52922540  0.84060152  0.75695430  1
