# generated using pymatgen
data_Na6Zn3SnP4(SO12)2
_symmetry_space_group_name_H-M   'P 1'
_cell_length_a   9.03690432
_cell_length_b   9.00398618
_cell_length_c   22.10522071
_cell_angle_alpha   89.97117851
_cell_angle_beta   89.73132382
_cell_angle_gamma   120.06173895
_symmetry_Int_Tables_number   1
_chemical_formula_structural   Na6Zn3SnP4(SO12)2
_chemical_formula_sum   'Na18 Zn9 Sn3 P12 S6 O72'
_cell_volume   1556.69072188
_cell_formula_units_Z   3
loop_
 _symmetry_equiv_pos_site_id
 _symmetry_equiv_pos_as_xyz
  1  'x, y, z'
loop_
 _atom_site_type_symbol
 _atom_site_label
 _atom_site_symmetry_multiplicity
 _atom_site_fract_x
 _atom_site_fract_y
 _atom_site_fract_z
 _atom_site_occupancy
  Na  Na0  1  0.36493913  0.36684263  0.25313218  1
  Na  Na1  1  0.64044847  0.63439497  0.74553301  1
  Na  Na2  1  0.99283041  0.34968397  0.74869853  1
  Na  Na3  1  0.29462266  0.34134853  0.58444412  1
  Na  Na4  1  0.03105734  0.69689211  0.58041258  1
  Na  Na5  1  0.67208051  0.95883176  0.58154848  1
  Na  Na6  1  0.28917579  0.96024213  0.08038874  1
  Na  Na7  1  0.66432214  0.69624393  0.08224781  1
  Na  Na8  1  0.04572785  0.34182768  0.08415821  1
  Na  Na9  1  0.32246171  0.29445550  0.91147538  1
  Na  Na10  1  0.97826856  0.30287993  0.41080148  1
  Na  Na11  1  0.69803479  0.67765164  0.41129085  1
  Na  Na12  1  0.00528151  0.99962092  0.49423237  1
  Na  Na13  1  0.99324751  0.98562820  0.99180905  1
  Na  Na14  1  0.65591922  0.30949997  0.83001062  1
  Na  Na15  1  0.66690690  0.31873224  0.32848911  1
  Na  Na16  1  0.32403879  0.67125186  0.17148810  1
  Na  Na17  1  0.33864940  0.66944898  0.66400359  1
  Zn  Zn18  1  0.00738892  0.99727764  0.35128367  1
  Zn  Zn19  1  0.99472745  0.00381753  0.85143718  1
  Zn  Zn20  1  0.99043677  0.00990397  0.65671090  1
  Zn  Zn21  1  0.00779628  0.99518467  0.15416050  1
  Zn  Zn22  1  0.65816885  0.32561251  0.68425150  1
  Zn  Zn23  1  0.67377471  0.34389847  0.18212127  1
  Zn  Zn24  1  0.32899960  0.66435570  0.01038353  1
  Zn  Zn25  1  0.33020966  0.66167021  0.50609591  1
  Zn  Zn26  1  0.33439551  0.67779216  0.32526243  1
  Sn  Sn27  1  0.67038780  0.33855552  0.98047000  1
  Sn  Sn28  1  0.66670468  0.33285612  0.48181828  1
  Sn  Sn29  1  0.33634022  0.67315766  0.82024362  1
  P  P30  1  0.29840667  0.29895178  0.75175833  1
  P  P31  1  0.69880692  0.99831720  0.75005868  1
  P  P32  1  0.96345777  0.33498017  0.58539244  1
  P  P33  1  0.66840178  0.63059016  0.58570835  1
  P  P34  1  0.96266839  0.62819029  0.08476988  1
  P  P35  1  0.37017075  0.33297829  0.08556835  1
  P  P36  1  0.63398410  0.66978500  0.91921087  1
  P  P37  1  0.03260897  0.36831869  0.91814243  1
  P  P38  1  0.33359464  0.96606242  0.92064107  1
  P  P39  1  0.63058061  0.96534583  0.41831131  1
  P  P40  1  0.33414358  0.36634329  0.41630700  1
  P  P41  1  0.03705528  0.66794369  0.41883020  1
  S  S42  1  0.30093789  -0.00083975  0.24874087  1
  S  S43  1  0.70013470  0.70295534  0.24990674  1
  S  S44  1  0.99836728  0.29619462  0.24951560  1
  S  S45  1  0.00638969  0.70836996  0.74985726  1
  S  S46  1  0.36997484  0.03681061  0.58458738  1
  S  S47  1  0.66725683  0.04091552  0.08497867  1
  O  O48  1  0.21088559  0.02535035  0.30013136  1
  O  O49  1  0.80095975  0.78889936  0.30437577  1
  O  O50  1  0.98196867  0.19415782  0.30461330  1
  O  O51  1  0.21354194  0.19516729  0.80853418  1
  O  O52  1  0.98648420  0.79472016  0.80244271  1
  O  O53  1  0.81639847  0.02421437  0.80270645  1
  O  O54  1  0.76211984  0.95531864  0.69016021  1
  O  O55  1  0.19205334  0.22336704  0.69314440  1
  O  O56  1  0.02986314  0.80292403  0.69236471  1
  O  O57  1  0.78271708  0.80052067  0.19327883  1
  O  O58  1  0.01983583  0.21279963  0.19370414  1
  O  O59  1  0.20733599  0.97869791  0.19060545  1
  O  O60  1  0.87677376  0.35960695  0.64123295  1
  O  O61  1  0.47831114  0.11805155  0.63710554  1
  O  O62  1  0.63938275  0.51581438  0.64103147  1
  O  O63  1  0.88033658  0.50708041  0.13839374  1
  O  O64  1  0.63901975  0.12261179  0.13774869  1
  O  O65  1  0.48105119  0.35855594  0.14126759  1
  O  O66  1  0.45280896  0.29746091  0.02750520  1
  O  O67  1  0.84579315  0.54815496  0.02692486  1
  O  O68  1  0.69979826  0.15017480  0.02876592  1
  O  O69  1  0.44734340  0.14674825  0.52851428  1
  O  O70  1  0.69466060  0.54498926  0.52666572  1
  O  O71  1  0.84715157  0.30086730  0.52749382  1
  O  O72  1  0.54898400  0.68735410  0.97681273  1
  O  O73  1  0.13947228  0.45138021  0.97466047  1
  O  O74  1  0.31767562  0.86810909  0.97888121  1
  O  O75  1  0.55453349  0.86394980  0.47791939  1
  O  O76  1  0.30628451  0.44310664  0.47511068  1
  O  O77  1  0.13157891  0.68981225  0.47901194  1
  O  O78  1  0.11819297  0.62777271  0.36525834  1
  O  O79  1  0.52109306  0.88261188  0.36322844  1
  O  O80  1  0.37062550  0.48179161  0.36014815  1
  O  O81  1  0.11618070  0.48122460  0.85929690  1
  O  O82  1  0.36458855  0.88230302  0.86339797  1
  O  O83  1  0.51508795  0.63217490  0.86167961  1
  O  O84  1  0.00219219  0.81810001  0.41181738  1
  O  O85  1  0.81348084  0.98960468  0.41276699  1
  O  O86  1  0.17341221  0.18843773  0.41004579  1
  O  O87  1  0.02018607  0.19363163  0.91168545  1
  O  O88  1  0.18038610  0.99291729  0.91350539  1
  O  O89  1  0.81150909  0.82164399  0.91083541  1
  O  O90  1  0.98298056  0.17284813  0.58720645  1
  O  O91  1  0.19833002  0.02023539  0.58889200  1
  O  O92  1  0.83572975  0.80744716  0.58776321  1
  O  O93  1  0.97393980  0.80633259  0.08926878  1
  O  O94  1  0.82216695  0.02390224  0.08887083  1
  O  O95  1  0.18846062  0.17146483  0.08840571  1
  O  O96  1  0.68368369  0.16134277  0.74474159  1
  O  O97  1  0.48488700  0.33634152  0.74705327  1
  O  O98  1  0.85309894  0.53222734  0.74739068  1
  O  O99  1  0.67935145  0.52649511  0.24824352  1
  O  O100  1  0.84444148  0.31390041  0.24590876  1
  O  O101  1  0.47198710  0.16013770  0.24571374  1
  O  O102  1  0.63567021  0.49404280  0.92022978  1
  O  O103  1  0.85181695  0.35201269  0.92030774  1
  O  O104  1  0.49998123  0.15166912  0.92100192  1
  O  O105  1  0.65716358  0.15374503  0.42190424  1
  O  O106  1  0.50321870  0.35498965  0.42191875  1
  O  O107  1  0.85081260  0.49788232  0.42142196  1
  O  O108  1  0.35630611  0.49670798  0.07889453  1
  O  O109  1  0.14392708  0.65241178  0.07785767  1
  O  O110  1  0.51396596  0.86883211  0.07869503  1
  O  O111  1  0.35324364  0.86570959  0.57776720  1
  O  O112  1  0.50915616  0.65121463  0.57975744  1
  O  O113  1  0.14123638  0.49828166  0.57857067  1
  O  O114  1  0.31818353  0.84530098  0.25520616  1
  O  O115  1  0.52487274  0.68053028  0.25241347  1
  O  O116  1  0.15848447  0.46717834  0.25250282  1
  O  O117  1  0.30970806  0.48480097  0.75537393  1
  O  O118  1  0.16067936  0.68304326  0.75437825  1
  O  O119  1  0.51617408  0.82971849  0.75687692  1
