# generated using pymatgen
data_TaAl3SiS5O24
_symmetry_space_group_name_H-M   'P 1'
_cell_length_a   8.43010384
_cell_length_b   8.45310287
_cell_length_c   21.89404305
_cell_angle_alpha   90.17368145
_cell_angle_beta   90.06430133
_cell_angle_gamma   119.97912038
_symmetry_Int_Tables_number   1
_chemical_formula_structural   TaAl3SiS5O24
_chemical_formula_sum   'Ta3 Al9 Si3 S15 O72'
_cell_volume   1351.42828792
_cell_formula_units_Z   3
loop_
 _symmetry_equiv_pos_site_id
 _symmetry_equiv_pos_as_xyz
  1  'x, y, z'
loop_
 _atom_site_type_symbol
 _atom_site_label
 _atom_site_symmetry_multiplicity
 _atom_site_fract_x
 _atom_site_fract_y
 _atom_site_fract_z
 _atom_site_occupancy
  Ta  Ta0  1  0.67181110  0.33807314  0.97505262  1
  Ta  Ta1  1  0.33266439  0.67249879  0.30697518  1
  Ta  Ta2  1  0.32908516  0.65587131  0.81096988  1
  Al  Al3  1  0.01066425  0.00449060  0.35274707  1
  Al  Al4  1  0.99455946  0.99911917  0.85848515  1
  Al  Al5  1  0.99844125  0.99892674  0.64400833  1
  Al  Al6  1  0.00592257  0.99616588  0.14362090  1
  Al  Al7  1  0.66855463  0.33435975  0.68625996  1
  Al  Al8  1  0.65792270  0.32471513  0.18728104  1
  Al  Al9  1  0.66514350  0.33247579  0.48126263  1
  Al  Al10  1  0.33886497  0.65880601  0.02190461  1
  Al  Al11  1  0.33336738  0.66543873  0.52238461  1
  Si  Si12  1  0.28638885  0.02250867  0.24771534  1
  Si  Si13  1  0.62708365  0.68273315  0.92057282  1
  Si  Si14  1  0.05797601  0.37344678  0.92025848  1
  S  S15  1  0.72645531  0.71509878  0.24866145  1
  S  S16  1  0.98795575  0.27475735  0.24881612  1
  S  S17  1  0.28733883  0.27466591  0.74656061  1
  S  S18  1  0.99174772  0.71494438  0.74653892  1
  S  S19  1  0.72101816  0.01078414  0.74644458  1
  S  S20  1  0.95469652  0.33342017  0.58317555  1
  S  S21  1  0.37879079  0.04505761  0.58321371  1
  S  S22  1  0.66651384  0.62094346  0.58332264  1
  S  S23  1  0.95996460  0.62533971  0.08696666  1
  S  S24  1  0.66604115  0.03727525  0.08628768  1
  S  S25  1  0.37307960  0.33436217  0.08633344  1
  S  S26  1  0.32368228  0.94599987  0.91806582  1
  S  S27  1  0.62837230  0.95929797  0.41954321  1
  S  S28  1  0.33274852  0.37428988  0.42010884  1
  S  S29  1  0.03931535  0.66554524  0.42018465  1
  O  O30  1  0.19772052  0.03735320  0.31090572  1
  O  O31  1  0.82801425  0.79680038  0.30574860  1
  O  O32  1  0.95724415  0.16821215  0.30527384  1
  O  O33  1  0.20877496  0.16752647  0.80156883  1
  O  O34  1  0.96634874  0.79664431  0.80184786  1
  O  O35  1  0.83150967  0.03969102  0.80118264  1
  O  O36  1  0.80094947  0.97384731  0.69173410  1
  O  O37  1  0.17060385  0.19527366  0.69204471  1
  O  O38  1  0.02375728  0.82935571  0.69189096  1
  O  O39  1  0.79303840  0.83239337  0.19517324  1
  O  O40  1  0.02770654  0.19989100  0.19498335  1
  O  O41  1  0.15379146  0.96284268  0.19009747  1
  O  O42  1  0.87263519  0.36970289  0.63743326  1
  O  O43  1  0.49706703  0.12785881  0.63759427  1
  O  O44  1  0.63088376  0.50331054  0.63749986  1
  O  O45  1  0.87032405  0.50497048  0.13979127  1
  O  O46  1  0.63931361  0.12987789  0.13935410  1
  O  O47  1  0.49546715  0.36715978  0.13912536  1
  O  O48  1  0.45362401  0.29621673  0.03132354  1
  O  O49  1  0.84061245  0.53767188  0.03116260  1
  O  O50  1  0.70110613  0.15327869  0.03081631  1
  O  O51  1  0.46123253  0.16272510  0.52885895  1
  O  O52  1  0.70225164  0.53854758  0.52880294  1
  O  O53  1  0.83616558  0.29765236  0.52868346  1
  O  O54  1  0.53519848  0.71453560  0.97827430  1
  O  O55  1  0.16992831  0.47531486  0.97913020  1
  O  O56  1  0.29377624  0.83861974  0.97243868  1
  O  O57  1  0.54069130  0.83846443  0.47244259  1
  O  O58  1  0.30275838  0.46503716  0.47349211  1
  O  O59  1  0.16283390  0.70017766  0.47292252  1
  O  O60  1  0.12250630  0.62894099  0.36462463  1
  O  O61  1  0.50808369  0.87561422  0.36399900  1
  O  O62  1  0.36965796  0.49033020  0.36485211  1
  O  O63  1  0.12916337  0.50552157  0.85734564  1
  O  O64  1  0.36823864  0.87385786  0.86134175  1
  O  O65  1  0.49700125  0.63416838  0.85760777  1
  O  O66  1  0.01847920  0.82514566  0.41027598  1
  O  O67  1  0.80701910  0.97576555  0.40749790  1
  O  O68  1  0.16587248  0.19661760  0.41159268  1
  O  O69  1  0.04327724  0.18764774  0.90258719  1
  O  O70  1  0.16846838  0.96908765  0.90498935  1
  O  O71  1  0.82375300  0.83655264  0.90325265  1
  O  O72  1  0.97454774  0.17117983  0.59262869  1
  O  O73  1  0.19639806  0.02553572  0.59264501  1
  O  O74  1  0.82916187  0.80319689  0.59257737  1
  O  O75  1  0.96440661  0.80075193  0.09164576  1
  O  O76  1  0.82989540  0.01984477  0.09528803  1
  O  O77  1  0.19056814  0.17286222  0.09328744  1
  O  O78  1  0.70017852  0.17259335  0.73713956  1
  O  O79  1  0.47263381  0.30249345  0.73748634  1
  O  O80  1  0.83138474  0.53079268  0.73778344  1
  O  O81  1  0.70545423  0.53567121  0.23984004  1
  O  O82  1  0.83885608  0.31158567  0.24025770  1
  O  O83  1  0.49094717  0.18245759  0.23896295  1
  O  O84  1  0.62865098  0.48980378  0.92697182  1
  O  O85  1  0.85332884  0.35100895  0.92587639  1
  O  O86  1  0.49026865  0.12822031  0.92505304  1
  O  O87  1  0.64302570  0.13862398  0.42860646  1
  O  O88  1  0.49595332  0.35539249  0.42969637  1
  O  O89  1  0.86032541  0.49941499  0.42900656  1
  O  O90  1  0.35973470  0.49938013  0.07951299  1
  O  O91  1  0.14069916  0.64740080  0.07773986  1
  O  O92  1  0.49907820  0.86094035  0.07814759  1
  O  O93  1  0.36038226  0.86316470  0.57303595  1
  O  O94  1  0.50312682  0.64013804  0.57343275  1
  O  O95  1  0.13660640  0.49694205  0.57333156  1
  O  O96  1  0.30694307  0.83245321  0.26017742  1
  O  O97  1  0.53500469  0.68945772  0.25886666  1
  O  O98  1  0.16092372  0.45969742  0.25911589  1
  O  O99  1  0.30466060  0.46072219  0.75182994  1
  O  O100  1  0.15943793  0.69852569  0.75186285  1
  O  O101  1  0.53439693  0.84813290  0.75290677  1
