# generated using pymatgen
data_NaTa2In2P5SO24
_symmetry_space_group_name_H-M   'P 1'
_cell_length_a   8.83097840
_cell_length_b   8.82229373
_cell_length_c   22.91572234
_cell_angle_alpha   89.86282197
_cell_angle_beta   90.10109653
_cell_angle_gamma   119.91830836
_symmetry_Int_Tables_number   1
_chemical_formula_structural   NaTa2In2P5SO24
_chemical_formula_sum   'Na3 Ta6 In6 P15 S3 O72'
_cell_volume   1547.42672674
_cell_formula_units_Z   3
loop_
 _symmetry_equiv_pos_site_id
 _symmetry_equiv_pos_as_xyz
  1  'x, y, z'
loop_
 _atom_site_type_symbol
 _atom_site_label
 _atom_site_symmetry_multiplicity
 _atom_site_fract_x
 _atom_site_fract_y
 _atom_site_fract_z
 _atom_site_occupancy
  Na  Na0  1  0.00078025  0.99992597  0.00576593  1
  Na  Na1  1  0.66634295  0.33319962  0.83280657  1
  Na  Na2  1  0.66815044  0.33208369  0.33937281  1
  Ta  Ta3  1  0.00627687  0.00815539  0.35819725  1
  Ta  Ta4  1  0.99923915  0.00001099  0.85489150  1
  Ta  Ta5  1  0.66521975  0.32662491  0.18650484  1
  Ta  Ta6  1  0.33186913  0.66613755  0.02522444  1
  Ta  Ta7  1  0.33808897  0.66735123  0.51870523  1
  Ta  Ta8  1  0.33415731  0.66626873  0.81019327  1
  In  In9  1  0.99464298  0.99407773  0.64789652  1
  In  In10  1  0.00448242  0.00322993  0.14799632  1
  In  In11  1  0.66468996  0.33891140  0.68704278  1
  In  In12  1  0.66744520  0.33365125  0.97804037  1
  In  In13  1  0.66833708  0.33790987  0.48190113  1
  In  In14  1  0.32919085  0.66725038  0.31265983  1
  P  P15  1  0.29051392  0.00376016  0.25067336  1
  P  P16  1  0.99717703  0.28752391  0.25048756  1
  P  P17  1  0.28752607  0.28700790  0.75078129  1
  P  P18  1  -0.00045787  0.71022875  0.75171421  1
  P  P19  1  0.71046488  0.00306206  0.75129546  1
  P  P20  1  0.66670029  0.62779074  0.58316619  1
  P  P21  1  0.95316501  0.62188675  0.08231105  1
  P  P22  1  0.66804894  0.04369393  0.08162713  1
  P  P23  1  0.37914500  0.33259445  0.08156280  1
  P  P24  1  0.61828597  0.66949016  0.91661828  1
  P  P25  1  0.05104860  0.38166849  0.91638754  1
  P  P26  1  0.33090573  0.94917329  0.91620638  1
  P  P27  1  0.62364021  0.95752049  0.41516879  1
  P  P28  1  0.33713727  0.38104958  0.41514075  1
  P  P29  1  0.04285824  0.66646435  0.41593270  1
  S  S30  1  0.71214407  0.70741363  0.25053603  1
  S  S31  1  0.96505559  0.33624300  0.58274113  1
  S  S32  1  0.37250477  0.03612246  0.58275419  1
  O  O33  1  0.19766655  0.03378243  0.30465242  1
  O  O34  1  0.82653662  0.79079018  0.30265367  1
  O  O35  1  0.96448461  0.16435428  0.30472158  1
  O  O36  1  0.18846843  0.16905085  0.80559951  1
  O  O37  1  0.97846478  0.80923447  0.80598548  1
  O  O38  1  0.82923919  0.02284752  0.80590244  1
  O  O39  1  0.77763520  0.96247815  0.69691777  1
  O  O40  1  0.18008981  0.21750842  0.69611547  1
  O  O41  1  0.04154106  0.81797831  0.69701497  1
  O  O42  1  0.78496763  0.80657923  0.19689713  1
  O  O43  1  0.01862411  0.20885650  0.19518465  1
  O  O44  1  0.18632254  0.97320361  0.19557108  1
  O  O45  1  0.89387994  0.37389384  0.63546861  1
  O  O46  1  0.48299159  0.10481193  0.63532020  1
  O  O47  1  0.62010971  0.51226848  0.63803125  1
  O  O48  1  0.86253101  0.50198628  0.13714651  1
  O  O49  1  0.63874464  0.13413499  0.13685350  1
  O  O50  1  0.49696690  0.35994182  0.13674406  1
  O  O51  1  0.45532812  0.30259636  0.02690723  1
  O  O52  1  0.84843050  0.54722670  0.02724330  1
  O  O53  1  0.70037361  0.15232800  0.02737747  1
  O  O54  1  0.45175059  0.14213597  0.53055449  1
  O  O55  1  0.69623103  0.54643342  0.52921517  1
  O  O56  1  0.85576629  0.30352862  0.53095106  1
  O  O57  1  0.53131120  0.69547039  0.97162319  1
  O  O58  1  0.16355676  0.46837598  0.97166377  1
  O  O59  1  0.30460250  0.83623771  0.97152276  1
  O  O60  1  0.53222387  0.83774224  0.46976102  1
  O  O61  1  0.30615301  0.46924677  0.46971796  1
  O  O62  1  0.16228602  0.69592653  0.47033451  1
  O  O63  1  0.11627662  0.63406695  0.36136410  1
  O  O64  1  0.51705290  0.88194166  0.36086545  1
  O  O65  1  0.36816106  0.48731952  0.36062051  1
  O  O66  1  0.14534991  0.49316140  0.86245080  1
  O  O67  1  0.34799595  0.85457139  0.86246859  1
  O  O68  1  0.50700194  0.65206429  0.86249133  1
  O  O69  1  0.03186547  0.83857667  0.40597426  1
  O  O70  1  0.80453541  0.96560433  0.40626616  1
  O  O71  1  0.16203377  0.19934710  0.40785770  1
  O  O72  1  0.03643365  0.19777297  0.90898921  1
  O  O73  1  0.16158417  0.96389136  0.90863766  1
  O  O74  1  0.80183036  0.83872103  0.90892281  1
  O  O75  1  0.99487915  0.18954243  0.58958020  1
  O  O76  1  0.19909895  0.01362415  0.58953314  1
  O  O77  1  0.81973441  0.81121734  0.58980988  1
  O  O78  1  0.98502044  0.80614656  0.08998614  1
  O  O79  1  0.81763143  0.00837828  0.09030230  1
  O  O80  1  0.19368956  0.18185770  0.08795561  1
  O  O81  1  0.69177020  0.16591979  0.74948058  1
  O  O82  1  0.46790311  0.30366671  0.75110624  1
  O  O83  1  0.83760014  0.52896069  0.75105280  1
  O  O84  1  0.70018423  0.52931397  0.24378963  1
  O  O85  1  0.82350607  0.30037597  0.24230002  1
  O  O86  1  0.47430603  0.17937618  0.24196000  1
  O  O87  1  0.63974409  0.50943930  0.91777603  1
  O  O88  1  0.86989874  0.36069705  0.91783063  1
  O  O89  1  0.49095805  0.13021513  0.91785498  1
  O  O90  1  0.65561662  0.14162291  0.42456439  1
  O  O91  1  0.48466654  0.34184166  0.42280386  1
  O  O92  1  0.85837897  0.51307028  0.42259020  1
  O  O93  1  0.36971679  0.50539372  0.07339793  1
  O  O94  1  0.13536476  0.63194168  0.07365721  1
  O  O95  1  0.49467676  0.86378334  0.07356431  1
  O  O96  1  0.35406566  0.85768268  0.57171527  1
  O  O97  1  0.49870711  0.64379777  0.56932110  1
  O  O98  1  0.14038571  0.49889390  0.57121093  1
  O  O99  1  0.32744326  0.85703521  0.25891459  1
  O  O100  1  0.53739573  0.67956049  0.25796828  1
  O  O101  1  0.14957204  0.46747376  0.25863236  1
  O  O102  1  0.30782411  0.47001826  0.76451029  1
  O  O103  1  0.16271661  0.69100138  0.76545347  1
  O  O104  1  0.52870269  0.83934631  0.76517917  1
