# generated using pymatgen
data_Na2YGaP2SO12
_symmetry_space_group_name_H-M   'P 1'
_cell_length_a   8.92660265
_cell_length_b   8.94883320
_cell_length_c   22.83815913
_cell_angle_alpha   90.64079877
_cell_angle_beta   89.45977043
_cell_angle_gamma   120.17968773
_symmetry_Int_Tables_number   1
_chemical_formula_structural   Na2YGaP2SO12
_chemical_formula_sum   'Na12 Y6 Ga6 P12 S6 O72'
_cell_volume   1576.97120225
_cell_formula_units_Z   6
loop_
 _symmetry_equiv_pos_site_id
 _symmetry_equiv_pos_as_xyz
  1  'x, y, z'
loop_
 _atom_site_type_symbol
 _atom_site_label
 _atom_site_symmetry_multiplicity
 _atom_site_fract_x
 _atom_site_fract_y
 _atom_site_fract_z
 _atom_site_occupancy
  Na  Na0  1  0.99593387  0.63476835  0.25666794  1
  Na  Na1  1  0.37040765  0.00912466  0.74833191  1
  Na  Na2  1  0.66367284  0.95718972  0.58770343  1
  Na  Na3  1  0.03993893  0.33773055  0.09031265  1
  Na  Na4  1  0.32631095  0.29995941  0.92024848  1
  Na  Na5  1  0.69701137  0.67027862  0.41845522  1
  Na  Na6  1  0.02901113  0.99934162  0.49880416  1
  Na  Na7  1  0.00978233  0.97703760  0.00152088  1
  Na  Na8  1  0.69152024  0.32636119  0.82948368  1
  Na  Na9  1  0.66561003  0.30853758  0.33529282  1
  Na  Na10  1  0.35638618  0.66104336  0.17462225  1
  Na  Na11  1  0.33863131  0.64295263  0.66391185  1
  Y  Y12  1  0.99385688  0.00511636  0.84533416  1
  Y  Y13  1  0.00070255  0.99815083  0.15722930  1
  Y  Y14  1  0.66847974  0.32881969  0.98235975  1
  Y  Y15  1  0.33060296  0.67687780  0.02223260  1
  Y  Y16  1  0.32633859  0.66961955  0.51653060  1
  Y  Y17  1  0.33614301  0.66383912  0.80881403  1
  Ga  Ga18  1  0.97937749  0.99682740  0.34819206  1
  Ga  Ga19  1  0.00402201  0.99677361  0.64509810  1
  Ga  Ga20  1  0.65461201  0.33242351  0.67974221  1
  Ga  Ga21  1  0.66609494  0.35129737  0.18833504  1
  Ga  Ga22  1  0.66644031  0.33154612  0.48280376  1
  Ga  Ga23  1  0.33166375  0.66719753  0.32097891  1
  P  P24  1  0.68692603  0.69485978  0.25559417  1
  P  P25  1  0.00080183  0.30515314  0.25340669  1
  P  P26  1  0.29886947  0.29006239  0.74191673  1
  P  P27  1  0.70912855  0.01467754  0.73780238  1
  P  P28  1  0.37493263  0.05584141  0.58348979  1
  P  P29  1  0.68017373  0.62491957  0.58261708  1
  P  P30  1  0.95709177  0.62569328  0.09097066  1
  P  P31  1  0.37575751  0.33553972  0.08769589  1
  P  P32  1  0.03578967  0.36668266  0.91771549  1
  P  P33  1  0.33115195  0.96888129  0.91151138  1
  P  P34  1  0.63127814  0.97002170  0.41616554  1
  P  P35  1  0.02952749  0.67022653  0.41224311  1
  S  S36  1  0.30482513  0.00022777  0.25590806  1
  S  S37  1  0.98687552  0.69587537  0.74204924  1
  S  S38  1  0.94788400  0.32561036  0.58402204  1
  S  S39  1  0.66579765  0.04462742  0.09209417  1
  S  S40  1  0.63533102  0.66914286  0.91671628  1
  S  S41  1  0.32849610  0.36189676  0.41389150  1
  O  O42  1  0.21387251  0.02553588  0.30603414  1
  O  O43  1  0.81550821  0.78132289  0.30792986  1
  O  O44  1  0.97494209  0.17658512  0.30268061  1
  O  O45  1  0.23147667  0.19378309  0.80093955  1
  O  O46  1  0.96495931  0.76816099  0.79764024  1
  O  O47  1  0.80501323  0.03011699  0.79480936  1
  O  O48  1  0.79940188  0.98778717  0.68356241  1
  O  O49  1  0.17635080  0.18197982  0.69202542  1
  O  O50  1  0.01181237  0.81007880  0.69242846  1
  O  O51  1  0.76339277  0.80234203  0.20040565  1
  O  O52  1  0.03345125  0.24247517  0.19409703  1
  O  O53  1  0.19982374  0.96304237  0.20192815  1
  O  O54  1  0.86514143  0.34569165  0.63711645  1
  O  O55  1  0.48497220  0.13028516  0.63964787  1
  O  O56  1  0.66022424  0.51487121  0.63616033  1
  O  O57  1  0.86786342  0.51947184  0.14719589  1
  O  O58  1  0.65736641  0.14113706  0.14323369  1
  O  O59  1  0.48581648  0.33877239  0.14005776  1
  O  O60  1  0.44847283  0.32107868  0.02762205  1
  O  O61  1  0.86001810  0.53356245  0.03519106  1
  O  O62  1  0.67839542  0.13217328  0.03630711  1
  O  O63  1  0.46632489  0.16775411  0.52928576  1
  O  O64  1  0.69951550  0.54345171  0.52412147  1
  O  O65  1  0.84429131  0.30258828  0.53047740  1
  O  O66  1  0.54927738  0.67997101  0.97041092  1
  O  O67  1  0.13285091  0.44930943  0.97570018  1
  O  O68  1  0.33085652  0.86866881  0.96572134  1
  O  O69  1  0.56661206  0.85891215  0.47233478  1
  O  O70  1  0.29781303  0.43349224  0.46825758  1
  O  O71  1  0.14012228  0.70029281  0.46656877  1
  O  O72  1  0.11622716  0.64173598  0.35711720  1
  O  O73  1  0.50607365  0.87256240  0.36505609  1
  O  O74  1  0.36255062  0.48180126  0.36433181  1
  O  O75  1  0.14199120  0.47254457  0.86483052  1
  O  O76  1  0.34231411  0.88448572  0.85356666  1
  O  O77  1  0.53728083  0.66019108  0.86393361  1
  O  O78  1  0.00524655  0.83094804  0.40504000  1
  O  O79  1  0.81269632  0.98662322  0.40548398  1
  O  O80  1  0.17738487  0.18747897  0.40446736  1
  O  O81  1  0.02259336  0.18765528  0.91584350  1
  O  O82  1  0.16625436  0.98370542  0.91358676  1
  O  O83  1  0.81044770  0.82018835  0.91525057  1
  O  O84  1  0.96316129  0.16705055  0.58615216  1
  O  O85  1  0.19115008  0.03299231  0.58846052  1
  O  O86  1  0.84243987  0.81296161  0.58749455  1
  O  O87  1  0.97804984  0.80569043  0.09140827  1
  O  O88  1  0.82594700  0.03316420  0.09301370  1
  O  O89  1  0.18902619  0.17789550  0.09083620  1
  O  O90  1  0.69039638  0.17834193  0.73502248  1
  O  O91  1  0.48166425  0.30883269  0.73683416  1
  O  O92  1  0.83615557  0.52062589  0.73627652  1
  O  O93  1  0.67645666  0.51494451  0.24890706  1
  O  O94  1  0.83656117  0.32579383  0.24938809  1
  O  O95  1  0.47833720  0.15548782  0.24895608  1
  O  O96  1  0.64195077  0.50731109  0.91625580  1
  O  O97  1  0.85686358  0.34883006  0.91485993  1
  O  O98  1  0.48815622  0.15563200  0.91240029  1
  O  O99  1  0.64867975  0.15036568  0.42493073  1
  O  O100  1  0.49184346  0.35461224  0.41961261  1
  O  O101  1  0.84385457  0.50666937  0.42006429  1
  O  O102  1  0.35942910  0.50004197  0.08920463  1
  O  O103  1  0.13630467  0.63691148  0.09059499  1
  O  O104  1  0.51274008  0.87052799  0.09199616  1
  O  O105  1  0.36076719  0.87576993  0.57822917  1
  O  O106  1  0.51962135  0.64959081  0.57995180  1
  O  O107  1  0.12321351  0.47906817  0.58057639  1
  O  O108  1  0.31943587  0.84242794  0.26267881  1
  O  O109  1  0.50661586  0.67323812  0.26641055  1
  O  O110  1  0.16030795  0.49004443  0.26393604  1
  O  O111  1  0.31543337  0.46855705  0.74315471  1
  O  O112  1  0.14918827  0.68753174  0.74458739  1
  O  O113  1  0.52195975  0.85582004  0.74059060  1
