# generated using pymatgen
data_Na10In4Ga4Si5S7O48
_symmetry_space_group_name_H-M   'P 1'
_cell_length_a   17.87469562
_cell_length_b   8.99102380
_cell_length_c   22.65345665
_cell_angle_alpha   89.59826737
_cell_angle_beta   88.78516332
_cell_angle_gamma   120.06336628
_symmetry_Int_Tables_number   1
_chemical_formula_structural   Na10In4Ga4Si5S7O48
_chemical_formula_sum   'Na30 In12 Ga12 Si15 S21 O144'
_cell_volume   3149.54222177
_cell_formula_units_Z   3
loop_
 _symmetry_equiv_pos_site_id
 _symmetry_equiv_pos_as_xyz
  1  'x, y, z'
loop_
 _atom_site_type_symbol
 _atom_site_label
 _atom_site_symmetry_multiplicity
 _atom_site_fract_x
 _atom_site_fract_y
 _atom_site_fract_z
 _atom_site_occupancy
  Na  Na0  1  0.32326656  0.00027261  0.24911056  1
  Na  Na1  1  0.82220371  0.99758327  0.25260616  1
  Na  Na2  1  0.18404642  0.37499782  0.24224848  1
  Na  Na3  1  0.67995916  0.36967947  0.24536541  1
  Na  Na4  1  0.99424324  0.63072435  0.25913813  1
  Na  Na5  1  0.49756852  0.62655259  0.25724763  1
  Na  Na6  1  0.82552065  0.64706061  0.74465952  1
  Na  Na7  1  0.99456696  0.36258493  0.75600155  1
  Na  Na8  1  0.49687184  0.35642882  0.75664030  1
  Na  Na9  1  0.17872053  0.99000409  0.74298685  1
  Na  Na10  1  0.01850737  0.70913395  0.58483140  1
  Na  Na11  1  0.33029639  0.97073132  0.58964245  1
  Na  Na12  1  0.02233428  0.32933983  0.08323005  1
  Na  Na13  1  0.51684978  0.33030014  0.08573587  1
  Na  Na14  1  0.16174539  0.30129167  0.92553743  1
  Na  Na15  1  0.66382286  0.30004562  0.92537969  1
  Na  Na16  1  0.16309506  0.02096209  0.42462132  1
  Na  Na17  1  0.66284933  0.03061934  0.42335749  1
  Na  Na18  1  0.99486479  0.99641895  0.50234680  1
  Na  Na19  1  0.50948262  0.99588172  0.49699283  1
  Na  Na20  1  0.00220823  0.00376903  0.00030953  1
  Na  Na21  1  0.50096438  0.99792657  0.00428053  1
  Na  Na22  1  0.34420556  0.33447609  0.83529765  1
  Na  Na23  1  0.84578590  0.32323992  0.83119979  1
  Na  Na24  1  0.34844778  0.36021870  0.33676475  1
  Na  Na25  1  0.84536545  0.35879403  0.33827619  1
  Na  Na26  1  0.17441430  0.65983374  0.16700981  1
  Na  Na27  1  0.67476800  0.66096342  0.16553678  1
  Na  Na28  1  0.17036197  0.67276126  0.66925222  1
  Na  Na29  1  0.67860855  0.70563504  0.66022656  1
  In  In30  1  0.98904496  0.98461793  0.35175110  1
  In  In31  1  0.99065844  0.99412671  0.84763107  1
  In  In32  1  0.49468569  0.00997977  0.85090052  1
  In  In33  1  0.50683122  0.00054772  0.64543642  1
  In  In34  1  0.99918171  0.00474063  0.15287879  1
  In  In35  1  0.83020573  0.33854406  0.18281428  1
  In  In36  1  0.33719364  0.33511388  0.98505275  1
  In  In37  1  0.83303562  0.33169674  0.98378591  1
  In  In38  1  0.16819905  0.65340491  0.01832610  1
  In  In39  1  0.16366714  0.66835185  0.51705932  1
  In  In40  1  0.16281527  0.66881477  0.81354906  1
  In  In41  1  0.66772972  0.68125481  0.81586905  1
  Ga  Ga42  1  0.48579565  0.97268227  0.34792213  1
  Ga  Ga43  1  0.99958615  0.98703741  0.64918219  1
  Ga  Ga44  1  0.50100235  0.01691489  0.15385637  1
  Ga  Ga45  1  0.32952932  0.31358190  0.67990335  1
  Ga  Ga46  1  0.83087225  0.31012285  0.68425453  1
  Ga  Ga47  1  0.33764981  0.35729316  0.18625099  1
  Ga  Ga48  1  0.33805038  0.34759425  0.48364013  1
  Ga  Ga49  1  0.83564707  0.34731593  0.48424457  1
  Ga  Ga50  1  0.66233487  0.63892837  0.01825845  1
  Ga  Ga51  1  0.65999513  0.70436096  0.51750339  1
  Ga  Ga52  1  0.15747463  0.64129226  0.31585172  1
  Ga  Ga53  1  0.65340927  0.62948321  0.31734466  1
  Si  Si54  1  0.35491254  0.71256319  0.24988483  1
  Si  Si55  1  0.84585938  0.70037080  0.25279731  1
  Si  Si56  1  0.00057148  0.30011650  0.25040315  1
  Si  Si57  1  0.49684211  0.28531562  0.25060947  1
  Si  Si58  1  0.99461646  0.69785683  0.74481195  1
  Si  Si59  1  0.35347061  0.00565225  0.74427803  1
  Si  Si60  1  0.85380868  0.00154367  0.74499726  1
  Si  Si61  1  0.18664765  0.05260692  0.58117297  1
  Si  Si62  1  0.69424902  0.05353362  0.58046495  1
  Si  Si63  1  0.18836983  0.32917964  0.08591794  1
  Si  Si64  1  0.67905612  0.32518920  0.08346213  1
  Si  Si65  1  0.01486975  0.36134360  0.91668705  1
  Si  Si66  1  0.51917931  0.37486028  0.91699720  1
  Si  Si67  1  0.01524887  0.65999316  0.41782499  1
  Si  Si68  1  0.51691871  0.66637154  0.41503592  1
  S  S69  1  0.15186344  0.00126850  0.25133384  1
  S  S70  1  0.64179573  0.99459682  0.25122223  1
  S  S71  1  0.15128804  0.29384056  0.74613460  1
  S  S72  1  0.65102006  0.29581159  0.75001775  1
  S  S73  1  0.49619048  0.69801055  0.74922711  1
  S  S74  1  0.48094363  0.34397870  0.58157537  1
  S  S75  1  0.97742998  0.32641957  0.58391288  1
  S  S76  1  0.33263073  0.61685059  0.58337132  1
  S  S77  1  0.83003021  0.62317716  0.58288361  1
  S  S78  1  0.48428989  0.63788598  0.08497114  1
  S  S79  1  0.98413553  0.63756435  0.08302179  1
  S  S80  1  0.33334492  0.03596272  0.08704064  1
  S  S81  1  0.82757944  0.02294788  0.08246184  1
  S  S82  1  0.31646449  0.66852958  0.91516624  1
  S  S83  1  0.81200477  0.66829460  0.91908402  1
  S  S84  1  0.16709386  0.96414827  0.91688274  1
  S  S85  1  0.66495906  0.95665590  0.91943225  1
  S  S86  1  0.31671150  0.96298850  0.41527840  1
  S  S87  1  0.80875007  0.95549078  0.41778633  1
  S  S88  1  0.16938587  0.37356080  0.41619310  1
  S  S89  1  0.66650845  0.37778593  0.41885006  1
  O  O90  1  0.11533166  0.03695751  0.30505863  1
  O  O91  1  0.60433041  0.02755009  0.30533285  1
  O  O92  1  0.41702298  0.77967408  0.30630940  1
  O  O93  1  0.91421678  0.77104041  0.30539301  1
  O  O94  1  0.47886810  0.15305492  0.30621154  1
  O  O95  1  0.98191046  0.17530597  0.30712186  1
  O  O96  1  0.11827184  0.19252512  0.80272062  1
  O  O97  1  0.61565971  0.19340620  0.80603974  1
  O  O98  1  0.48657969  0.77813803  0.80346657  1
  O  O99  1  0.97571603  0.77899781  0.80375821  1
  O  O100  1  0.41694439  0.05728298  0.80007964  1
  O  O101  1  0.90986103  0.05115025  0.80465095  1
  O  O102  1  0.39551696  0.97780997  0.68356010  1
  O  O103  1  0.90372840  0.96715231  0.68974502  1
  O  O104  1  0.09396529  0.20654873  0.69677313  1
  O  O105  1  0.59304237  0.21371141  0.70031260  1
  O  O106  1  0.02001948  0.82673011  0.68683588  1
  O  O107  1  0.51205983  0.80512862  0.69588030  1
  O  O108  1  0.40040543  0.84200336  0.19267853  1
  O  O109  1  0.88531369  0.82492726  0.19392895  1
  O  O110  1  0.02602059  0.23638361  0.18987412  1
  O  O111  1  0.52120356  0.21860814  0.19012812  1
  O  O112  1  0.09533983  0.96323755  0.20016713  1
  O  O113  1  0.58909404  0.97010303  0.19874076  1
  O  O114  1  0.44330469  0.36911360  0.63829589  1
  O  O115  1  0.93993118  0.36169799  0.63799028  1
  O  O116  1  0.24676542  0.13248126  0.63930124  1
  O  O117  1  0.74896183  0.14375636  0.63848455  1
  O  O118  1  0.32499452  0.51585919  0.63753745  1
  O  O119  1  0.81916775  0.52449724  0.63841385  1
  O  O120  1  0.44512929  0.51928412  0.13857234  1
  O  O121  1  0.94744734  0.52934481  0.13806639  1
  O  O122  1  0.32281154  0.11883509  0.14045059  1
  O  O123  1  0.81561183  0.09617521  0.13863227  1
  O  O124  1  0.24661137  0.34662911  0.14361924  1
  O  O125  1  0.73479217  0.35756008  0.14247808  1
  O  O126  1  0.22872188  0.31257322  0.02246547  1
  O  O127  1  0.72146350  0.30115959  0.02236096  1
  O  O128  1  0.43203817  0.56029550  0.03238115  1
  O  O129  1  0.93211827  0.55215155  0.03136348  1
  O  O130  1  0.35188422  0.14597462  0.03305323  1
  O  O131  1  0.84625873  0.14358490  0.03206194  1
  O  O132  1  0.23747703  0.16715379  0.52074293  1
  O  O133  1  0.73899912  0.16457604  0.51873647  1
  O  O134  1  0.34385707  0.53946444  0.52916602  1
  O  O135  1  0.85005641  0.54320729  0.53137229  1
  O  O136  1  0.42285361  0.31614838  0.53192489  1
  O  O137  1  0.92751132  0.31107389  0.53102979  1
  O  O138  1  0.28027231  0.69931487  0.96999855  1
  O  O139  1  0.76666564  0.68984126  0.97102586  1
  O  O140  1  0.07371277  0.44501966  0.97552097  1
  O  O141  1  0.57925961  0.46723834  0.97418125  1
  O  O142  1  0.15993996  0.86086579  0.96990443  1
  O  O143  1  0.65782197  0.85070099  0.97144713  1
  O  O144  1  0.28035449  0.86146428  0.47180059  1
  O  O145  1  0.76607100  0.84341719  0.47086839  1
  O  O146  1  0.15889055  0.45552236  0.46953596  1
  O  O147  1  0.65657234  0.46714284  0.46946736  1
  O  O148  1  0.07390831  0.70291144  0.47665429  1
  O  O149  1  0.58113427  0.71030069  0.47046855  1
  O  O150  1  0.06477407  0.63903470  0.35812625  1
  O  O151  1  0.56124651  0.63689972  0.35464451  1
  O  O152  1  0.26081024  0.87599095  0.36450264  1
  O  O153  1  0.76055924  0.87596915  0.36328777  1
  O  O154  1  0.18187376  0.47825026  0.36133684  1
  O  O155  1  0.68070602  0.47660670  0.36132855  1
  O  O156  1  0.05919404  0.46986371  0.85519842  1
  O  O157  1  0.56070020  0.47746877  0.85405270  1
  O  O158  1  0.18067629  0.89223677  0.86153490  1
  O  O159  1  0.68063489  0.89150862  0.86336121  1
  O  O160  1  0.26443804  0.65071362  0.86318153  1
  O  O161  1  0.76504037  0.64836190  0.86352423  1
  O  O162  1  0.01383311  0.84225174  0.41316763  1
  O  O163  1  0.51328819  0.84852059  0.40749877  1
  O  O164  1  0.40434569  0.98507089  0.40971416  1
  O  O165  1  0.89729856  0.98027219  0.41773353  1
  O  O166  1  0.09197535  0.19960101  0.41306276  1
  O  O167  1  0.58951618  0.20244301  0.41424762  1
  O  O168  1  0.01435720  0.17676378  0.91390881  1
  O  O169  1  0.51822419  0.18902494  0.91712487  1
  O  O170  1  0.08767085  0.97767046  0.91434407  1
  O  O171  1  0.58444194  0.96823511  0.91591074  1
  O  O172  1  0.40573755  0.81543715  0.91098768  1
  O  O173  1  0.89964126  0.81838282  0.91801740  1
  O  O174  1  0.48457101  0.18194968  0.58511508  1
  O  O175  1  0.98673327  0.17354130  0.58953338  1
  O  O176  1  0.08794687  0.02451532  0.58742616  1
  O  O177  1  0.59538002  0.02713051  0.58258933  1
  O  O178  1  0.40820702  0.79507028  0.58448233  1
  O  O179  1  0.91079323  0.79767042  0.58525058  1
  O  O180  1  0.49238018  0.80612514  0.09346803  1
  O  O181  1  0.99060771  0.80596499  0.08798093  1
  O  O182  1  0.41122942  0.01663385  0.09040677  1
  O  O183  1  0.90707071  0.00877819  0.08460129  1
  O  O184  1  0.08949628  0.16044466  0.08700477  1
  O  O185  1  0.58075921  0.15306640  0.09014954  1
  O  O186  1  0.34433502  0.18312248  0.73981018  1
  O  O187  1  0.84343209  0.17166737  0.73995467  1
  O  O188  1  0.23933376  0.31452019  0.73793000  1
  O  O189  1  0.73860589  0.32261358  0.74181955  1
  O  O190  1  0.41742904  0.52478098  0.74400529  1
  O  O191  1  0.90731953  0.50831163  0.73588514  1
  O  O192  1  0.34098432  0.51651610  0.24262488  1
  O  O193  1  0.83066434  0.50568305  0.24735615  1
  O  O194  1  0.41018525  0.30774416  0.24142265  1
  O  O195  1  0.91217277  0.31287917  0.24410893  1
  O  O196  1  0.23897701  0.15584482  0.24216556  1
  O  O197  1  0.73056213  0.14765545  0.24558961  1
  O  O198  1  0.31840687  0.50538826  0.91904635  1
  O  O199  1  0.81530923  0.50647827  0.92320507  1
  O  O200  1  0.42303389  0.35226019  0.92151952  1
  O  O201  1  0.91991789  0.34610316  0.92087564  1
  O  O202  1  0.24289900  0.14241689  0.91914169  1
  O  O203  1  0.73927297  0.13644447  0.92174628  1
  O  O204  1  0.32052826  0.13227538  0.42006549  1
  O  O205  1  0.81371904  0.12552495  0.42161510  1
  O  O206  1  0.24737070  0.35365656  0.41900779  1
  O  O207  1  0.74481417  0.35659981  0.42139648  1
  O  O208  1  0.42092404  0.49113236  0.42655554  1
  O  O209  1  0.91959980  0.48382148  0.42645758  1
  O  O210  1  0.17593861  0.50084400  0.08622843  1
  O  O211  1  0.66745825  0.49890178  0.07837881  1
  O  O212  1  0.07181800  0.65650019  0.07814949  1
  O  O213  1  0.57098511  0.65071612  0.07790924  1
  O  O214  1  0.25357948  0.86685199  0.08101267  1
  O  O215  1  0.74900008  0.85436525  0.07437609  1
  O  O216  1  0.17969373  0.85901585  0.57993844  1
  O  O217  1  0.68322049  0.85778381  0.57754696  1
  O  O218  1  0.25302285  0.63316817  0.58090467  1
  O  O219  1  0.75252244  0.63756189  0.57460073  1
  O  O220  1  0.06619967  0.48618722  0.58009757  1
  O  O221  1  0.56851373  0.49435202  0.57429215  1
  O  O222  1  0.16298180  0.84864561  0.25849684  1
  O  O223  1  0.65168803  0.84069862  0.25605259  1
  O  O224  1  0.25810522  0.69485911  0.26110954  1
  O  O225  1  0.75122385  0.69166911  0.26357426  1
  O  O226  1  0.08637359  0.49470651  0.25628989  1
  O  O227  1  0.58184805  0.47933533  0.25713410  1
  O  O228  1  0.15849968  0.46503823  0.75045076  1
  O  O229  1  0.65738655  0.46750292  0.75454051  1
  O  O230  1  0.07973346  0.67365469  0.74858010  1
  O  O231  1  0.57238797  0.67066469  0.75156524  1
  O  O232  1  0.25622154  0.84101950  0.75260509  1
  O  O233  1  0.76021687  0.81828455  0.75062010  1
