# generated using pymatgen
data_Hg3(SeCl)2
_symmetry_space_group_name_H-M   'P 1'
_cell_length_a   7.98397737
_cell_length_b   7.98397778
_cell_length_c   7.98397821
_cell_angle_alpha   109.47121907
_cell_angle_beta   109.47122019
_cell_angle_gamma   109.47122379
_symmetry_Int_Tables_number   1
_chemical_formula_structural   Hg3(SeCl)2
_chemical_formula_sum   'Hg6 Se4 Cl4'
_cell_volume   391.77440787
_cell_formula_units_Z   2
loop_
 _symmetry_equiv_pos_site_id
 _symmetry_equiv_pos_as_xyz
  1  'x, y, z'
loop_
 _atom_site_type_symbol
 _atom_site_label
 _atom_site_symmetry_multiplicity
 _atom_site_fract_x
 _atom_site_fract_y
 _atom_site_fract_z
 _atom_site_occupancy
  Hg  Hg0  1  0.75000000  0.94462606  0.19462606  1
  Hg  Hg1  1  0.30537394  0.25000000  0.55537394  1
  Hg  Hg2  1  0.55537394  0.30537394  0.25000000  1
  Hg  Hg3  1  0.19462606  0.75000000  0.94462606  1
  Hg  Hg4  1  0.94462606  0.19462606  0.75000000  1
  Hg  Hg5  1  0.25000000  0.55537394  0.30537394  1
  Se  Se6  1  0.95503152  0.50000000  0.00000000  1
  Se  Se7  1  0.50000000  -0.00000000  0.95503152  1
  Se  Se8  1  0.54496848  0.54496848  0.54496848  1
  Se  Se9  1  0.00000000  0.95503152  0.50000000  1
  Cl  Cl10  1  0.47146047  0.50000000  -0.00000000  1
  Cl  Cl11  1  0.50000000  0.00000000  0.47146047  1
  Cl  Cl12  1  -0.00000000  0.47146047  0.50000000  1
  Cl  Cl13  1  0.02853953  0.02853953  0.02853953  1
