# generated using pymatgen
data_Na6Hf2Zr2Si5SO24
_symmetry_space_group_name_H-M   'P 1'
_cell_length_a   9.16584223
_cell_length_b   9.17106427
_cell_length_c   23.00045866
_cell_angle_alpha   89.96948959
_cell_angle_beta   89.98446266
_cell_angle_gamma   119.95908548
_symmetry_Int_Tables_number   1
_chemical_formula_structural   Na6Hf2Zr2Si5SO24
_chemical_formula_sum   'Na18 Hf6 Zr6 Si15 S3 O72'
_cell_volume   1675.08944340
_cell_formula_units_Z   3
loop_
 _symmetry_equiv_pos_site_id
 _symmetry_equiv_pos_as_xyz
  1  'x, y, z'
loop_
 _atom_site_type_symbol
 _atom_site_label
 _atom_site_symmetry_multiplicity
 _atom_site_fract_x
 _atom_site_fract_y
 _atom_site_fract_z
 _atom_site_occupancy
  Na  Na0  1  0.63960027  0.00271828  0.25218514  1
  Na  Na1  1  0.36090619  0.36391399  0.24746949  1
  Na  Na2  1  0.00053880  0.63457068  0.25047561  1
  Na  Na3  1  0.63655450  0.63524508  0.74787381  1
  Na  Na4  1  0.99638597  0.36191300  0.75023519  1
  Na  Na5  1  0.36693916  0.00419099  0.75041321  1
  Na  Na6  1  0.30142683  0.33233137  0.58530656  1
  Na  Na7  1  0.02890078  0.69858022  0.58304157  1
  Na  Na8  1  0.67063765  0.96990729  0.58331593  1
  Na  Na9  1  0.03838679  0.33613591  0.08645712  1
  Na  Na10  1  0.97689802  0.66725530  0.91696301  1
  Na  Na11  1  0.33333059  0.02503327  0.41680348  1
  Na  Na12  1  0.98313498  0.98931671  0.49827318  1
  Na  Na13  1  0.02051919  0.00788573  0.00005782  1
  Na  Na14  1  0.66097229  0.31577359  0.83420031  1
  Na  Na15  1  0.68476247  0.33858586  0.33602110  1
  Na  Na16  1  0.33548980  0.66456659  0.16550491  1
  Na  Na17  1  0.33499599  0.66605547  0.66678117  1
  Hf  Hf18  1  0.98737327  0.99061441  0.35254635  1
  Hf  Hf19  1  0.99982078  0.99949268  0.64813281  1
  Hf  Hf20  1  0.66870872  0.33399974  0.68463323  1
  Hf  Hf21  1  0.67961980  0.33626284  0.48187515  1
  Hf  Hf22  1  0.33640164  0.67674695  0.51931693  1
  Hf  Hf23  1  0.32623338  0.66927341  0.81369990  1
  Zr  Zr24  1  0.01088780  0.01366111  0.85192597  1
  Zr  Zr25  1  0.00806726  0.99367377  0.14768536  1
  Zr  Zr26  1  0.66612823  0.34208824  0.18602881  1
  Zr  Zr27  1  0.65664524  0.32883533  0.97981874  1
  Zr  Zr28  1  0.31921861  0.65969622  0.01932270  1
  Zr  Zr29  1  0.32961667  0.67141918  0.31505046  1
  Si  Si30  1  0.29335578  0.00226717  0.25313492  1
  Si  Si31  1  0.70827359  0.71074524  0.24951753  1
  Si  Si32  1  0.99962106  0.28846217  0.24906079  1
  Si  Si33  1  0.29600956  0.29550486  0.74813599  1
  Si  Si34  1  0.99730989  0.70725111  0.75083596  1
  Si  Si35  1  0.70767762  0.99911199  0.74944949  1
  Si  Si36  1  0.96172853  0.33284302  0.58414136  1
  Si  Si37  1  0.37526367  0.04451607  0.58225925  1
  Si  Si38  1  0.66594399  0.62396698  0.58349819  1
  Si  Si39  1  0.95641630  0.62841249  0.08175197  1
  Si  Si40  1  0.37078052  0.33473571  0.08381081  1
  Si  Si41  1  0.03568756  0.36917452  0.91640709  1
  Si  Si42  1  0.33401923  0.96105909  0.91549499  1
  Si  Si43  1  0.63091092  0.96420825  0.41735340  1
  Si  Si44  1  0.03508758  0.66681214  0.41715344  1
  S  S45  1  0.66565920  0.04075109  0.08344001  1
  S  S46  1  0.62325584  0.66765940  0.91640751  1
  S  S47  1  0.33346646  0.37406368  0.41733101  1
  O  O48  1  0.21094051  0.03761885  0.31041963  1
  O  O49  1  0.83135232  0.79463510  0.30593838  1
  O  O50  1  0.96851641  0.16427841  0.30419458  1
  O  O51  1  0.20860454  0.17039399  0.80370877  1
  O  O52  1  0.96332525  0.79033677  0.80808322  1
  O  O53  1  0.83314016  0.03425566  0.80413807  1
  O  O54  1  0.79068089  0.96595268  0.69107631  1
  O  O55  1  0.17587662  0.21225840  0.69084524  1
  O  O56  1  0.03244241  0.82710248  0.69347442  1
  O  O57  1  0.79206918  0.83359785  0.19375980  1
  O  O58  1  0.03251488  0.20929322  0.19012685  1
  O  O59  1  0.16961430  0.96405314  0.19706323  1
  O  O60  1  0.88048751  0.37033625  0.64185849  1
  O  O61  1  0.49472900  0.12868159  0.63957559  1
  O  O62  1  0.63218407  0.50884768  0.64213996  1
  O  O63  1  0.87192597  0.50781118  0.13967316  1
  O  O64  1  0.64048438  0.11583837  0.13733886  1
  O  O65  1  0.47986991  0.35360989  0.14308599  1
  O  O66  1  0.46737350  0.30826090  0.02860983  1
  O  O67  1  0.84534606  0.53174430  0.02424185  1
  O  O68  1  0.69058432  0.15015307  0.03250125  1
  O  O69  1  0.46026434  0.16245122  0.52515404  1
  O  O70  1  0.69883770  0.53120885  0.52900487  1
  O  O71  1  0.83544590  0.29675673  0.52904402  1
  O  O72  1  0.54144937  0.68691079  0.96769149  1
  O  O73  1  0.15168599  0.45995452  0.97451917  1
  O  O74  1  0.31086035  0.83847738  0.97085942  1
  O  O75  1  0.53758147  0.84677700  0.47494388  1
  O  O76  1  0.31267846  0.45665172  0.46971218  1
  O  O77  1  0.15701317  0.69194166  0.47380054  1
  O  O78  1  0.12457023  0.64115511  0.35877272  1
  O  O79  1  0.51154990  0.87148602  0.35991117  1
  O  O80  1  0.35514026  0.47443600  0.36446617  1
  O  O81  1  0.13144937  0.49046281  0.85945750  1
  O  O82  1  0.35852071  0.87276807  0.85649916  1
  O  O83  1  0.52345697  0.64566076  0.86242713  1
  O  O84  1  0.03670478  0.84724172  0.41243509  1
  O  O85  1  0.81827802  0.98622116  0.41206777  1
  O  O86  1  0.18157261  0.20370505  0.41330815  1
  O  O87  1  0.01465959  0.18260186  0.91232322  1
  O  O88  1  0.15480633  0.96181605  0.91216152  1
  O  O89  1  0.79460564  0.81609008  0.91193565  1
  O  O90  1  0.97891708  0.16412025  0.58951337  1
  O  O91  1  0.18696089  0.02188280  0.58919000  1
  O  O92  1  0.83378799  0.81196090  0.58919013  1
  O  O93  1  0.97373193  0.81319636  0.08669932  1
  O  O94  1  0.82290512  0.03250559  0.08745355  1
  O  O95  1  0.17740883  0.17349265  0.08691399  1
  O  O96  1  0.68570055  0.16576424  0.74356125  1
  O  O97  1  0.48204508  0.31296590  0.74276503  1
  O  O98  1  0.83207092  0.51930451  0.74375033  1
  O  O99  1  0.69150595  0.52357159  0.24410565  1
  O  O100  1  0.83092929  0.30792609  0.24403493  1
  O  O101  1  0.48159713  0.16561905  0.24468722  1
  O  O102  1  0.64222383  0.51444061  0.92012436  1
  O  O103  1  0.85573419  0.36773282  0.92123074  1
  O  O104  1  0.49940421  0.14815669  0.92114608  1
  O  O105  1  0.63060085  0.14371618  0.42221053  1
  O  O106  1  0.48438492  0.35405162  0.42197801  1
  O  O107  1  0.84807888  0.50174230  0.42256707  1
  O  O108  1  0.35510624  0.50542601  0.07872538  1
  O  O109  1  0.14336560  0.64073226  0.07832482  1
  O  O110  1  0.51814715  0.87193051  0.07693064  1
  O  O111  1  0.35610095  0.85528605  0.57679805  1
  O  O112  1  0.49612920  0.64067463  0.57591167  1
  O  O113  1  0.14905708  0.49909381  0.57558821  1
  O  O114  1  0.31207470  0.83276856  0.25666650  1
  O  O115  1  0.51855964  0.68291869  0.25731667  1
  O  O116  1  0.16804411  0.47556370  0.25686989  1
  O  O117  1  0.31659359  0.48268087  0.75678594  1
  O  O118  1  0.16768977  0.68857126  0.75591669  1
  O  O119  1  0.52171600  0.82904694  0.75676286  1
