# generated using pymatgen
data_Na3Sc2Nb2SiP5O24
_symmetry_space_group_name_H-M   'P 1'
_cell_length_a   8.89860075
_cell_length_b   8.88218968
_cell_length_c   22.72515459
_cell_angle_alpha   89.98060354
_cell_angle_beta   90.05068592
_cell_angle_gamma   119.96275800
_symmetry_Int_Tables_number   1
_chemical_formula_structural   Na3Sc2Nb2SiP5O24
_chemical_formula_sum   'Na9 Sc6 Nb6 Si3 P15 O72'
_cell_volume   1556.11585694
_cell_formula_units_Z   3
loop_
 _symmetry_equiv_pos_site_id
 _symmetry_equiv_pos_as_xyz
  1  'x, y, z'
loop_
 _atom_site_type_symbol
 _atom_site_label
 _atom_site_symmetry_multiplicity
 _atom_site_fract_x
 _atom_site_fract_y
 _atom_site_fract_z
 _atom_site_occupancy
  Na  Na0  1  0.35890694  0.99259924  0.75201275  1
  Na  Na1  1  0.67283420  0.97333002  0.58669798  1
  Na  Na2  1  0.67620527  0.70023804  0.08318430  1
  Na  Na3  1  0.01612818  0.00050009  0.50413942  1
  Na  Na4  1  0.01244186  0.00668831  0.00392958  1
  Na  Na5  1  0.67609700  0.34451652  0.83890732  1
  Na  Na6  1  0.66509493  0.33217779  0.33793833  1
  Na  Na7  1  0.32428203  0.66621444  0.17253395  1
  Na  Na8  1  0.32796433  0.64986150  0.67148955  1
  Sc  Sc9  1  0.00251737  0.99891825  0.64694817  1
  Sc  Sc10  1  0.00660446  0.00333610  0.14726439  1
  Sc  Sc11  1  0.66853815  0.33503868  0.98026315  1
  Sc  Sc12  1  0.66129444  0.33133664  0.47937143  1
  Sc  Sc13  1  0.33394482  0.66728940  0.31328190  1
  Sc  Sc14  1  0.33700694  0.66461538  0.81395430  1
  Nb  Nb15  1  0.00049699  0.00020996  0.35389363  1
  Nb  Nb16  1  0.99378321  0.99940522  0.85429263  1
  Nb  Nb17  1  0.66869262  0.33288648  0.68678330  1
  Nb  Nb18  1  0.67123411  0.33424408  0.18808493  1
  Nb  Nb19  1  0.32613564  0.66675539  0.02011959  1
  Nb  Nb20  1  0.32984190  0.66622759  0.51972117  1
  Si  Si21  1  0.70717250  0.99813431  0.74690029  1
  Si  Si22  1  0.37051652  0.04327601  0.58145964  1
  Si  Si23  1  0.95726919  0.62469461  0.08235698  1
  P  P24  1  0.29151558  0.00098245  0.24948183  1
  P  P25  1  0.70908809  0.70914014  0.24827404  1
  P  P26  1  -0.00033579  0.29043688  0.24942996  1
  P  P27  1  0.28908033  0.29018568  0.74949365  1
  P  P28  1  0.99669698  0.70787938  0.75055331  1
  P  P29  1  0.95757047  0.33662976  0.58189976  1
  P  P30  1  0.66553812  0.62152564  0.58156488  1
  P  P31  1  0.66581630  0.04422378  0.08261187  1
  P  P32  1  0.37760433  0.33257261  0.08210015  1
  P  P33  1  0.62454878  0.66612483  0.91680833  1
  P  P34  1  0.04294273  0.37577738  0.91528473  1
  P  P35  1  0.33245536  0.95918379  0.91435503  1
  P  P36  1  0.62495479  0.95681838  0.41545311  1
  P  P37  1  0.33272658  0.37660176  0.41475424  1
  P  P38  1  0.04286358  0.66642963  0.41472423  1
  O  O39  1  0.19884162  0.02681340  0.30522442  1
  O  O40  1  0.82958798  0.80307267  0.30319485  1
  O  O41  1  0.97391394  0.17296912  0.30525418  1
  O  O42  1  0.20405225  0.16965231  0.80491066  1
  O  O43  1  0.97234972  0.79956578  0.80622496  1
  O  O44  1  0.83481271  0.02523994  0.80542590  1
  O  O45  1  0.78900671  0.97410524  0.68788624  1
  O  O46  1  0.18246295  0.20411162  0.69499058  1
  O  O47  1  0.03226039  0.82372186  0.69703344  1
  O  O48  1  0.79015769  0.81219560  0.19233300  1
  O  O49  1  0.02095090  0.20507816  0.19502801  1
  O  O50  1  0.18236058  0.97666979  0.19520970  1
  O  O51  1  0.87011598  0.36597678  0.63832879  1
  O  O52  1  0.49873713  0.13319500  0.64178010  1
  O  O53  1  0.64009505  0.50805466  0.63785822  1
  O  O54  1  0.86199312  0.49772869  0.14161100  1
  O  O55  1  0.63514795  0.12925821  0.13884240  1
  O  O56  1  0.49735315  0.36484935  0.13768383  1
  O  O57  1  0.45878338  0.30612158  0.02779389  1
  O  O58  1  0.83457773  0.53629581  0.02711139  1
  O  O59  1  0.68920403  0.15077123  0.02848309  1
  O  O60  1  0.47030403  0.15728133  0.52599997  1
  O  O61  1  0.69217088  0.53986055  0.52765171  1
  O  O62  1  0.84550331  0.30875543  0.52874418  1
  O  O63  1  0.54118075  0.69427768  0.97379501  1
  O  O64  1  0.16152273  0.46812172  0.97133167  1
  O  O65  1  0.30873851  0.83672795  0.96947741  1
  O  O66  1  0.53885052  0.84234732  0.47276782  1
  O  O67  1  0.30523595  0.46574109  0.47088483  1
  O  O68  1  0.16192669  0.69496783  0.47117514  1
  O  O69  1  0.13021631  0.64533071  0.36126856  1
  O  O70  1  0.51384442  0.86760400  0.36253045  1
  O  O71  1  0.35248942  0.48376126  0.36085765  1
  O  O72  1  0.12869297  0.48406007  0.86132396  1
  O  O73  1  0.35267349  0.87583854  0.85870337  1
  O  O74  1  0.51634132  0.64904953  0.86299653  1
  O  O75  1  0.03219544  0.83813859  0.40991555  1
  O  O76  1  0.80686657  0.96672757  0.40942782  1
  O  O77  1  0.16205870  0.19273381  0.40958667  1
  O  O78  1  0.03472540  0.19466419  0.91092134  1
  O  O79  1  0.16210466  0.96880056  0.91145412  1
  O  O80  1  0.80858501  0.83706483  0.91089373  1
  O  O81  1  0.97591607  0.17606809  0.58973832  1
  O  O82  1  0.17906470  0.01122035  0.58788335  1
  O  O83  1  0.81559359  0.80798991  0.58833888  1
  O  O84  1  0.97836258  0.81403987  0.09004173  1
  O  O85  1  0.81868852  0.01283955  0.09040632  1
  O  O86  1  0.19444436  0.18213098  0.09022411  1
  O  O87  1  0.69594916  0.18137083  0.74352847  1
  O  O88  1  0.47130297  0.30106167  0.74419027  1
  O  O89  1  0.82809998  0.52979447  0.74444682  1
  O  O90  1  0.69652960  0.52579663  0.24433117  1
  O  O91  1  0.82637552  0.29857342  0.24501732  1
  O  O92  1  0.47199048  0.17111993  0.24449277  1
  O  O93  1  0.64893032  0.50933761  0.92117268  1
  O  O94  1  0.86183873  0.34757003  0.92276527  1
  O  O95  1  0.48916272  0.13764383  0.92234984  1
  O  O96  1  0.65425397  0.13959493  0.42179238  1
  O  O97  1  0.48850327  0.35125817  0.42104204  1
  O  O98  1  0.86263749  0.51217683  0.42255890  1
  O  O99  1  0.37294481  0.50822402  0.07649981  1
  O  O100  1  0.14958849  0.63843433  0.07548837  1
  O  O101  1  0.49856292  0.85818717  0.07649835  1
  O  O102  1  0.36652993  0.85158572  0.57552411  1
  O  O103  1  0.49494003  0.63446305  0.57616643  1
  O  O104  1  0.13989603  0.50264187  0.57642896  1
  O  O105  1  0.31624209  0.84494778  0.25671346  1
  O  O106  1  0.52887771  0.68472374  0.25606280  1
  O  O107  1  0.15321434  0.47226027  0.25644411  1
  O  O108  1  0.31398194  0.47049359  0.75667802  1
  O  O109  1  0.15439305  0.68505509  0.75849330  1
  O  O110  1  0.51075675  0.84175477  0.75511373  1
