# generated using pymatgen
data_Na4Mg(BiO3)2
_symmetry_space_group_name_H-M   'P 1'
_cell_length_a   6.34905994
_cell_length_b   6.41998489
_cell_length_c   6.01183071
_cell_angle_alpha   82.04947734
_cell_angle_beta   99.38249075
_cell_angle_gamma   59.92394204
_symmetry_Int_Tables_number   1
_chemical_formula_structural   Na4Mg(BiO3)2
_chemical_formula_sum   'Na4 Mg1 Bi2 O6'
_cell_volume   202.15146524
_cell_formula_units_Z   1
loop_
 _symmetry_equiv_pos_site_id
 _symmetry_equiv_pos_as_xyz
  1  'x, y, z'
loop_
 _atom_site_type_symbol
 _atom_site_label
 _atom_site_symmetry_multiplicity
 _atom_site_fract_x
 _atom_site_fract_y
 _atom_site_fract_z
 _atom_site_occupancy
  Na  Na0  1  0.02449687  0.19006730  0.48207792  1
  Na  Na1  1  0.97403276  0.73093051  0.51080318  1
  Na  Na2  1  0.46901154  0.63889060  0.43985028  1
  Na  Na3  1  0.99467077  0.00967033  0.99624732  1
  Mg  Mg4  1  0.48969091  0.15622616  0.46945366  1
  Bi  Bi5  1  0.65077631  0.67487117  0.95061058  1
  Bi  Bi6  1  0.33939179  0.32413153  0.00570292  1
  O  O7  1  0.28827185  0.78042452  0.75141503  1
  O  O8  1  0.20604349  0.50314567  0.29150626  1
  O  O9  1  0.34261148  0.02706328  0.23604899  1
  O  O10  1  0.85934013  0.47024010  0.72771616  1
  O  O11  1  0.63388984  0.00838156  0.79763717  1
  O  O12  1  0.70693926  0.17345727  0.26801350  1
