# generated using pymatgen
data_Tl5Se2Cl
_symmetry_space_group_name_H-M   'P 1'
_cell_length_a   8.68401037
_cell_length_b   8.68401037
_cell_length_c   12.98979858
_cell_angle_alpha   90.00000000
_cell_angle_beta   90.00000000
_cell_angle_gamma   90.00000000
_symmetry_Int_Tables_number   1
_chemical_formula_structural   Tl5Se2Cl
_chemical_formula_sum   'Tl20 Se8 Cl4'
_cell_volume   979.58715953
_cell_formula_units_Z   4
loop_
 _symmetry_equiv_pos_site_id
 _symmetry_equiv_pos_as_xyz
  1  'x, y, z'
loop_
 _atom_site_type_symbol
 _atom_site_label
 _atom_site_symmetry_multiplicity
 _atom_site_fract_x
 _atom_site_fract_y
 _atom_site_fract_z
 _atom_site_occupancy
  Tl  Tl0  1  0.37047343  0.66504432  0.60461780  1
  Tl  Tl1  1  0.83495568  0.87047343  0.60461780  1
  Tl  Tl2  1  0.16504432  0.12952657  0.60461780  1
  Tl  Tl3  1  0.87047343  0.83495568  0.89538220  1
  Tl  Tl4  1  0.12952657  0.16504432  0.89538220  1
  Tl  Tl5  1  0.62952657  0.33495568  0.60461780  1
  Tl  Tl6  1  0.66504432  0.37047343  0.89538220  1
  Tl  Tl7  1  0.33495568  0.62952657  0.89538220  1
  Tl  Tl8  1  0.16504432  0.87047343  0.10461780  1
  Tl  Tl9  1  0.83495568  0.12952657  0.10461780  1
  Tl  Tl10  1  0.87047343  0.16504432  0.39538220  1
  Tl  Tl11  1  0.37047343  0.33495568  0.10461780  1
  Tl  Tl12  1  0.62952657  0.66504432  0.10461780  1
  Tl  Tl13  1  0.33495568  0.37047343  0.39538220  1
  Tl  Tl14  1  0.66504432  0.62952657  0.39538220  1
  Tl  Tl15  1  0.12952657  0.83495568  0.39538220  1
  Tl  Tl16  1  0.50000000  -0.00000000  0.79511587  1
  Tl  Tl17  1  -0.00000000  0.50000000  0.70488413  1
  Tl  Tl18  1  -0.00000000  0.50000000  0.20488413  1
  Tl  Tl19  1  0.50000000  -0.00000000  0.29511587  1
  Se  Se20  1  0.66020460  0.33979540  0.25000000  1
  Se  Se21  1  0.16020460  0.16020460  0.25000000  1
  Se  Se22  1  0.83979540  0.83979540  0.25000000  1
  Se  Se23  1  0.33979540  0.66020460  0.25000000  1
  Se  Se24  1  0.16020460  0.83979540  0.75000000  1
  Se  Se25  1  0.66020460  0.66020460  0.75000000  1
  Se  Se26  1  0.33979540  0.33979540  0.75000000  1
  Se  Se27  1  0.83979540  0.16020460  0.75000000  1
  Cl  Cl28  1  0.50000000  -0.00000000  0.54561920  1
  Cl  Cl29  1  -0.00000000  0.50000000  0.95438080  1
  Cl  Cl30  1  -0.00000000  0.50000000  0.45438080  1
  Cl  Cl31  1  0.50000000  -0.00000000  0.04561920  1
