# generated using pymatgen
data_MgFe8(OF)8
_symmetry_space_group_name_H-M   'P 1'
_cell_length_a   5.17032065
_cell_length_b   5.09024618
_cell_length_c   11.84688420
_cell_angle_alpha   91.66905898
_cell_angle_beta   92.19588555
_cell_angle_gamma   85.48246935
_symmetry_Int_Tables_number   1
_chemical_formula_structural   MgFe8(OF)8
_chemical_formula_sum   'Mg1 Fe8 O8 F8'
_cell_volume   310.48514774
_cell_formula_units_Z   1
loop_
 _symmetry_equiv_pos_site_id
 _symmetry_equiv_pos_as_xyz
  1  'x, y, z'
loop_
 _atom_site_type_symbol
 _atom_site_label
 _atom_site_symmetry_multiplicity
 _atom_site_fract_x
 _atom_site_fract_y
 _atom_site_fract_z
 _atom_site_occupancy
  Mg  Mg0  1  0.51802800  0.98810600  0.13923100  1
  Fe  Fe1  1  0.94825800  0.94551100  0.99085100  1
  Fe  Fe2  1  0.05582400  0.07434400  0.26849700  1
  Fe  Fe3  1  0.93351600  0.89060100  0.50195200  1
  Fe  Fe4  1  0.09262900  0.05858500  0.74781900  1
  Fe  Fe5  1  0.57007200  0.47093900  0.12471100  1
  Fe  Fe6  1  0.46483000  0.52665900  0.62646900  1
  Fe  Fe7  1  0.46268400  0.54330400  0.87807400  1
  Fe  Fe8  1  0.44430800  0.51945000  0.37578700  1
  O  O9  1  0.15139700  0.77796700  0.37714300  1
  O  O10  1  0.17910700  0.80723400  0.62728500  1
  O  O11  1  0.17857800  0.81864300  0.87442200  1
  O  O12  1  0.37297800  0.28509100  0.24517100  1
  O  O13  1  0.33163600  0.32708600  0.75151500  1
  O  O14  1  0.66457100  0.72390600  0.00302600  1
  O  O15  1  0.65384500  0.66605900  0.50399700  1
  O  O16  1  0.84555100  0.16412500  0.12090200  1
  F  F17  1  0.21193600  0.78759000  0.11594800  1
  F  F18  1  0.35746100  0.28425700  0.99440800  1
  F  F19  1  0.31018600  0.31297200  0.50085900  1
  F  F20  1  0.64476700  0.73122600  0.25972300  1
  F  F21  1  0.66162800  0.69052000  0.75631600  1
  F  F22  1  0.80285700  0.18566700  0.39865500  1
  F  F23  1  0.81251900  0.17980300  0.63227100  1
  F  F24  1  0.83083400  0.21257600  0.87246800  1
