# generated using pymatgen
data_Na7In2Si3Ge2(PO8)3
_symmetry_space_group_name_H-M   'P 1'
_cell_length_a   8.94140962
_cell_length_b   8.93928571
_cell_length_c   22.05372346
_cell_angle_alpha   89.92338286
_cell_angle_beta   89.55547549
_cell_angle_gamma   119.85262117
_symmetry_Int_Tables_number   1
_chemical_formula_structural   Na7In2Si3Ge2(PO8)3
_chemical_formula_sum   'Na21 In6 Si9 Ge6 P9 O72'
_cell_volume   1528.77489340
_cell_formula_units_Z   3
loop_
 _symmetry_equiv_pos_site_id
 _symmetry_equiv_pos_as_xyz
  1  'x, y, z'
loop_
 _atom_site_type_symbol
 _atom_site_label
 _atom_site_symmetry_multiplicity
 _atom_site_fract_x
 _atom_site_fract_y
 _atom_site_fract_z
 _atom_site_occupancy
  Na  Na0  1  0.61853666  0.00243326  0.25425267  1
  Na  Na1  1  0.37981497  0.38259056  0.24770091  1
  Na  Na2  1  0.00020361  0.61287006  0.25036541  1
  Na  Na3  1  0.62862341  0.63008407  0.74735840  1
  Na  Na4  1  0.99172883  0.36853863  0.74742339  1
  Na  Na5  1  0.37875078  0.00258308  0.74401946  1
  Na  Na6  1  0.02697596  0.69020726  0.58368086  1
  Na  Na7  1  0.66325910  0.96976651  0.58171132  1
  Na  Na8  1  0.66810287  0.68465684  0.08184912  1
  Na  Na9  1  0.02267275  0.33868372  0.08849396  1
  Na  Na10  1  0.95902195  0.66477291  0.92165256  1
  Na  Na11  1  0.70581881  0.03571442  0.91780715  1
  Na  Na12  1  0.34312088  0.29981584  0.91937632  1
  Na  Na13  1  0.96980153  0.30613011  0.41554488  1
  Na  Na14  1  0.33383329  0.02872745  0.41910649  1
  Na  Na15  1  0.99945087  0.99965201  0.49995584  1
  Na  Na16  1  0.01506984  0.99729945  0.00465685  1
  Na  Na17  1  0.66602432  0.33272313  0.83272839  1
  Na  Na18  1  0.67502613  0.35030282  0.33856701  1
  Na  Na19  1  0.32509494  0.67252962  0.16490797  1
  Na  Na20  1  0.33232571  0.65308975  0.65943839  1
  In  In21  1  0.99655244  0.99921994  0.85343804  1
  In  In22  1  0.67048611  0.33333720  0.67615845  1
  In  In23  1  0.67205517  0.33474664  0.18268371  1
  In  In24  1  0.66488934  0.33795324  0.98936168  1
  In  In25  1  0.32624981  0.66000958  0.31955855  1
  In  In26  1  0.33838199  0.66979226  0.81180296  1
  Si  Si27  1  0.99781881  0.27827297  0.25267650  1
  Si  Si28  1  0.71276648  0.00247057  0.74629172  1
  Si  Si29  1  0.97385050  0.33732488  0.58015291  1
  Si  Si30  1  0.36579488  0.03361463  0.58135900  1
  Si  Si31  1  0.98279701  0.64877264  0.08510542  1
  Si  Si32  1  0.35868570  0.33166562  0.08408336  1
  Si  Si33  1  0.62366884  0.66365363  0.91740901  1
  Si  Si34  1  0.62715307  0.96243296  0.41717029  1
  Si  Si35  1  0.02490909  0.66313266  0.41724918  1
  Ge  Ge36  1  0.98570933  0.99119621  0.35720347  1
  Ge  Ge37  1  0.00640842  0.01080301  0.64322690  1
  Ge  Ge38  1  0.00860169  0.00556564  0.14753077  1
  Ge  Ge39  1  0.66658489  0.32687601  0.48397685  1
  Ge  Ge40  1  0.33511745  0.66656890  0.02084935  1
  Ge  Ge41  1  0.32952144  0.67266676  0.51402486  1
  P  P42  1  0.27707458  0.00087288  0.25269445  1
  P  P43  1  0.72142211  0.72143199  0.25090928  1
  P  P44  1  0.28781947  0.28658904  0.74727506  1
  P  P45  1  0.99931962  0.71183902  0.74641112  1
  P  P46  1  0.65996027  0.62638192  0.58137004  1
  P  P47  1  0.66429866  0.02352947  0.08555502  1
  P  P48  1  0.04582750  0.37947009  0.91923827  1
  P  P49  1  0.33655741  0.95550538  0.91735727  1
  P  P50  1  0.34091967  0.37420975  0.41719265  1
  O  O51  1  0.19301996  0.01948945  0.31226182  1
  O  O52  1  0.83093375  0.80659017  0.30829970  1
  O  O53  1  0.98114988  0.16696175  0.31498294  1
  O  O54  1  0.22065558  0.19099114  0.80848998  1
  O  O55  1  0.98571574  0.78843155  0.80730141  1
  O  O56  1  0.81193597  0.03147499  0.81047537  1
  O  O57  1  0.81581745  0.97761252  0.68706943  1
  O  O58  1  0.17269889  0.18456910  0.69287776  1
  O  O59  1  0.02022569  0.82660486  0.69003401  1
  O  O60  1  0.80828704  0.82468526  0.19237686  1
  O  O61  1  0.00973330  0.18038720  0.19151691  1
  O  O62  1  0.16714555  0.98031270  0.19628898  1
  O  O63  1  0.91539285  0.39623680  0.64164429  1
  O  O64  1  0.47901956  0.09875818  0.64236570  1
  O  O65  1  0.63178144  0.53758269  0.64386963  1
  O  O66  1  0.90999748  0.51621663  0.14332772  1
  O  O67  1  0.63113971  0.09708394  0.14404013  1
  O  O68  1  0.48873892  0.38250265  0.14176196  1
  O  O69  1  0.42891892  0.29217512  0.02217854  1
  O  O70  1  0.85420472  0.57070595  0.02741913  1
  O  O71  1  0.70613713  0.14306031  0.03009536  1
  O  O72  1  0.46484704  0.16162706  0.52345987  1
  O  O73  1  0.69447556  0.52303309  0.53214912  1
  O  O74  1  0.82842232  0.29122617  0.52669484  1
  O  O75  1  0.51769036  0.68317828  0.97613634  1
  O  O76  1  0.15466928  0.47781276  0.97502737  1
  O  O77  1  0.31375761  0.83132422  0.96983200  1
  O  O78  1  0.52892422  0.83742285  0.47554578  1
  O  O79  1  0.30497080  0.47772395  0.46566854  1
  O  O80  1  0.16855839  0.70828841  0.47098658  1
  O  O81  1  0.08523234  0.60628049  0.35550528  1
  O  O82  1  0.51335839  0.89493753  0.35573096  1
  O  O83  1  0.37236246  0.46278641  0.35428726  1
  O  O84  1  0.11413250  0.47881366  0.85868751  1
  O  O85  1  0.35252263  0.88735081  0.85468235  1
  O  O86  1  0.52337212  0.63494264  0.85355068  1
  O  O87  1  0.02149148  0.84727530  0.41077445  1
  O  O88  1  0.82457765  0.98905069  0.41321302  1
  O  O89  1  0.17371800  0.19125067  0.41646023  1
  O  O90  1  0.04294671  0.20481849  0.92023800  1
  O  O91  1  0.17462908  0.97689248  0.91976474  1
  O  O92  1  0.81331334  0.83967046  0.92122169  1
  O  O93  1  0.98013588  0.15596949  0.58718635  1
  O  O94  1  0.16645808  0.00284852  0.58852142  1
  O  O95  1  0.82879725  0.80836221  0.58278927  1
  O  O96  1  0.98935851  0.83413929  0.09524525  1
  O  O97  1  0.82636793  0.00198205  0.09125350  1
  O  O98  1  0.16146364  0.16892406  0.09282923  1
  O  O99  1  0.69421362  0.17545652  0.74424778  1
  O  O100  1  0.47206585  0.31436760  0.74283365  1
  O  O101  1  0.83260574  0.53390477  0.74489242  1
  O  O102  1  0.70141743  0.53867161  0.25033371  1
  O  O103  1  0.82347032  0.29669136  0.25295692  1
  O  O104  1  0.45797962  0.16604236  0.24981392  1
  O  O105  1  0.64730780  0.49358845  0.91910693  1
  O  O106  1  0.85978522  0.34881804  0.92383634  1
  O  O107  1  0.50398576  0.13278351  0.92189227  1
  O  O108  1  0.64866516  0.15839845  0.42534129  1
  O  O109  1  0.49898787  0.35051689  0.42770823  1
  O  O110  1  0.83658828  0.49132518  0.43112253  1
  O  O111  1  0.33839004  0.50699951  0.07707552  1
  O  O112  1  0.17309270  0.66811236  0.07367214  1
  O  O113  1  0.50562485  0.84145181  0.07702964  1
  O  O114  1  0.34493548  0.83858055  0.57263237  1
  O  O115  1  0.50304909  0.65183546  0.57114593  1
  O  O116  1  0.16288308  0.50773337  0.56612542  1
  O  O117  1  0.29714158  0.83844616  0.25199140  1
  O  O118  1  0.54105383  0.70646299  0.25244102  1
  O  O119  1  0.17314712  0.46952231  0.25040528  1
  O  O120  1  0.29001406  0.46093417  0.74574625  1
  O  O121  1  0.16173667  0.69083110  0.74491845  1
  O  O122  1  0.52282970  0.82705050  0.74336483  1
