# generated using pymatgen
data_Ta3GaSi3(SO8)3
_symmetry_space_group_name_H-M   'P 1'
_cell_length_a   8.79372183
_cell_length_b   8.83620504
_cell_length_c   22.70003782
_cell_angle_alpha   89.85137453
_cell_angle_beta   89.13407036
_cell_angle_gamma   119.88129556
_symmetry_Int_Tables_number   1
_chemical_formula_structural   Ta3GaSi3(SO8)3
_chemical_formula_sum   'Ta9 Ga3 Si9 S9 O72'
_cell_volume   1529.09598477
_cell_formula_units_Z   3
loop_
 _symmetry_equiv_pos_site_id
 _symmetry_equiv_pos_as_xyz
  1  'x, y, z'
loop_
 _atom_site_type_symbol
 _atom_site_label
 _atom_site_symmetry_multiplicity
 _atom_site_fract_x
 _atom_site_fract_y
 _atom_site_fract_z
 _atom_site_occupancy
  Ta  Ta0  1  0.00924960  0.98823067  0.85609734  1
  Ta  Ta1  1  0.01330815  0.01479903  0.64614816  1
  Ta  Ta2  1  0.99733021  0.99464408  0.14032152  1
  Ta  Ta3  1  0.67606693  0.33896739  0.97441750  1
  Ta  Ta4  1  0.66848602  0.32241908  0.47456890  1
  Ta  Ta5  1  0.34335441  0.68841945  0.02442973  1
  Ta  Ta6  1  0.33477275  0.65324645  0.52287722  1
  Ta  Ta7  1  0.34376854  0.67039956  0.31111755  1
  Ta  Ta8  1  0.34036785  0.66927815  0.80698295  1
  Ga  Ga9  1  0.00470098  0.01682632  0.35922349  1
  Ga  Ga10  1  0.68572215  0.35137005  0.69573150  1
  Ga  Ga11  1  0.67722735  0.32530952  0.18158372  1
  Si  Si12  1  0.30077390  0.28902104  0.74960699  1
  Si  Si13  1  0.99817786  0.70802842  0.74795305  1
  Si  Si14  1  0.94300106  0.33150336  0.58670151  1
  Si  Si15  1  0.94734914  0.60770824  0.08519946  1
  Si  Si16  1  0.66621384  0.05570810  0.08570677  1
  Si  Si17  1  0.61751288  0.66820982  0.91546935  1
  Si  Si18  1  0.33971720  0.95570905  0.91537737  1
  Si  Si19  1  0.62492230  0.94797619  0.41542426  1
  Si  Si20  1  0.33184369  0.37285943  0.41537460  1
  S  S21  1  0.28810148  0.00572525  0.25091466  1
  S  S22  1  0.71821541  0.70895372  0.25065176  1
  S  S23  1  0.99655543  0.28710693  0.25055727  1
  S  S24  1  0.71691645  0.00454522  0.75006773  1
  S  S25  1  0.38148200  0.04448172  0.58347704  1
  S  S26  1  0.67028385  0.62074597  0.58365064  1
  S  S27  1  0.38382811  0.33640036  0.08515233  1
  S  S28  1  0.05221443  0.38067698  0.91623352  1
  S  S29  1  0.04919034  0.67181791  0.41610291  1
  O  O30  1  0.20108669  0.02488479  0.30400580  1
  O  O31  1  0.82258772  0.79036577  0.30244267  1
  O  O32  1  0.96932720  0.17782952  0.30317790  1
  O  O33  1  0.19035606  0.16622084  0.80625034  1
  O  O34  1  0.97257428  0.80797521  0.80598881  1
  O  O35  1  0.82161924  0.02854152  0.80250552  1
  O  O36  1  0.79759768  0.97104503  0.69631029  1
  O  O37  1  0.16512095  0.19746325  0.69242594  1
  O  O38  1  0.02698343  0.83775593  0.69105006  1
  O  O39  1  0.79959916  0.82663782  0.19734464  1
  O  O40  1  0.03250911  0.20813654  0.19779212  1
  O  O41  1  0.17604807  0.97512101  0.19805296  1
  O  O42  1  0.84784234  0.35886040  0.64185831  1
  O  O43  1  0.48435479  0.11709082  0.63515122  1
  O  O44  1  0.62714796  0.51175231  0.63594248  1
  O  O45  1  0.86531495  0.50621587  0.14591402  1
  O  O46  1  0.62109554  0.12289015  0.14505165  1
  O  O47  1  0.48601608  0.36620197  0.13824794  1
  O  O48  1  0.45649437  0.29794591  0.03199777  1
  O  O49  1  0.82633254  0.52787744  0.02743937  1
  O  O50  1  0.70001059  0.17413404  0.02727512  1
  O  O51  1  0.46192356  0.15877748  0.52928675  1
  O  O52  1  0.69453615  0.54013854  0.52979561  1
  O  O53  1  0.82893554  0.30998731  0.52649964  1
  O  O54  1  0.51847117  0.68529185  0.97435726  1
  O  O55  1  0.15398538  0.45677775  0.96951279  1
  O  O56  1  0.30148457  0.83232175  0.97455371  1
  O  O57  1  0.51935812  0.83026785  0.47299662  1
  O  O58  1  0.30205530  0.47261231  0.47234701  1
  O  O59  1  0.15655431  0.69602422  0.46869562  1
  O  O60  1  0.12806796  0.63439724  0.36262491  1
  O  O61  1  0.49191110  0.85832493  0.35816198  1
  O  O62  1  0.36111471  0.50620977  0.35847120  1
  O  O63  1  0.12869214  0.49174028  0.86320170  1
  O  O64  1  0.36552014  0.85924341  0.85917432  1
  O  O65  1  0.49493082  0.63507663  0.85885888  1
  O  O66  1  0.02911766  0.82221461  0.40660939  1
  O  O67  1  0.80873773  0.96198735  0.40337639  1
  O  O68  1  0.16978302  0.18571326  0.40488657  1
  O  O69  1  0.02400454  0.20434670  0.90793734  1
  O  O70  1  0.16648408  0.97702029  0.90889079  1
  O  O71  1  0.80529538  0.84465150  0.90574031  1
  O  O72  1  0.96914496  0.16083494  0.59338197  1
  O  O73  1  0.20294668  0.02721167  0.58878129  1
  O  O74  1  0.82204740  0.79756577  0.58986178  1
  O  O75  1  0.98073325  0.81089601  0.09684262  1
  O  O76  1  0.84030753  0.03108817  0.09740898  1
  O  O77  1  0.20440994  0.17467181  0.09504143  1
  O  O78  1  0.69000118  0.15163662  0.74204538  1
  O  O79  1  0.47869008  0.29479556  0.73405758  1
  O  O80  1  0.82906502  0.52280987  0.74485114  1
  O  O81  1  0.68500150  0.53278872  0.24103976  1
  O  O82  1  0.84260035  0.30812911  0.24341394  1
  O  O83  1  0.46222339  0.15910173  0.24231056  1
  O  O84  1  0.64238599  0.49947420  0.92783159  1
  O  O85  1  0.87458053  0.36557286  0.92321134  1
  O  O86  1  0.50642235  0.14606834  0.92898174  1
  O  O87  1  0.63893285  0.14001364  0.42576059  1
  O  O88  1  0.51085263  0.36992190  0.43009362  1
  O  O89  1  0.87326992  0.51158737  0.42491432  1
  O  O90  1  0.35150219  0.48232584  0.07532237  1
  O  O91  1  0.13935469  0.62954849  0.07296557  1
  O  O92  1  0.50400685  0.85673909  0.07529082  1
  O  O93  1  0.35487760  0.86794308  0.57136600  1
  O  O94  1  0.50967578  0.64313342  0.57370068  1
  O  O95  1  0.13862825  0.50328487  0.57201894  1
  O  O96  1  0.30216312  0.84234895  0.25829831  1
  O  O97  1  0.53879548  0.69960596  0.25701663  1
  O  O98  1  0.15702699  0.46524279  0.25871341  1
  O  O99  1  0.31006265  0.47649413  0.76005890  1
  O  O100  1  0.17605870  0.69943788  0.76060667  1
  O  O101  1  0.54259570  0.84056860  0.75548750  1
