# generated using pymatgen
data_Ho2Mo4O15
_symmetry_space_group_name_H-M   'P 1'
_cell_length_a   9.55602940
_cell_length_b   6.77747806
_cell_length_c   10.52109737
_cell_angle_alpha   74.67622319
_cell_angle_beta   90.00000000
_cell_angle_gamma   90.00000000
_symmetry_Int_Tables_number   1
_chemical_formula_structural   Ho2Mo4O15
_chemical_formula_sum   'Ho4 Mo8 O30'
_cell_volume   657.18157455
_cell_formula_units_Z   2
loop_
 _symmetry_equiv_pos_site_id
 _symmetry_equiv_pos_as_xyz
  1  'x, y, z'
loop_
 _atom_site_type_symbol
 _atom_site_label
 _atom_site_symmetry_multiplicity
 _atom_site_fract_x
 _atom_site_fract_y
 _atom_site_fract_z
 _atom_site_occupancy
  Ho  Ho0  1  0.97701070  0.78777729  0.27638558  1
  Ho  Ho1  1  0.47701070  0.21222271  0.22361442  1
  Ho  Ho2  1  0.02298930  0.21222271  0.72361442  1
  Ho  Ho3  1  0.52298930  0.78777729  0.77638558  1
  Mo  Mo4  1  0.09577571  0.37968012  0.15640847  1
  Mo  Mo5  1  0.59577571  0.62031988  0.34359153  1
  Mo  Mo6  1  0.90422429  0.62031988  0.84359153  1
  Mo  Mo7  1  0.40422429  0.37968012  0.65640847  1
  Mo  Mo8  1  0.25627491  0.91950543  0.01064404  1
  Mo  Mo9  1  0.75627491  0.08049457  0.48935596  1
  Mo  Mo10  1  0.74372509  0.08049457  0.98935596  1
  Mo  Mo11  1  0.24372509  0.91950543  0.51064404  1
  O  O12  1  -0.00000000  0.50000000  -0.00000000  1
  O  O13  1  0.50000000  0.50000000  0.50000000  1
  O  O14  1  0.02846352  0.44635935  0.29380932  1
  O  O15  1  0.52846352  0.55364065  0.20619068  1
  O  O16  1  0.97153648  0.55364065  0.70619068  1
  O  O17  1  0.47153648  0.44635935  0.79380932  1
  O  O18  1  0.27754676  0.38801665  0.14700276  1
  O  O19  1  0.77754676  0.61198335  0.35299724  1
  O  O20  1  0.72245324  0.61198335  0.85299724  1
  O  O21  1  0.22245324  0.38801665  0.64700276  1
  O  O22  1  0.05605458  0.12142002  0.18257892  1
  O  O23  1  0.55605458  0.87857998  0.31742108  1
  O  O24  1  0.12570093  0.02283714  0.60288218  1
  O  O25  1  0.62570093  0.97716286  0.89711782  1
  O  O26  1  0.87429907  0.97716286  0.39711782  1
  O  O27  1  0.37429907  0.02283714  0.10288218  1
  O  O28  1  0.33366455  0.12026693  0.40035020  1
  O  O29  1  0.83366455  0.87973307  0.09964980  1
  O  O30  1  0.66633545  0.87973307  0.59964980  1
  O  O31  1  0.16633545  0.12026693  0.90035020  1
  O  O32  1  0.15348886  0.78022948  0.41729915  1
  O  O33  1  0.65348886  0.21977052  0.08270085  1
  O  O34  1  0.84651114  0.21977052  0.58270085  1
  O  O35  1  0.34651114  0.78022948  0.91729915  1
  O  O36  1  0.36479046  0.75452869  0.61756094  1
  O  O37  1  0.86479046  0.24547131  0.88243906  1
  O  O38  1  0.63520954  0.24547131  0.38243906  1
  O  O39  1  0.13520954  0.75452869  0.11756094  1
  O  O40  1  0.44394542  0.12142002  0.68257892  1
  O  O41  1  0.94394542  0.87857998  0.81742108  1
