# generated using pymatgen
data_Na3InSb2
_symmetry_space_group_name_H-M   'P 1'
_cell_length_a   7.96339911
_cell_length_b   10.33446554
_cell_length_c   16.65431859
_cell_angle_alpha   87.24852231
_cell_angle_beta   90.00005445
_cell_angle_gamma   89.99962361
_symmetry_Int_Tables_number   1
_chemical_formula_structural   Na3InSb2
_chemical_formula_sum   'Na24 In8 Sb16'
_cell_volume   1369.02823783
_cell_formula_units_Z   8
loop_
 _symmetry_equiv_pos_site_id
 _symmetry_equiv_pos_as_xyz
  1  'x, y, z'
loop_
 _atom_site_type_symbol
 _atom_site_label
 _atom_site_symmetry_multiplicity
 _atom_site_fract_x
 _atom_site_fract_y
 _atom_site_fract_z
 _atom_site_occupancy
  Na  Na0  1  0.15344668  0.87128889  0.70195173  1
  Na  Na1  1  0.65344794  0.12871156  0.79804647  1
  Na  Na2  1  0.84655622  0.12871194  0.29805442  1
  Na  Na3  1  0.34655967  0.87128877  0.20195358  1
  Na  Na4  1  0.49127463  0.56075247  0.10729000  1
  Na  Na5  1  0.99127360  0.43924790  0.39270889  1
  Na  Na6  1  0.50873218  0.43924854  0.89270893  1
  Na  Na7  1  0.00873196  0.56075216  0.60728955  1
  Na  Na8  1  0.97161509  0.18753354  0.64713076  1
  Na  Na9  1  0.47161625  0.81246711  0.85286842  1
  Na  Na10  1  0.02838934  0.81246694  0.35286757  1
  Na  Na11  1  0.52838981  0.18753308  0.14713056  1
  Na  Na12  1  0.84888057  0.38344582  0.04699647  1
  Na  Na13  1  0.34888066  0.61655498  0.45300179  1
  Na  Na14  1  0.15112812  0.61655493  0.95300280  1
  Na  Na15  1  0.65112604  0.38345013  0.54699728  1
  Na  Na16  1  0.96884164  0.92820322  0.89242523  1
  Na  Na17  1  0.46883735  0.07179676  0.60757590  1
  Na  Na18  1  0.03116434  0.07179734  0.10757451  1
  Na  Na19  1  0.53116296  0.92820230  0.39242449  1
  Na  Na20  1  0.01290803  0.32246187  0.86183735  1
  Na  Na21  1  0.51290780  0.67753860  0.63816160  1
  Na  Na22  1  0.98709846  0.67753923  0.13816162  1
  Na  Na23  1  0.48709805  0.32246109  0.36183765  1
  In  In24  1  0.85186038  0.63938893  0.79189622  1
  In  In25  1  0.35186356  0.36061185  0.70810176  1
  In  In26  1  0.14814164  0.36061217  0.20810329  1
  In  In27  1  0.64814227  0.63938799  0.29189505  1
  In  In28  1  0.86267913  0.87434205  0.54256041  1
  In  In29  1  0.36268172  0.12566103  0.95743794  1
  In  In30  1  0.13729150  0.12566216  0.45743837  1
  In  In31  1  0.63732324  0.87433973  0.04256210  1
  Sb  Sb32  1  0.76158421  0.64897193  0.96218284  1
  Sb  Sb33  1  0.26158038  0.35102981  0.53781381  1
  Sb  Sb34  1  0.23841682  0.35100707  0.03782107  1
  Sb  Sb35  1  0.73842397  0.64898705  0.46218188  1
  Sb  Sb36  1  0.75846841  0.87977143  0.70922548  1
  Sb  Sb37  1  0.25847251  0.12023246  0.79077832  1
  Sb  Sb38  1  0.24153069  0.12023210  0.29077999  1
  Sb  Sb39  1  0.74153987  0.87976897  0.20922136  1
  Sb  Sb40  1  0.78142176  0.40645701  0.22613260  1
  Sb  Sb41  1  0.28142120  0.59354127  0.27386457  1
  Sb  Sb42  1  0.21858217  0.59353914  0.77386446  1
  Sb  Sb43  1  0.71858446  0.40646044  0.72613291  1
  Sb  Sb44  1  0.27195384  0.87255028  0.02221294  1
  Sb  Sb45  1  0.77187347  0.12743472  0.47780141  1
  Sb  Sb46  1  0.72804946  0.12744027  0.97778912  1
  Sb  Sb47  1  0.22804291  0.87256194  0.52220758  1
