# generated using pymatgen
data_Na2Ti4Ga4Si3(S3O16)3
_symmetry_space_group_name_H-M   'P 1'
_cell_length_a   17.21670468
_cell_length_b   8.59815513
_cell_length_c   22.33568841
_cell_angle_alpha   89.80502721
_cell_angle_beta   90.19617296
_cell_angle_gamma   120.01355730
_symmetry_Int_Tables_number   1
_chemical_formula_structural   Na2Ti4Ga4Si3(S3O16)3
_chemical_formula_sum   'Na6 Ti12 Ga12 Si9 S27 O144'
_cell_volume   2863.00800097
_cell_formula_units_Z   3
loop_
 _symmetry_equiv_pos_site_id
 _symmetry_equiv_pos_as_xyz
  1  'x, y, z'
loop_
 _atom_site_type_symbol
 _atom_site_label
 _atom_site_symmetry_multiplicity
 _atom_site_fract_x
 _atom_site_fract_y
 _atom_site_fract_z
 _atom_site_occupancy
  Na  Na0  1  0.99747339  0.00330281  0.50037222  1
  Na  Na1  1  0.49798985  0.99262546  0.00258141  1
  Na  Na2  1  0.33113067  0.32868729  0.83717048  1
  Na  Na3  1  0.83036538  0.33172449  0.83283483  1
  Na  Na4  1  0.33192572  0.32944833  0.33208467  1
  Na  Na5  1  0.82854048  0.32955445  0.33507201  1
  Ti  Ti6  1  0.51339152  0.01693431  0.35596023  1
  Ti  Ti7  1  0.00410297  0.99817032  0.85995647  1
  Ti  Ti8  1  0.50799312  0.02445931  0.64464804  1
  Ti  Ti9  1  0.00704734  0.98894264  0.14485830  1
  Ti  Ti10  1  0.34013235  0.33950232  0.68456224  1
  Ti  Ti11  1  0.83349189  0.33385624  0.68605128  1
  Ti  Ti12  1  0.33585190  0.33562339  0.18822079  1
  Ti  Ti13  1  0.83522372  0.33297920  0.18947086  1
  Ti  Ti14  1  0.16189603  0.67890650  0.02512363  1
  Ti  Ti15  1  0.66123899  0.66529988  0.02710207  1
  Ti  Ti16  1  0.16151837  0.65822485  0.52403748  1
  Ti  Ti17  1  0.66145539  0.64655832  0.52115364  1
  Ga  Ga18  1  0.00190749  0.00074120  0.34822644  1
  Ga  Ga19  1  0.50314277  0.00499259  0.85006509  1
  Ga  Ga20  1  0.99783415  0.00785600  0.64756590  1
  Ga  Ga21  1  0.50103317  0.98112032  0.14950631  1
  Ga  Ga22  1  0.33119559  0.33313898  0.98262979  1
  Ga  Ga23  1  0.83516350  0.33963450  0.98486612  1
  Ga  Ga24  1  0.33611505  0.32982428  0.48097254  1
  Ga  Ga25  1  0.83170422  0.32759398  0.48029757  1
  Ga  Ga26  1  0.16815975  0.67664992  0.30947507  1
  Ga  Ga27  1  0.66767480  0.66482524  0.31219354  1
  Ga  Ga28  1  0.16924307  0.67749163  0.81619628  1
  Ga  Ga29  1  0.66614480  0.65729966  0.81060453  1
  Si  Si30  1  0.14611853  0.99911131  0.25337682  1
  Si  Si31  1  0.64551223  0.99124128  0.24942365  1
  Si  Si32  1  0.64653303  0.29427537  0.75323212  1
  Si  Si33  1  0.47747681  0.33396385  0.58029683  1
  Si  Si34  1  0.97274933  0.32399264  0.58234587  1
  Si  Si35  1  0.47118021  0.62238777  0.08186769  1
  Si  Si36  1  0.97383548  0.61590542  0.08268456  1
  Si  Si37  1  0.17430041  0.96316397  0.91646283  1
  Si  Si38  1  0.67291542  0.38482255  0.41450553  1
  S  S39  1  0.35475144  0.71252236  0.25127122  1
  S  S40  1  0.85580470  0.71359174  0.24971454  1
  S  S41  1  0.00175247  0.28901596  0.25081036  1
  S  S42  1  0.50086365  0.28592683  0.24882938  1
  S  S43  1  0.14441936  0.29332839  0.75114713  1
  S  S44  1  0.00222978  0.71540348  0.74962902  1
  S  S45  1  0.50032707  0.71284452  0.75091109  1
  S  S46  1  0.35364638  0.99508831  0.74998297  1
  S  S47  1  0.85536166  0.99786447  0.75124311  1
  S  S48  1  0.18843793  0.04571611  0.58292025  1
  S  S49  1  0.68912155  0.04255854  0.58277658  1
  S  S50  1  0.33435943  0.62280038  0.58237451  1
  S  S51  1  0.83501643  0.62547251  0.58321876  1
  S  S52  1  0.33597782  0.04588950  0.08382071  1
  S  S53  1  0.83456974  0.04636351  0.08290913  1
  S  S54  1  0.18911218  0.33505890  0.08298112  1
  S  S55  1  0.68801572  0.33079943  0.08244403  1
  S  S56  1  0.31319243  0.67037148  0.91522885  1
  S  S57  1  0.80962433  0.66317279  0.91659963  1
  S  S58  1  0.02102922  0.37857623  0.91605146  1
  S  S59  1  0.52246208  0.37741437  0.91645269  1
  S  S60  1  0.66737513  0.95591548  0.91649111  1
  S  S61  1  0.31016711  0.95490641  0.41670439  1
  S  S62  1  0.81417361  0.95701928  0.41606276  1
  S  S63  1  0.16721914  0.37812614  0.41654359  1
  S  S64  1  0.02249939  0.66764446  0.41595977  1
  S  S65  1  0.51977218  0.66323709  0.41668284  1
  O  O66  1  0.10387807  0.04506248  0.31044690  1
  O  O67  1  0.59960502  0.03482963  0.30849097  1
  O  O68  1  0.41135510  0.79238397  0.30447035  1
  O  O69  1  0.91055444  0.78625545  0.30503819  1
  O  O70  1  0.48213795  0.17169834  0.30325093  1
  O  O71  1  0.98004614  0.17606376  0.30590181  1
  O  O72  1  0.10245611  0.17601576  0.80458124  1
  O  O73  1  0.60329139  0.16178360  0.80989439  1
  O  O74  1  0.47884052  0.78209619  0.80544799  1
  O  O75  1  0.98600729  0.79861500  0.80330261  1
  O  O76  1  0.40889795  0.03352251  0.80493003  1
  O  O77  1  0.91307080  0.03054822  0.80424831  1
  O  O78  1  0.39602432  0.96947262  0.69673549  1
  O  O79  1  0.89356263  0.96454812  0.69674339  1
  O  O80  1  0.08991131  0.21280425  0.69671684  1
  O  O81  1  0.58318046  0.19371404  0.69330806  1
  O  O82  1  0.01597376  0.82565974  0.69533433  1
  O  O83  1  0.51159612  0.81790342  0.69688971  1
  O  O84  1  0.39052892  0.82006041  0.19618275  1
  O  O85  1  0.89821791  0.82624717  0.19655924  1
  O  O86  1  0.01289939  0.20593221  0.19716415  1
  O  O87  1  0.51211120  0.20430694  0.19437091  1
  O  O88  1  0.08309962  0.97249267  0.19334812  1
  O  O89  1  0.58593760  0.96681934  0.19185748  1
  O  O90  1  0.42931071  0.36409110  0.64095900  1
  O  O91  1  0.92979780  0.36488820  0.64175770  1
  O  O92  1  0.24503949  0.12900758  0.63702175  1
  O  O93  1  0.74564635  0.12903288  0.63708300  1
  O  O94  1  0.31562544  0.50342587  0.63679930  1
  O  O95  1  0.81744912  0.51126094  0.63759343  1
  O  O96  1  0.42932022  0.49462024  0.14102092  1
  O  O97  1  0.92755585  0.49097960  0.14141234  1
  O  O98  1  0.31684108  0.12331868  0.13708306  1
  O  O99  1  0.81449404  0.12359760  0.13593564  1
  O  O100  1  0.24572868  0.36361914  0.13658179  1
  O  O101  1  0.74441230  0.36323280  0.13567663  1
  O  O102  1  0.22453464  0.29278787  0.02923482  1
  O  O103  1  0.72533943  0.29429780  0.02751221  1
  O  O104  1  0.41493641  0.53001918  0.02234280  1
  O  O105  1  0.91652710  0.53817053  0.02282149  1
  O  O106  1  0.35035385  0.15251278  0.02886084  1
  O  O107  1  0.84862689  0.15402215  0.02765956  1
  O  O108  1  0.22533082  0.15816894  0.52875358  1
  O  O109  1  0.72494205  0.15785656  0.52972988  1
  O  O110  1  0.34841434  0.54127119  0.52873085  1
  O  O111  1  0.85083361  0.54771304  0.52948598  1
  O  O112  1  0.41353943  0.29367460  0.52464674  1
  O  O113  1  0.91418222  0.29832022  0.52369185  1
  O  O114  1  0.27256741  0.69830857  0.96868777  1
  O  O115  1  0.77101827  0.69469394  0.97014257  1
  O  O116  1  0.07677680  0.45515686  0.96958811  1
  O  O117  1  0.58005422  0.46168087  0.97021049  1
  O  O118  1  0.15167537  0.83097017  0.97477133  1
  O  O119  1  0.65510753  0.84437219  0.97056513  1
  O  O120  1  0.26766667  0.84523190  0.47109353  1
  O  O121  1  0.77327283  0.84850087  0.47056057  1
  O  O122  1  0.15496758  0.46518595  0.47110868  1
  O  O123  1  0.65324995  0.47446566  0.47462339  1
  O  O124  1  0.07984395  0.69722595  0.47060353  1
  O  O125  1  0.57605573  0.69536621  0.47103282  1
  O  O126  1  0.06311687  0.63620900  0.36286436  1
  O  O127  1  0.55838855  0.62888546  0.36337643  1
  O  O128  1  0.25315510  0.87424125  0.36298066  1
  O  O129  1  0.75978711  0.87967143  0.36182403  1
  O  O130  1  0.18211760  0.48792601  0.36248094  1
  O  O131  1  0.68557184  0.50617292  0.35688669  1
  O  O132  1  0.06034443  0.48770226  0.86119237  1
  O  O133  1  0.56274503  0.48973662  0.86241583  1
  O  O134  1  0.18616906  0.87458889  0.85679276  1
  O  O135  1  0.68219793  0.87659012  0.86191240  1
  O  O136  1  0.25780121  0.63679439  0.85998039  1
  O  O137  1  0.75510154  0.63515842  0.86204622  1
  O  O138  1  0.01404604  0.83139624  0.41194568  1
  O  O139  1  0.50923909  0.82254149  0.40973381  1
  O  O140  1  0.39851213  0.97301864  0.40903333  1
  O  O141  1  0.90568014  0.97415421  0.40992291  1
  O  O142  1  0.08486992  0.19965639  0.41297151  1
  O  O143  1  0.57957109  0.18947597  0.40791574  1
  O  O144  1  0.01142392  0.19732459  0.90697597  1
  O  O145  1  0.51371315  0.19595664  0.91162365  1
  O  O146  1  0.08147386  0.97714548  0.90473551  1
  O  O147  1  0.58460739  0.96914639  0.91233272  1
  O  O148  1  0.40441242  0.83673386  0.90799355  1
  O  O149  1  0.90027424  0.82522079  0.90736760  1
  O  O150  1  0.48564199  0.15709489  0.59365021  1
  O  O151  1  0.99052379  0.15727657  0.59105669  1
  O  O152  1  0.09766155  0.01950009  0.59149234  1
  O  O153  1  0.59829176  0.01820896  0.59293932  1
  O  O154  1  0.41296225  0.79676187  0.59341991  1
  O  O155  1  0.91689934  0.80352433  0.59195776  1
  O  O156  1  0.48676453  0.82235229  0.08758816  1
  O  O157  1  0.98641582  0.81474580  0.09317275  1
  O  O158  1  0.41639116  0.02923850  0.09208987  1
  O  O159  1  0.91282134  0.02798770  0.09241801  1
  O  O160  1  0.09811593  0.17915235  0.09242284  1
  O  O161  1  0.59674014  0.17874102  0.08876706  1
  O  O162  1  0.34300459  0.15877490  0.74221787  1
  O  O163  1  0.84765867  0.16279847  0.74395202  1
  O  O164  1  0.23432487  0.30955552  0.74389190  1
  O  O165  1  0.74471828  0.31098093  0.73978741  1
  O  O166  1  0.41740656  0.52704309  0.74351350  1
  O  O167  1  0.91938777  0.53579508  0.74427985  1
  O  O168  1  0.34653553  0.53078501  0.24375933  1
  O  O169  1  0.84723179  0.53204159  0.24281580  1
  O  O170  1  0.41794966  0.30343216  0.24374891  1
  O  O171  1  0.92010162  0.30946433  0.24416939  1
  O  O172  1  0.24415550  0.17835397  0.23949122  1
  O  O173  1  0.74447094  0.17681903  0.24026774  1
  O  O174  1  0.32352419  0.51040520  0.92032600  1
  O  O175  1  0.81968427  0.50111241  0.92130456  1
  O  O176  1  0.43310540  0.35813384  0.92218726  1
  O  O177  1  0.92929537  0.35345606  0.92184408  1
  O  O178  1  0.25754207  0.16265823  0.92595927  1
  O  O179  1  0.74833383  0.13848243  0.92361467  1
  O  O180  1  0.31734961  0.13634209  0.42189859  1
  O  O181  1  0.82439628  0.13824184  0.42169425  1
  O  O182  1  0.24836042  0.35894829  0.42437534  1
  O  O183  1  0.75775035  0.35641570  0.42558348  1
  O  O184  1  0.42788553  0.50201769  0.42333289  1
  O  O185  1  0.93326708  0.50752055  0.42266866  1
  O  O186  1  0.18206695  0.49665629  0.07386722  1
  O  O187  1  0.68312233  0.49830069  0.07316009  1
  O  O188  1  0.07364012  0.63690277  0.07465079  1
  O  O189  1  0.57291444  0.64145597  0.07079796  1
  O  O190  1  0.25603135  0.86362366  0.07586928  1
  O  O191  1  0.75342150  0.86533531  0.07343408  1
  O  O192  1  0.18243991  0.86880347  0.57503759  1
  O  O193  1  0.68207712  0.86787037  0.57533065  1
  O  O194  1  0.25323279  0.63995894  0.57478360  1
  O  O195  1  0.75627629  0.64906704  0.57614150  1
  O  O196  1  0.07408736  0.50632815  0.57039977  1
  O  O197  1  0.57522846  0.51294359  0.57509862  1
  O  O198  1  0.15443256  0.82311106  0.25817658  1
  O  O199  1  0.65701793  0.82225110  0.26346046  1
  O  O200  1  0.26376402  0.68416136  0.25926199  1
  O  O201  1  0.76662088  0.69294687  0.25508747  1
  O  O202  1  0.08172183  0.46561604  0.25940986  1
  O  O203  1  0.57918303  0.46493092  0.25636967  1
  O  O204  1  0.15390898  0.47194311  0.76009065  1
  O  O205  1  0.65502416  0.48717117  0.75835659  1
  O  O206  1  0.08054618  0.69175893  0.75707284  1
  O  O207  1  0.57976972  0.69420550  0.75904787  1
  O  O208  1  0.26450063  0.83433443  0.75581308  1
  O  O209  1  0.76510097  0.84269937  0.75923579  1
