# generated using pymatgen
data_Na6Si7Sn8S5O48
_symmetry_space_group_name_H-M   'P 1'
_cell_length_a   17.80116446
_cell_length_b   8.88958221
_cell_length_c   22.98305728
_cell_angle_alpha   89.94080583
_cell_angle_beta   89.52704794
_cell_angle_gamma   119.99389523
_symmetry_Int_Tables_number   1
_chemical_formula_structural   Na6Si7Sn8S5O48
_chemical_formula_sum   'Na18 Si21 Sn24 S15 O144'
_cell_volume   3149.72330145
_cell_formula_units_Z   3
loop_
 _symmetry_equiv_pos_site_id
 _symmetry_equiv_pos_as_xyz
  1  'x, y, z'
loop_
 _atom_site_type_symbol
 _atom_site_label
 _atom_site_symmetry_multiplicity
 _atom_site_fract_x
 _atom_site_fract_y
 _atom_site_fract_z
 _atom_site_occupancy
  Na  Na0  1  0.00073988  0.63407264  0.25203054  1
  Na  Na1  1  0.49805074  0.64466005  0.24563204  1
  Na  Na2  1  0.99913444  0.35168424  0.75315204  1
  Na  Na3  1  0.50033172  0.36838965  0.75475001  1
  Na  Na4  1  0.66510978  0.31070950  0.91733947  1
  Na  Na5  1  0.16642241  0.02248172  0.41340710  1
  Na  Na6  1  0.99899879  0.98471389  0.50284874  1
  Na  Na7  1  0.49416321  0.98848086  0.49469007  1
  Na  Na8  1  0.99500898  0.00062192  0.99668110  1
  Na  Na9  1  0.49778802  0.00206833  0.00704098  1
  Na  Na10  1  0.33407501  0.33511128  0.83204588  1
  Na  Na11  1  0.83098904  0.33187717  0.83484617  1
  Na  Na12  1  0.33224196  0.33358457  0.32982361  1
  Na  Na13  1  0.83315699  0.33139473  0.32813908  1
  Na  Na14  1  0.17599963  0.67703715  0.17118915  1
  Na  Na15  1  0.66914107  0.66527976  0.16274372  1
  Na  Na16  1  0.17625475  0.68248516  0.66763552  1
  Na  Na17  1  0.67317740  0.67261740  0.67296576  1
  Si  Si18  1  0.14953145  0.00827709  0.24891184  1
  Si  Si19  1  0.64206733  0.00278782  0.25117381  1
  Si  Si20  1  0.35288619  0.70579542  0.24777305  1
  Si  Si21  1  0.85072123  0.70627557  0.24996352  1
  Si  Si22  1  0.00018868  0.29117124  0.25044859  1
  Si  Si23  1  0.14151625  0.28297273  0.75076224  1
  Si  Si24  1  0.64686626  0.29130422  0.75026449  1
  Si  Si25  1  0.50058346  0.70975950  0.75029203  1
  Si  Si26  1  0.35017680  0.99385577  0.75043059  1
  Si  Si27  1  0.85342587  0.99883911  0.74710588  1
  Si  Si28  1  0.18849818  0.04536300  0.58373246  1
  Si  Si29  1  0.83262393  0.62928174  0.58383462  1
  Si  Si30  1  0.48129011  0.62503205  0.08305843  1
  Si  Si31  1  0.33152872  0.03609182  0.08423320  1
  Si  Si32  1  0.68962478  0.33139826  0.08412093  1
  Si  Si33  1  0.81296193  0.67327230  0.91676781  1
  Si  Si34  1  0.02293591  0.38229243  0.91924501  1
  Si  Si35  1  0.51721853  0.36821703  0.91335254  1
  Si  Si36  1  0.31608175  0.95811833  0.41491429  1
  Si  Si37  1  0.01824842  0.66584344  0.41423439  1
  Si  Si38  1  0.52330784  0.66660785  0.41897609  1
  Sn  Sn39  1  0.99956609  0.99331130  0.34580582  1
  Sn  Sn40  1  0.49504410  0.97455259  0.35193908  1
  Sn  Sn41  1  0.99504457  0.01628362  0.85462461  1
  Sn  Sn42  1  0.49848065  0.00222937  0.84829017  1
  Sn  Sn43  1  -0.00002909  0.99787619  0.64663785  1
  Sn  Sn44  1  0.49696716  0.99484474  0.65634124  1
  Sn  Sn45  1  0.99817289  0.00237248  0.15443595  1
  Sn  Sn46  1  0.49823809  0.98794187  0.14251448  1
  Sn  Sn47  1  0.32586646  0.32478318  0.69118061  1
  Sn  Sn48  1  0.82561479  0.33164766  0.68688648  1
  Sn  Sn49  1  0.33220387  0.32893316  0.18378757  1
  Sn  Sn50  1  0.82586228  0.32510154  0.19084153  1
  Sn  Sn51  1  0.34543113  0.33455840  0.98378458  1
  Sn  Sn52  1  0.83476257  0.34141932  0.98047429  1
  Sn  Sn53  1  0.33504119  0.32811556  0.47968760  1
  Sn  Sn54  1  0.83833190  0.35124037  0.48075276  1
  Sn  Sn55  1  0.16850361  0.67116049  0.01987388  1
  Sn  Sn56  1  0.66274031  0.64190973  0.01998914  1
  Sn  Sn57  1  0.17008692  0.69193262  0.51600095  1
  Sn  Sn58  1  0.66749349  0.66358822  0.51903761  1
  Sn  Sn59  1  0.16829412  0.67600569  0.31017697  1
  Sn  Sn60  1  0.66576225  0.67340165  0.31222998  1
  Sn  Sn61  1  0.16826834  0.66005321  0.81495473  1
  Sn  Sn62  1  0.66790847  0.66245303  0.81189760  1
  S  S63  1  0.50053440  0.28719456  0.25088758  1
  S  S64  1  0.00082692  0.71017331  0.75079782  1
  S  S65  1  0.48020777  0.32921236  0.58450021  1
  S  S66  1  0.98037399  0.33610581  0.58241633  1
  S  S67  1  0.68581765  0.04097146  0.58156093  1
  S  S68  1  0.33391012  0.62713247  0.58268057  1
  S  S69  1  0.98026231  0.63106190  0.08440432  1
  S  S70  1  0.83581209  0.04316592  0.08298943  1
  S  S71  1  0.18459352  0.32850292  0.08135718  1
  S  S72  1  0.31392766  0.66344531  0.91779853  1
  S  S73  1  0.16713426  0.96125490  0.91633019  1
  S  S74  1  0.66568319  0.95434176  0.91734136  1
  S  S75  1  0.81427232  0.96333294  0.41847540  1
  S  S76  1  0.16526737  0.37794782  0.41849032  1
  S  S77  1  0.66652838  0.37315797  0.41644578  1
  O  O78  1  0.11190335  0.04214488  0.31060073  1
  O  O79  1  0.60473189  0.04334385  0.31074455  1
  O  O80  1  0.41281319  0.77366243  0.30654666  1
  O  O81  1  0.91110305  0.78172934  0.30767859  1
  O  O82  1  0.48778216  0.18570602  0.30504552  1
  O  O83  1  0.97883527  0.17057962  0.30913894  1
  O  O84  1  0.10124418  0.16161761  0.80846948  1
  O  O85  1  0.60847188  0.17809354  0.80972687  1
  O  O86  1  0.47903015  0.78878869  0.80775904  1
  O  O87  1  0.98546061  0.78540226  0.80312626  1
  O  O88  1  0.41211960  0.03848009  0.80638396  1
  O  O89  1  0.91549477  0.05396833  0.80427544  1
  O  O90  1  0.38666962  0.95386071  0.69016546  1
  O  O91  1  0.89565920  0.96302481  0.68979887  1
  O  O92  1  0.08078242  0.20773172  0.69319745  1
  O  O93  1  0.58597397  0.21202750  0.69192401  1
  O  O94  1  0.01555612  0.81164131  0.69690815  1
  O  O95  1  0.52117598  0.82251776  0.68961754  1
  O  O96  1  0.39582586  0.83219222  0.19260316  1
  O  O97  1  0.88929588  0.82288463  0.19108833  1
  O  O98  1  0.02065608  0.21836482  0.19095179  1
  O  O99  1  0.51459573  0.21436188  0.19843036  1
  O  O100  1  0.08417165  0.95951997  0.19313534  1
  O  O101  1  0.58106581  0.95849185  0.19517895  1
  O  O102  1  0.44244496  0.35961950  0.63718284  1
  O  O103  1  0.94170828  0.36539245  0.63578662  1
  O  O104  1  0.25202159  0.13458018  0.63848008  1
  O  O105  1  0.73926729  0.11628256  0.63405275  1
  O  O106  1  0.32204987  0.52377761  0.63570458  1
  O  O107  1  0.81523429  0.50398041  0.64005603  1
  O  O108  1  0.44081394  0.50728996  0.14260075  1
  O  O109  1  0.94267022  0.52577581  0.13748072  1
  O  O110  1  0.30941366  0.11849199  0.14026855  1
  O  O111  1  0.82469906  0.12413527  0.13608667  1
  O  O112  1  0.23610224  0.35824990  0.13454416  1
  O  O113  1  0.75411593  0.36952989  0.13861978  1
  O  O114  1  0.22498430  0.30433053  0.02827854  1
  O  O115  1  0.72888785  0.29425702  0.02321876  1
  O  O116  1  0.41839195  0.54529053  0.02614508  1
  O  O117  1  0.92810505  0.55197065  0.03153961  1
  O  O118  1  0.34355823  0.14071638  0.02335357  1
  O  O119  1  0.85212396  0.15318745  0.03002876  1
  O  O120  1  0.22887245  0.15949861  0.52315225  1
  O  O121  1  0.72829179  0.14802112  0.52828930  1
  O  O122  1  0.34941388  0.54947882  0.52976846  1
  O  O123  1  0.84835789  0.54453560  0.52529448  1
  O  O124  1  0.42811864  0.30425240  0.53155946  1
  O  O125  1  0.92445603  0.30507081  0.53042373  1
  O  O126  1  0.27474562  0.69625647  0.96992833  1
  O  O127  1  0.77224679  0.71265387  0.97452920  1
  O  O128  1  0.08480074  0.47428366  0.97510341  1
  O  O129  1  0.57918970  0.44843694  0.96982338  1
  O  O130  1  0.15308142  0.85338796  0.96930284  1
  O  O131  1  0.65366476  0.85212509  0.97019343  1
  O  O132  1  0.27967788  0.84137090  0.47476717  1
  O  O133  1  0.77546330  0.85405895  0.47159767  1
  O  O134  1  0.15224617  0.45589200  0.47246091  1
  O  O135  1  0.65449982  0.45215853  0.47060929  1
  O  O136  1  0.07734543  0.70405051  0.47294886  1
  O  O137  1  0.58422411  0.69826600  0.47620760  1
  O  O138  1  0.06108583  0.63455284  0.35683512  1
  O  O139  1  0.56293501  0.62474856  0.36037667  1
  O  O140  1  0.24927515  0.87278387  0.36168197  1
  O  O141  1  0.76120751  0.88598905  0.36628299  1
  O  O142  1  0.17954417  0.48167047  0.36591909  1
  O  O143  1  0.68467182  0.48635392  0.36509428  1
  O  O144  1  0.06125342  0.49761370  0.85866736  1
  O  O145  1  0.55914851  0.48413694  0.85469638  1
  O  O146  1  0.18406011  0.88298454  0.86395298  1
  O  O147  1  0.68022620  0.88064990  0.86376792  1
  O  O148  1  0.26143720  0.63852590  0.86459396  1
  O  O149  1  0.75117163  0.62784381  0.86013677  1
  O  O150  1  0.01282870  0.84804165  0.41159416  1
  O  O151  1  0.51706126  0.84251868  0.41576220  1
  O  O152  1  0.41481287  0.99352717  0.40933104  1
  O  O153  1  0.90147761  0.98461858  0.41320623  1
  O  O154  1  0.08799236  0.20015811  0.41481268  1
  O  O155  1  0.58781557  0.20369526  0.41177489  1
  O  O156  1  0.01732018  0.19401236  0.91593366  1
  O  O157  1  0.51255906  0.17585419  0.91070346  1
  O  O158  1  0.08698619  0.97020973  0.91055449  1
  O  O159  1  0.58827992  0.97741925  0.91262630  1
  O  O160  1  0.40080043  0.81815426  0.91203227  1
  O  O161  1  0.91271352  0.83617295  0.91018431  1
  O  O162  1  0.48948657  0.17162653  0.58827349  1
  O  O163  1  0.98759469  0.17881684  0.58628607  1
  O  O164  1  0.09258801  0.02646272  0.58915651  1
  O  O165  1  0.59951245  0.02697528  0.58634707  1
  O  O166  1  0.41250440  0.80478209  0.58669678  1
  O  O167  1  0.91841542  0.81965853  0.58827634  1
  O  O168  1  0.48898798  0.81288799  0.08489778  1
  O  O169  1  0.98935537  0.80690110  0.08809030  1
  O  O170  1  0.41816122  0.02372906  0.08883386  1
  O  O171  1  0.91563490  0.02556467  0.08694608  1
  O  O172  1  0.09677063  0.16981122  0.08640541  1
  O  O173  1  0.59374647  0.16491328  0.08999770  1
  O  O174  1  0.34984744  0.17599128  0.74457931  1
  O  O175  1  0.85359689  0.18614601  0.73819114  1
  O  O176  1  0.23898086  0.31533106  0.74693255  1
  O  O177  1  0.74247863  0.30938969  0.74708170  1
  O  O178  1  0.41654643  0.51440820  0.74062384  1
  O  O179  1  0.92457346  0.53049993  0.74444275  1
  O  O180  1  0.34992619  0.51748461  0.24159745  1
  O  O181  1  0.85022162  0.52341568  0.24472469  1
  O  O182  1  0.42393177  0.31330714  0.24759113  1
  O  O183  1  0.91658903  0.31926350  0.24144517  1
  O  O184  1  0.24460646  0.17934819  0.24434530  1
  O  O185  1  0.74043007  0.16395465  0.24839804  1
  O  O186  1  0.31724488  0.50124524  0.92336320  1
  O  O187  1  0.81676195  0.49061165  0.92195773  1
  O  O188  1  0.42076536  0.35050639  0.91677229  1
  O  O189  1  0.92512715  0.35572841  0.92548927  1
  O  O190  1  0.24355977  0.13688588  0.92235848  1
  O  O191  1  0.74412457  0.13375133  0.92108791  1
  O  O192  1  0.31658801  0.14439734  0.42162967  1
  O  O193  1  0.81903157  0.13527647  0.42606881  1
  O  O194  1  0.24367984  0.35656817  0.42333427  1
  O  O195  1  0.74434223  0.35113918  0.42245160  1
  O  O196  1  0.42566747  0.49632876  0.42623488  1
  O  O197  1  0.92251359  0.48723260  0.41908687  1
  O  O198  1  0.17508645  0.48589560  0.07674572  1
  O  O199  1  0.68544978  0.51075699  0.08085815  1
  O  O200  1  0.06746274  0.64778862  0.07772104  1
  O  O201  1  0.57860354  0.64859566  0.07628321  1
  O  O202  1  0.24250440  0.83967348  0.07762088  1
  O  O203  1  0.75729564  0.87286888  0.07747966  1
  O  O204  1  0.17822443  0.84901307  0.58086845  1
  O  O205  1  0.67735704  0.86633909  0.57675555  1
  O  O206  1  0.25315901  0.63760496  0.57724885  1
  O  O207  1  0.74364566  0.64447416  0.57666484  1
  O  O208  1  0.06786784  0.49179553  0.57535419  1
  O  O209  1  0.56787593  0.48722401  0.57791808  1
  O  O210  1  0.15069406  0.82691618  0.25257985  1
  O  O211  1  0.64617413  0.82018840  0.25624887  1
  O  O212  1  0.25711681  0.68049400  0.25592211  1
  O  O213  1  0.75394483  0.68115805  0.25855617  1
  O  O214  1  0.08340978  0.48432041  0.25717641  1
  O  O215  1  0.57873291  0.46674465  0.25611745  1
  O  O216  1  0.14625590  0.47393994  0.75612504  1
  O  O217  1  0.65131209  0.47761102  0.75232412  1
  O  O218  1  0.07840140  0.68849299  0.75563788  1
  O  O219  1  0.58420150  0.68412051  0.75630213  1
  O  O220  1  0.25283625  0.82575981  0.75792949  1
  O  O221  1  0.75758121  0.83564534  0.75531787  1
