# generated using pymatgen
data_BaAg8S5
_symmetry_space_group_name_H-M   'P 1'
_cell_length_a   17.44892338
_cell_length_b   7.86976636
_cell_length_c   9.01209028
_cell_angle_alpha   71.73207021
_cell_angle_beta   90.00000000
_cell_angle_gamma   90.00000000
_symmetry_Int_Tables_number   1
_chemical_formula_structural   BaAg8S5
_chemical_formula_sum   'Ba4 Ag32 S20'
_cell_volume   1175.16056237
_cell_formula_units_Z   4
loop_
 _symmetry_equiv_pos_site_id
 _symmetry_equiv_pos_as_xyz
  1  'x, y, z'
loop_
 _atom_site_type_symbol
 _atom_site_label
 _atom_site_symmetry_multiplicity
 _atom_site_fract_x
 _atom_site_fract_y
 _atom_site_fract_z
 _atom_site_occupancy
  Ba  Ba0  1  0.75000000  0.56929523  0.25038873  1
  Ba  Ba1  1  0.25000000  0.43070477  0.74961127  1
  Ba  Ba2  1  0.75000000  0.60718380  0.71037455  1
  Ba  Ba3  1  0.25000000  0.39281620  0.28962545  1
  Ag  Ag4  1  0.83848403  0.06531083  0.12654646  1
  Ag  Ag5  1  0.16151597  0.93468917  0.87345354  1
  Ag  Ag6  1  0.45228628  0.68556322  0.78582303  1
  Ag  Ag7  1  0.95228628  0.31443678  0.21417697  1
  Ag  Ag8  1  0.54771372  0.31443678  0.21417697  1
  Ag  Ag9  1  0.66151597  0.06531083  0.12654646  1
  Ag  Ag10  1  0.49558157  0.93820583  0.35242030  1
  Ag  Ag11  1  0.99558157  0.06179417  0.64757970  1
  Ag  Ag12  1  0.50441843  0.06179417  0.64757970  1
  Ag  Ag13  1  0.00441843  0.93820583  0.35242030  1
  Ag  Ag14  1  0.45241084  0.63167628  0.14945011  1
  Ag  Ag15  1  0.95241084  0.36832372  0.85054989  1
  Ag  Ag16  1  0.54758916  0.36832372  0.85054989  1
  Ag  Ag17  1  0.04758916  0.63167628  0.14945011  1
  Ag  Ag18  1  0.50000000  0.50000000  0.50000000  1
  Ag  Ag19  1  0.00000000  0.50000000  0.50000000  1
  Ag  Ag20  1  0.09764740  0.24639166  0.07827651  1
  Ag  Ag21  1  0.59764740  0.75360834  0.92172349  1
  Ag  Ag22  1  0.90235260  0.75360834  0.92172349  1
  Ag  Ag23  1  0.40235260  0.24639166  0.07827651  1
  Ag  Ag24  1  0.16260186  0.87819953  0.22160138  1
  Ag  Ag25  1  0.66260186  0.12180047  0.77839862  1
  Ag  Ag26  1  0.83739814  0.12180047  0.77839862  1
  Ag  Ag27  1  0.33739814  0.87819953  0.22160138  1
  Ag  Ag28  1  0.00000000  0.00000000  -0.00000000  1
  Ag  Ag29  1  0.50000000  0.00000000  -0.00000000  1
  Ag  Ag30  1  0.16119098  0.88773266  0.54393725  1
  Ag  Ag31  1  0.66119098  0.11226734  0.45606275  1
  Ag  Ag32  1  0.83880902  0.11226734  0.45606275  1
  Ag  Ag33  1  0.33880902  0.88773266  0.54393725  1
  Ag  Ag34  1  0.04771372  0.68556322  0.78582303  1
  Ag  Ag35  1  0.33848403  0.93468917  0.87345354  1
  S  S36  1  0.13437357  0.62607765  0.45620854  1
  S  S37  1  0.63437357  0.37392235  0.54379146  1
  S  S38  1  0.86562643  0.37392235  0.54379146  1
  S  S39  1  0.36562643  0.62607765  0.45620854  1
  S  S40  1  0.84927621  0.40289306  0.02498626  1
  S  S41  1  0.34927621  0.59710694  0.97501374  1
  S  S42  1  0.75000000  0.88848238  0.92943081  1
  S  S43  1  0.25000000  0.11151762  0.07056919  1
  S  S44  1  0.07039879  0.22001069  0.36134442  1
  S  S45  1  0.57039879  0.77998931  0.63865558  1
  S  S46  1  0.92960121  0.77998931  0.63865558  1
  S  S47  1  0.42960121  0.22001069  0.36134442  1
  S  S48  1  0.75000000  0.91590049  0.37545600  1
  S  S49  1  0.25000000  0.08409951  0.62454400  1
  S  S50  1  0.07347284  0.22737265  0.79876041  1
  S  S51  1  0.57347284  0.77262735  0.20123959  1
  S  S52  1  0.92652716  0.77262735  0.20123959  1
  S  S53  1  0.42652716  0.22737265  0.79876041  1
  S  S54  1  0.15072379  0.59710694  0.97501374  1
  S  S55  1  0.65072379  0.40289306  0.02498626  1
