# generated using pymatgen
data_TlCdBr3
_symmetry_space_group_name_H-M   'P 1'
_cell_length_a   4.16632915
_cell_length_b   9.48408480
_cell_length_c   15.49769506
_cell_angle_alpha   90.00000000
_cell_angle_beta   90.00000000
_cell_angle_gamma   90.00000000
_symmetry_Int_Tables_number   1
_chemical_formula_structural   TlCdBr3
_chemical_formula_sum   'Tl4 Cd4 Br12'
_cell_volume   612.37311695
_cell_formula_units_Z   4
loop_
 _symmetry_equiv_pos_site_id
 _symmetry_equiv_pos_as_xyz
  1  'x, y, z'
loop_
 _atom_site_type_symbol
 _atom_site_label
 _atom_site_symmetry_multiplicity
 _atom_site_fract_x
 _atom_site_fract_y
 _atom_site_fract_z
 _atom_site_occupancy
  Tl  Tl0  1  0.25000000  0.43914770  0.17703501  1
  Tl  Tl1  1  0.75000000  0.56085230  0.82296499  1
  Tl  Tl2  1  0.25000000  0.93914770  0.32296499  1
  Tl  Tl3  1  0.75000000  0.06085230  0.67703501  1
  Cd  Cd4  1  0.25000000  0.16790740  0.94498518  1
  Cd  Cd5  1  0.75000000  0.83209260  0.05501482  1
  Cd  Cd6  1  0.25000000  0.66790740  0.55501482  1
  Cd  Cd7  1  0.75000000  0.33209260  0.44498518  1
  Br  Br8  1  0.25000000  0.02223983  0.10385085  1
  Br  Br9  1  0.75000000  0.97776017  0.89614915  1
  Br  Br10  1  0.25000000  0.52223983  0.39614915  1
  Br  Br11  1  0.75000000  0.47776017  0.60385085  1
  Br  Br12  1  0.25000000  0.16503773  0.50731704  1
  Br  Br13  1  0.75000000  0.83496227  0.49268296  1
  Br  Br14  1  0.25000000  0.66503773  0.99268296  1
  Br  Br15  1  0.75000000  0.33496227  0.00731704  1
  Br  Br16  1  0.75000000  0.21203477  0.28717644  1
  Br  Br17  1  0.25000000  0.78796523  0.71282356  1
  Br  Br18  1  0.75000000  0.71203477  0.21282356  1
  Br  Br19  1  0.25000000  0.28796523  0.78717644  1
