# generated using pymatgen
data_Na8HfMg3Si3(SO8)3
_symmetry_space_group_name_H-M   'P 1'
_cell_length_a   9.12509454
_cell_length_b   9.12784462
_cell_length_c   22.21827609
_cell_angle_alpha   89.26872307
_cell_angle_beta   90.36597008
_cell_angle_gamma   119.44579313
_symmetry_Int_Tables_number   1
_chemical_formula_structural   Na8HfMg3Si3(SO8)3
_chemical_formula_sum   'Na24 Hf3 Mg9 Si9 S9 O72'
_cell_volume   1611.42307000
_cell_formula_units_Z   3
loop_
 _symmetry_equiv_pos_site_id
 _symmetry_equiv_pos_as_xyz
  1  'x, y, z'
loop_
 _atom_site_type_symbol
 _atom_site_label
 _atom_site_symmetry_multiplicity
 _atom_site_fract_x
 _atom_site_fract_y
 _atom_site_fract_z
 _atom_site_occupancy
  Na  Na0  1  0.62908322  0.99484288  0.26046540  1
  Na  Na1  1  0.37116768  0.36838022  0.24275419  1
  Na  Na2  1  0.00192504  0.62559767  0.25232782  1
  Na  Na3  1  0.64711647  0.65179371  0.73106181  1
  Na  Na4  1  0.98023162  0.34165902  0.75163643  1
  Na  Na5  1  0.38963205  0.01545341  0.73813049  1
  Na  Na6  1  0.31726730  0.33338846  0.58390258  1
  Na  Na7  1  0.04125721  0.71778654  0.57213159  1
  Na  Na8  1  0.65112286  0.94517014  0.58362867  1
  Na  Na9  1  0.28129575  0.95760572  0.07494282  1
  Na  Na10  1  0.66395909  0.68143028  0.08605179  1
  Na  Na11  1  0.05450963  0.35234864  0.07960773  1
  Na  Na12  1  0.99386230  0.67663274  0.92236203  1
  Na  Na13  1  0.71070115  0.04339632  0.90490267  1
  Na  Na14  1  0.30617212  0.28233598  0.92359465  1
  Na  Na15  1  0.96497284  0.30267310  0.41324352  1
  Na  Na16  1  0.32565240  0.99948361  0.42436766  1
  Na  Na17  1  0.71512294  0.69430205  0.42723430  1
  Na  Na18  1  0.98860025  0.97578564  0.50123213  1
  Na  Na19  1  0.02317523  0.01261977  0.00082906  1
  Na  Na20  1  0.66889338  0.31063414  0.83029970  1
  Na  Na21  1  0.68085063  0.33341853  0.33842290  1
  Na  Na22  1  0.31971663  0.65196551  0.15870232  1
  Na  Na23  1  0.35752235  0.68703468  0.65567948  1
  Hf  Hf24  1  0.66608363  0.33523403  0.98362422  1
  Hf  Hf25  1  0.66133491  0.33140745  0.48376873  1
  Hf  Hf26  1  0.33335270  0.67799342  0.81716506  1
  Mg  Mg27  1  0.99587184  0.99231752  0.35389589  1
  Mg  Mg28  1  0.00148801  0.01157301  0.85232332  1
  Mg  Mg29  1  0.98198873  0.98391019  0.64406347  1
  Mg  Mg30  1  0.00856519  0.00111264  0.14409692  1
  Mg  Mg31  1  0.65881606  0.32049603  0.67867295  1
  Mg  Mg32  1  0.66863016  0.34224050  0.17695325  1
  Mg  Mg33  1  0.31053616  0.65628604  0.01873136  1
  Mg  Mg34  1  0.34702251  0.69171023  0.51636482  1
  Mg  Mg35  1  0.33180257  0.68135935  0.32942816  1
  Si  Si36  1  0.70674977  0.00174785  0.75030986  1
  Si  Si37  1  0.36063701  0.03238715  0.58712997  1
  Si  Si38  1  0.66155656  0.62703947  0.58633949  1
  Si  Si39  1  0.96504753  0.63327555  0.08757941  1
  Si  Si40  1  0.36779365  0.33818503  0.08658802  1
  Si  Si41  1  0.03605200  0.36656380  0.91829650  1
  Si  Si42  1  0.33202876  0.96649039  0.91966095  1
  Si  Si43  1  0.63739545  0.96815106  0.41461308  1
  Si  Si44  1  0.03454960  0.66299076  0.41503020  1
  S  S45  1  0.29614705  0.00057776  0.24924692  1
  S  S46  1  0.70410312  0.70470607  0.24963604  1
  S  S47  1  0.99966997  0.28910425  0.24860570  1
  S  S48  1  0.29547213  0.29668567  0.75146131  1
  S  S49  1  0.00124319  0.70805057  0.75173662  1
  S  S50  1  0.96304286  0.33432701  0.58546216  1
  S  S51  1  0.66811066  0.03995109  0.08669811  1
  S  S52  1  0.62521367  0.66572551  0.91819462  1
  S  S53  1  0.33274580  0.37391482  0.41453614  1
  O  O54  1  0.21592642  0.02443652  0.30335713  1
  O  O55  1  0.80671733  0.79028162  0.30338379  1
  O  O56  1  0.98754806  0.18978078  0.30364383  1
  O  O57  1  0.21454889  0.19414450  0.80599538  1
  O  O58  1  0.98400791  0.78710651  0.80656977  1
  O  O59  1  0.81162258  0.01958856  0.81173651  1
  O  O60  1  0.79096946  0.96796510  0.69198415  1
  O  O61  1  0.19472547  0.22223505  0.69720051  1
  O  O62  1  0.02827327  0.81206886  0.69766080  1
  O  O63  1  0.78331147  0.80706598  0.19472584  1
  O  O64  1  0.01238712  0.20310217  0.19446615  1
  O  O65  1  0.19457426  0.98523148  0.19498663  1
  O  O66  1  0.88448359  0.36072702  0.63941928  1
  O  O67  1  0.48072264  0.11629946  0.64496669  1
  O  O68  1  0.64609082  0.51646537  0.64653840  1
  O  O69  1  0.88135694  0.51229606  0.14593866  1
  O  O70  1  0.64020143  0.11923013  0.13992389  1
  O  O71  1  0.47808471  0.35837136  0.14678825  1
  O  O72  1  0.46485357  0.30685709  0.02755563  1
  O  O73  1  0.84275241  0.53229198  0.02728498  1
  O  O74  1  0.69284351  0.14910553  0.03143791  1
  O  O75  1  0.46072865  0.15354188  0.52682681  1
  O  O76  1  0.68592632  0.52853305  0.52751461  1
  O  O77  1  0.85255850  0.31007745  0.53102755  1
  O  O78  1  0.54901022  0.69151680  0.97147545  1
  O  O79  1  0.15397101  0.45310667  0.97555175  1
  O  O80  1  0.31314316  0.85365570  0.97803498  1
  O  O81  1  0.55217760  0.84477770  0.47189866  1
  O  O82  1  0.30619515  0.44802248  0.46832122  1
  O  O83  1  0.15081855  0.68295178  0.47302604  1
  O  O84  1  0.10379151  0.61779040  0.35367844  1
  O  O85  1  0.52300321  0.89306000  0.35368700  1
  O  O86  1  0.36016394  0.47938791  0.35943866  1
  O  O87  1  0.12862873  0.48817500  0.85729478  1
  O  O88  1  0.36588207  0.87524015  0.85983884  1
  O  O89  1  0.51783833  0.64162575  0.86341210  1
  O  O90  1  0.01999802  0.83567047  0.41024981  1
  O  O91  1  0.83237080  0.00626453  0.40919260  1
  O  O92  1  0.18809984  0.20203453  0.40672333  1
  O  O93  1  0.00668138  0.17647441  0.91332690  1
  O  O94  1  0.16226471  0.98041412  0.91021295  1
  O  O95  1  0.79712137  0.80763897  0.90966081  1
  O  O96  1  0.97615696  0.17980250  0.58945681  1
  O  O97  1  0.17975026  0.02989005  0.58903336  1
  O  O98  1  0.82899600  0.81383319  0.58384692  1
  O  O99  1  0.96730358  0.81436863  0.08742529  1
  O  O100  1  0.82358397  0.02876310  0.09112531  1
  O  O101  1  0.17897603  0.17276425  0.08668209  1
  O  O102  1  0.68464144  0.17129349  0.74663542  1
  O  O103  1  0.46852416  0.32030615  0.74878795  1
  O  O104  1  0.85463500  0.53584896  0.74751910  1
  O  O105  1  0.69139550  0.53421195  0.24769689  1
  O  O106  1  0.84279032  0.30472339  0.24739899  1
  O  O107  1  0.47025830  0.15011147  0.24512523  1
  O  O108  1  0.63467937  0.50585419  0.92088505  1
  O  O109  1  0.84861736  0.35787185  0.92066006  1
  O  O110  1  0.50270584  0.15595862  0.92047485  1
  O  O111  1  0.64745624  0.15576255  0.42212798  1
  O  O112  1  0.48988791  0.35749467  0.41944109  1
  O  O113  1  0.83928685  0.49837558  0.42218686  1
  O  O114  1  0.36449014  0.51465118  0.07868938  1
  O  O115  1  0.15471617  0.66135615  0.08181414  1
  O  O116  1  0.52144289  0.87223261  0.07904363  1
  O  O117  1  0.33576954  0.84409844  0.58009938  1
  O  O118  1  0.48627076  0.63351081  0.57903830  1
  O  O119  1  0.13010822  0.48191235  0.57723231  1
  O  O120  1  0.31005510  0.84381543  0.25287950  1
  O  O121  1  0.53004587  0.68171110  0.25386705  1
  O  O122  1  0.15304884  0.45937338  0.24992553  1
  O  O123  1  0.31193451  0.47042369  0.75714069  1
  O  O124  1  0.15856813  0.68824476  0.75547343  1
  O  O125  1  0.51066846  0.82557165  0.75460492  1
