# generated using pymatgen
data_CaNbP(SO6)2
_symmetry_space_group_name_H-M   'P 1'
_cell_length_a   9.13294744
_cell_length_b   9.11700364
_cell_length_c   22.80952533
_cell_angle_alpha   90.34429813
_cell_angle_beta   90.00000000
_cell_angle_gamma   120.05786665
_symmetry_Int_Tables_number   1
_chemical_formula_structural   CaNbP(SO6)2
_chemical_formula_sum   'Ca6 Nb6 P6 S12 O72'
_cell_volume   1643.78860345
_cell_formula_units_Z   6
loop_
 _symmetry_equiv_pos_site_id
 _symmetry_equiv_pos_as_xyz
  1  'x, y, z'
loop_
 _atom_site_type_symbol
 _atom_site_label
 _atom_site_symmetry_multiplicity
 _atom_site_fract_x
 _atom_site_fract_y
 _atom_site_fract_z
 _atom_site_occupancy
  Ca  Ca0  1  0.99838207  0.00292799  0.36202726  1
  Ca  Ca1  1  0.00454592  0.00292799  0.86202726  1
  Ca  Ca2  1  0.66538701  0.33377239  0.69516852  1
  Ca  Ca3  1  0.66838638  0.33377239  0.19516852  1
  Ca  Ca4  1  0.33010264  0.66610006  0.02854524  1
  Ca  Ca5  1  0.33599643  0.66610006  0.52854524  1
  Nb  Nb6  1  0.00454105  0.01447215  0.64349648  1
  Nb  Nb7  1  0.00993110  0.01447215  0.14349648  1
  Nb  Nb8  1  0.65586091  0.32910458  0.97706289  1
  Nb  Nb9  1  0.67324467  0.32910458  0.47706289  1
  Nb  Nb10  1  0.33866531  0.66962803  0.31054564  1
  Nb  Nb11  1  0.33096173  0.66962803  0.81054564  1
  P  P12  1  0.01963863  0.29580976  0.25175135  1
  P  P13  1  0.27617113  0.29580976  0.75175135  1
  P  P14  1  0.94276523  0.31944322  0.58443867  1
  P  P15  1  0.37667898  0.31944322  0.08443867  1
  P  P16  1  0.34894469  0.95695715  0.91812332  1
  P  P17  1  0.60801146  0.95695715  0.41812332  1
  S  S18  1  0.27493404  0.97867633  0.25044171  1
  S  S19  1  0.70707942  0.72499756  0.25011923  1
  S  S20  1  0.01791814  0.72499756  0.75011923  1
  S  S21  1  0.70374229  0.97867633  0.75044171  1
  S  S22  1  0.37053065  0.05815574  0.58304227  1
  S  S23  1  0.68959727  0.63018038  0.58420533  1
  S  S24  1  0.94058411  0.63018038  0.08420533  1
  S  S25  1  0.68762609  0.05815574  0.08304227  1
  S  S26  1  0.60765339  0.64776726  0.91665201  1
  S  S27  1  0.03509679  0.39298326  0.91675617  1
  S  S28  1  0.35788548  0.39298326  0.41675617  1
  S  S29  1  0.04011287  0.64776726  0.41665201  1
  O  O30  1  0.20341206  0.00648057  0.30265353  1
  O  O31  1  0.80597728  0.79448490  0.30273287  1
  O  O32  1  0.99290529  0.18761019  0.30336538  1
  O  O33  1  0.19470490  0.18761019  0.80336538  1
  O  O34  1  0.98850762  0.79448490  0.80273287  1
  O  O35  1  0.80306851  0.00648057  0.80265353  1
  O  O36  1  0.78750938  0.94873470  0.69748461  1
  O  O37  1  0.15005493  0.19861961  0.69523732  1
  O  O38  1  0.04881842  0.83654080  0.69789775  1
  O  O39  1  0.78772238  0.83654080  0.19789775  1
  O  O40  1  0.04856468  0.19861961  0.19523732  1
  O  O41  1  0.16122532  0.94873470  0.19748461  1
  O  O42  1  0.86340974  0.34265006  0.63761957  1
  O  O43  1  0.47009946  0.12941836  0.63542034  1
  O  O44  1  0.65861324  0.52823666  0.63584067  1
  O  O45  1  0.86962442  0.52823666  0.13584067  1
  O  O46  1  0.65931991  0.12941836  0.13542034  1
  O  O47  1  0.47924133  0.34265006  0.13761957  1
  O  O48  1  0.47037475  0.28868892  0.02870192  1
  O  O49  1  0.82754882  0.54440979  0.03113747  1
  O  O50  1  0.71877573  0.17220344  0.03062445  1
  O  O51  1  0.45342871  0.17220344  0.53062445  1
  O  O52  1  0.71686198  0.54440979  0.53113747  1
  O  O53  1  0.81831517  0.28868892  0.52870192  1
  O  O54  1  0.53677453  0.67510490  0.96894845  1
  O  O55  1  0.13937235  0.46191290  0.96820790  1
  O  O56  1  0.32801754  0.85741767  0.97172228  1
  O  O57  1  0.52939913  0.85741767  0.47172228  1
  O  O58  1  0.32253955  0.46191290  0.46820790  1
  O  O59  1  0.13832936  0.67510490  0.46894845  1
  O  O60  1  0.12208408  0.61564334  0.36382599  1
  O  O61  1  0.48470834  0.86407314  0.36283223  1
  O  O62  1  0.38471413  0.50759621  0.36399669  1
  O  O63  1  0.12288108  0.50759621  0.86399669  1
  O  O64  1  0.37936379  0.86407314  0.86283223  1
  O  O65  1  0.49355825  0.61564334  0.86382599  1
  O  O66  1  0.00292094  0.78149539  0.40515416  1
  O  O67  1  0.78527122  0.00207100  0.40509006  1
  O  O68  1  0.22723881  0.22058981  0.40425127  1
  O  O69  1  0.99335100  0.22058981  0.90425127  1
  O  O70  1  0.21679978  0.00207100  0.90509006  1
  O  O71  1  0.77857445  0.78149539  0.90515416  1
  O  O72  1  0.94429029  0.14209644  0.59328045  1
  O  O73  1  0.19880740  0.05226485  0.59122840  1
  O  O74  1  0.85452669  0.79957145  0.59331116  1
  O  O75  1  0.94504476  0.79957145  0.09331116  1
  O  O76  1  0.85345746  0.05226485  0.09122840  1
  O  O77  1  0.19780615  0.14209644  0.09328045  1
  O  O78  1  0.66467980  0.11110182  0.73934834  1
  O  O79  1  0.45082250  0.33665757  0.73645024  1
  O  O80  1  0.88770553  0.55144184  0.73967428  1
  O  O81  1  0.66373731  0.55144184  0.23967428  1
  O  O82  1  0.88583606  0.33665757  0.23645024  1
  O  O83  1  0.44642302  0.11110182  0.23934834  1
  O  O84  1  0.61549985  0.48256006  0.92440966  1
  O  O85  1  0.86889690  0.39260639  0.92553718  1
  O  O86  1  0.52556983  0.13863033  0.92761225  1
  O  O87  1  0.61306150  0.13863033  0.42761225  1
  O  O88  1  0.52371049  0.39260639  0.42553718  1
  O  O89  1  0.86706122  0.48256006  0.42440966  1
  O  O90  1  0.33092367  0.44991873  0.06993225  1
  O  O91  1  0.11187576  0.66818585  0.07310864  1
  O  O92  1  0.55573342  0.88619031  0.07192637  1
  O  O93  1  0.33045589  0.88619031  0.57192637  1
  O  O94  1  0.55630909  0.66818585  0.57310864  1
  O  O95  1  0.11899406  0.44991873  0.56993225  1
  O  O96  1  0.27898984  0.81178780  0.25821368  1
  O  O97  1  0.53451544  0.71958430  0.25917892  1
  O  O98  1  0.19299104  0.47244405  0.26166717  1
  O  O99  1  0.27945201  0.47244405  0.76166717  1
  O  O100  1  0.18506786  0.71958430  0.75917892  1
  O  O101  1  0.53279697  0.81178780  0.75821368  1
