# generated using pymatgen
data_Na4La2Zn2SiS5O24
_symmetry_space_group_name_H-M   'P 1'
_cell_length_a   9.30080216
_cell_length_b   9.24658874
_cell_length_c   23.50370260
_cell_angle_alpha   90.04975966
_cell_angle_beta   89.74755449
_cell_angle_gamma   120.05571099
_symmetry_Int_Tables_number   1
_chemical_formula_structural   Na4La2Zn2SiS5O24
_chemical_formula_sum   'Na12 La6 Zn6 Si3 S15 O72'
_cell_volume   1749.52458658
_cell_formula_units_Z   3
loop_
 _symmetry_equiv_pos_site_id
 _symmetry_equiv_pos_as_xyz
  1  'x, y, z'
loop_
 _atom_site_type_symbol
 _atom_site_label
 _atom_site_symmetry_multiplicity
 _atom_site_fract_x
 _atom_site_fract_y
 _atom_site_fract_z
 _atom_site_occupancy
  Na  Na0  1  0.98598546  0.62477083  0.24304352  1
  Na  Na1  1  0.98951302  0.34322986  0.76901922  1
  Na  Na2  1  0.36794699  0.98871975  0.75975129  1
  Na  Na3  1  0.65245047  0.97100508  0.58973726  1
  Na  Na4  1  0.67727539  0.68669734  0.07444814  1
  Na  Na5  1  0.33908969  0.03392953  0.41662951  1
  Na  Na6  1  0.01611630  0.00046614  0.49463718  1
  Na  Na7  1  0.02177396  0.99220960  0.00693146  1
  Na  Na8  1  0.66513173  0.32828927  0.84687177  1
  Na  Na9  1  0.66670257  0.33311357  0.32996265  1
  Na  Na10  1  0.31426172  0.66509597  0.17383236  1
  Na  Na11  1  0.36080341  0.68854129  0.67331380  1
  La  La12  1  0.97752665  0.98818341  0.85454821  1
  La  La13  1  0.00453247  0.99556149  0.64731863  1
  La  La14  1  0.00857439  0.00640744  0.15516070  1
  La  La15  1  0.65484473  0.32798209  0.67887284  1
  La  La16  1  0.30657353  0.66584482  0.02381524  1
  La  La17  1  0.32575566  0.66695496  0.50647786  1
  Zn  Zn18  1  0.99314800  0.00351294  0.34510367  1
  Zn  Zn19  1  0.67588855  0.33321172  0.17030957  1
  Zn  Zn20  1  0.68992409  0.34853415  0.98943176  1
  Zn  Zn21  1  0.64985501  0.32738881  0.48563471  1
  Zn  Zn22  1  0.34288372  0.66237558  0.31981115  1
  Zn  Zn23  1  0.38025714  0.69571493  0.82146502  1
  Si  Si24  1  0.68698234  0.99407866  0.74412827  1
  Si  Si25  1  0.35976475  0.02865693  0.57564028  1
  Si  Si26  1  0.94923736  0.62448867  0.09134261  1
  S  S27  1  0.30602301  0.98991220  0.25866822  1
  S  S28  1  0.69342974  0.70023189  0.25554035  1
  S  S29  1  0.00863517  0.31330526  0.25784001  1
  S  S30  1  0.30131590  0.31789632  0.75482940  1
  S  S31  1  0.01695498  0.68883068  0.75357769  1
  S  S32  1  0.95860821  0.32961760  0.57801686  1
  S  S33  1  0.67133620  0.63864251  0.57454378  1
  S  S34  1  0.67030765  0.04740285  0.08326420  1
  S  S35  1  0.38773978  0.32962858  0.08251050  1
  S  S36  1  0.61744063  0.63969841  0.92197762  1
  S  S37  1  0.01998030  0.37418457  0.91263458  1
  S  S38  1  0.35311419  0.98435490  0.91325751  1
  S  S39  1  0.64261424  0.97278751  0.41126635  1
  S  S40  1  0.32908384  0.35252235  0.40967298  1
  S  S41  1  0.01864635  0.67279639  0.40820988  1
  O  O42  1  0.22433020  0.01260785  0.30975254  1
  O  O43  1  0.81465535  0.80302223  0.30033169  1
  O  O44  1  0.00021733  0.20806722  0.30615317  1
  O  O45  1  0.21665910  0.19913819  0.80243953  1
  O  O46  1  0.00439561  0.77820540  0.80388446  1
  O  O47  1  0.83171214  0.02953568  0.79116080  1
  O  O48  1  0.75490347  0.97950127  0.68070749  1
  O  O49  1  0.20969184  0.24147850  0.70095497  1
  O  O50  1  0.03100524  0.78576439  0.70116774  1
  O  O51  1  0.75794134  0.78735844  0.19908983  1
  O  O52  1  0.02635027  0.24094284  0.20313179  1
  O  O53  1  0.19473824  0.96032226  0.20791534  1
  O  O54  1  0.89452594  0.34032905  0.63546578  1
  O  O55  1  0.45002794  0.11396731  0.63708457  1
  O  O56  1  0.68040015  0.56876449  0.63053316  1
  O  O57  1  0.86625606  0.54093868  0.15326868  1
  O  O58  1  0.65704191  0.12584956  0.13648230  1
  O  O59  1  0.46980487  0.32255061  0.13555815  1
  O  O60  1  0.46739144  0.31584020  0.03036004  1
  O  O61  1  0.83694799  0.52818615  0.03642175  1
  O  O62  1  0.66355438  0.13187330  0.03131753  1
  O  O63  1  0.46395994  0.13389930  0.51920947  1
  O  O64  1  0.67415772  0.53908384  0.52651958  1
  O  O65  1  0.85768706  0.34170429  0.53229519  1
  O  O66  1  0.53684823  0.65083392  0.97496895  1
  O  O67  1  0.12022898  0.46856681  0.96221525  1
  O  O68  1  0.33821272  0.87891928  0.96286382  1
  O  O69  1  0.58561374  0.88920930  0.46841492  1
  O  O70  1  0.30986418  0.42044872  0.46484752  1
  O  O71  1  0.12793132  0.70697880  0.45992853  1
  O  O72  1  0.10319599  0.64825232  0.35852719  1
  O  O73  1  0.51489796  0.86680637  0.36821145  1
  O  O74  1  0.34199532  0.46270828  0.36217656  1
  O  O75  1  0.10449931  0.45888463  0.85899437  1
  O  O76  1  0.35460902  0.89803919  0.85914128  1
  O  O77  1  0.52411761  0.64083324  0.87076216  1
  O  O78  1  0.00877901  0.82921543  0.40231473  1
  O  O79  1  0.80850362  0.99463779  0.40021317  1
  O  O80  1  0.18139908  0.17938412  0.40402061  1
  O  O81  1  0.00046546  0.20320610  0.91597132  1
  O  O82  1  0.20427726  0.00676783  0.91399196  1
  O  O83  1  0.78910448  0.79102147  0.92084126  1
  O  O84  1  0.95046473  0.16381932  0.57372120  1
  O  O85  1  0.17176901  0.00347742  0.57566278  1
  O  O86  1  0.81560728  0.81240831  0.56991072  1
  O  O87  1  0.96532048  0.81299299  0.08723384  1
  O  O88  1  0.82673304  0.03790496  0.08343825  1
  O  O89  1  0.21047700  0.19193162  0.08288911  1
  O  O90  1  0.66188839  0.15942396  0.75066295  1
  O  O91  1  0.47331656  0.34739623  0.75145805  1
  O  O92  1  0.86842704  0.51874879  0.75197424  1
  O  O93  1  0.68405670  0.53527068  0.25523752  1
  O  O94  1  0.85693259  0.32867113  0.25624704  1
  O  O95  1  0.47131551  0.13693048  0.24977335  1
  O  O96  1  0.62983832  0.48699730  0.92010850  1
  O  O97  1  0.85441112  0.36075408  0.91554459  1
  O  O98  1  0.50743977  0.14644518  0.91646701  1
  O  O99  1  0.64805351  0.13723764  0.41199252  1
  O  O100  1  0.48160598  0.33598590  0.41092909  1
  O  O101  1  0.85356373  0.52400753  0.41737484  1
  O  O102  1  0.39029200  0.49446970  0.08331158  1
  O  O103  1  0.13840877  0.65067523  0.09176729  1
  O  O104  1  0.52923779  0.86882610  0.08404147  1
  O  O105  1  0.35982219  0.84885361  0.57687022  1
  O  O106  1  0.51657765  0.64980271  0.57521818  1
  O  O107  1  0.13383416  0.46526322  0.57496061  1
  O  O108  1  0.31340939  0.83138335  0.26311093  1
  O  O109  1  0.52680697  0.68188106  0.26400985  1
  O  O110  1  0.15787787  0.48689680  0.26141840  1
  O  O111  1  0.30014482  0.47572700  0.76271656  1
  O  O112  1  0.16868014  0.67517010  0.75660984  1
  O  O113  1  0.50472637  0.82885911  0.75601329  1
