# generated using pymatgen
data_Na5Mg4PS5O24
_symmetry_space_group_name_H-M   'P 1'
_cell_length_a   8.86307928
_cell_length_b   8.86240701
_cell_length_c   22.26065865
_cell_angle_alpha   89.94924591
_cell_angle_beta   89.92217224
_cell_angle_gamma   120.04801975
_symmetry_Int_Tables_number   1
_chemical_formula_structural   Na5Mg4PS5O24
_chemical_formula_sum   'Na15 Mg12 P3 S15 O72'
_cell_volume   1513.53861845
_cell_formula_units_Z   3
loop_
 _symmetry_equiv_pos_site_id
 _symmetry_equiv_pos_as_xyz
  1  'x, y, z'
loop_
 _atom_site_type_symbol
 _atom_site_label
 _atom_site_symmetry_multiplicity
 _atom_site_fract_x
 _atom_site_fract_y
 _atom_site_fract_z
 _atom_site_occupancy
  Na  Na0  1  0.35911474  0.35304904  0.25123722  1
  Na  Na1  1  0.00476763  0.64414526  0.24810510  1
  Na  Na2  1  0.63901795  0.64406262  0.74531055  1
  Na  Na3  1  0.99383307  0.35512627  0.75264848  1
  Na  Na4  1  0.31377998  0.34164608  0.58397368  1
  Na  Na5  1  0.66884694  0.96388352  0.58666827  1
  Na  Na6  1  0.30294820  0.97070210  0.08709980  1
  Na  Na7  1  0.69672050  0.02931606  0.91357026  1
  Na  Na8  1  0.69651990  0.66537808  0.42131411  1
  Na  Na9  1  0.00605553  0.98993643  0.49994963  1
  Na  Na10  1  0.00007274  0.99996818  0.00017915  1
  Na  Na11  1  0.65346625  0.32421468  0.83347391  1
  Na  Na12  1  0.65430048  0.29563583  0.33343611  1
  Na  Na13  1  0.34601853  0.67646098  0.16662671  1
  Na  Na14  1  0.33769310  0.68845181  0.66739287  1
  Mg  Mg15  1  0.00964319  0.00715574  0.34985499  1
  Mg  Mg16  1  0.00106768  0.00041218  0.85011650  1
  Mg  Mg17  1  0.99157265  0.98630933  0.64997126  1
  Mg  Mg18  1  0.99752528  -0.00096789  0.15016375  1
  Mg  Mg19  1  0.66252188  0.32988856  0.68298474  1
  Mg  Mg20  1  0.66448056  0.32526156  0.18308842  1
  Mg  Mg21  1  0.66945662  0.34033410  0.98327266  1
  Mg  Mg22  1  0.66962389  0.33578854  0.48350579  1
  Mg  Mg23  1  0.33040768  0.65962977  0.01690829  1
  Mg  Mg24  1  0.33095098  0.66770225  0.51624914  1
  Mg  Mg25  1  0.33734369  0.67986475  0.31648451  1
  Mg  Mg26  1  0.33700399  0.67504720  0.81714532  1
  P  P27  1  0.29753469  0.00051519  0.24775223  1
  P  P28  1  0.70129928  0.00149852  0.75061310  1
  P  P29  1  0.66709948  0.63035318  0.58213933  1
  S  S30  1  0.70407798  0.70591766  0.25115516  1
  S  S31  1  0.99826616  0.29319595  0.25032759  1
  S  S32  1  0.29435498  0.29253914  0.74941492  1
  S  S33  1  0.00285403  0.70608630  0.75073042  1
  S  S34  1  0.96366116  0.33621800  0.58425877  1
  S  S35  1  0.37154626  0.03883731  0.58266171  1
  S  S36  1  0.96160505  0.62852754  0.08418511  1
  S  S37  1  0.66868568  0.03675087  0.08105244  1
  S  S38  1  0.37163987  0.33575299  0.08411711  1
  S  S39  1  0.62818261  0.66431233  0.91580014  1
  S  S40  1  0.03817528  0.37139468  0.91577545  1
  S  S41  1  0.33140015  0.96320954  0.91892299  1
  S  S42  1  0.63209445  0.96584445  0.41774285  1
  S  S43  1  0.33103001  0.36993195  0.41655252  1
  S  S44  1  0.03639432  0.66475650  0.41555990  1
  O  O45  1  0.20591804  0.03123839  0.30138379  1
  O  O46  1  0.80627553  0.78489575  0.30659904  1
  O  O47  1  0.97057443  0.18803445  0.30465345  1
  O  O48  1  0.20850828  0.18480066  0.80214410  1
  O  O49  1  0.97774055  0.78876549  0.80398566  1
  O  O50  1  0.81568425  0.02915483  0.80697511  1
  O  O51  1  0.78876677  0.97383110  0.69423942  1
  O  O52  1  0.19282530  0.21307640  0.69373446  1
  O  O53  1  0.03008295  0.80999582  0.69604751  1
  O  O54  1  0.78763368  0.81487691  0.19832373  1
  O  O55  1  0.02410259  0.21158010  0.19673886  1
  O  O56  1  0.18759549  0.97122821  0.18987540  1
  O  O57  1  0.88630900  0.35613912  0.64034571  1
  O  O58  1  0.48245597  0.11672231  0.63611205  1
  O  O59  1  0.63909120  0.51713076  0.63867964  1
  O  O60  1  0.88237656  0.53040580  0.14039998  1
  O  O61  1  0.64055193  0.12358661  0.13295088  1
  O  O62  1  0.47142077  0.35723827  0.14021900  1
  O  O63  1  0.46012702  0.30835072  0.03236524  1
  O  O64  1  0.85589030  0.53940888  0.03151994  1
  O  O65  1  0.69019352  0.13740216  0.02499466  1
  O  O66  1  0.45364191  0.14795327  0.52902985  1
  O  O67  1  0.68266963  0.54199662  0.52483751  1
  O  O68  1  0.84893453  0.30505591  0.53248588  1
  O  O69  1  0.53999789  0.69188222  0.96755503  1
  O  O70  1  0.14407416  0.46019620  0.96838477  1
  O  O71  1  0.31009912  0.86239056  0.97487533  1
  O  O72  1  0.55182778  0.85921493  0.47304958  1
  O  O73  1  0.31484821  0.45575359  0.47147401  1
  O  O74  1  0.14359568  0.68495258  0.46841321  1
  O  O75  1  0.11553596  0.64642951  0.35958134  1
  O  O76  1  0.52397348  0.87930052  0.36492233  1
  O  O77  1  0.35450749  0.47982381  0.36277696  1
  O  O78  1  0.11753787  0.46946144  0.85955015  1
  O  O79  1  0.35981998  0.87656697  0.86694484  1
  O  O80  1  0.52845669  0.64277254  0.85968689  1
  O  O81  1  0.01146961  0.82050083  0.41219103  1
  O  O82  1  0.80648460  0.97747871  0.41217105  1
  O  O83  1  0.17466883  0.19510903  0.41218726  1
  O  O84  1  0.01592913  0.19205788  0.91293332  1
  O  O85  1  0.17722333  0.98402386  0.91183747  1
  O  O86  1  0.80430558  0.82597833  0.91168785  1
  O  O87  1  0.98841150  0.17994655  0.58848454  1
  O  O88  1  0.19845053  0.02668819  0.58973659  1
  O  O89  1  0.82787814  0.81677534  0.58662045  1
  O  O90  1  0.98300733  0.80740300  0.08688567  1
  O  O91  1  0.82291993  0.01591448  0.08816065  1
  O  O92  1  0.19535528  0.17456970  0.08803839  1
  O  O93  1  0.68661084  0.16812173  0.74428448  1
  O  O94  1  0.47498657  0.32308094  0.74530866  1
  O  O95  1  0.84027212  0.52955247  0.74541713  1
  O  O96  1  0.69134331  0.53045016  0.24523525  1
  O  O97  1  0.84911933  0.32512196  0.24394138  1
  O  O98  1  0.48072112  0.16624607  0.24258655  1
  O  O99  1  0.64841943  0.50954500  0.92282904  1
  O  O100  1  0.85803807  0.34734389  0.92037367  1
  O  O101  1  0.49391291  0.13916499  0.92302447  1
  O  O102  1  0.65389798  0.14188080  0.42325412  1
  O  O103  1  0.49184356  0.35488357  0.42012302  1
  O  O104  1  0.85793395  0.50751636  0.42057505  1
  O  O105  1  0.35186978  0.49083839  0.07708396  1
  O  O106  1  0.14175718  0.65264271  0.07956973  1
  O  O107  1  0.50625296  0.86083509  0.07692214  1
  O  O108  1  0.34995376  0.86185094  0.57606512  1
  O  O109  1  0.49971689  0.65076480  0.57833415  1
  O  O110  1  0.13996560  0.49212456  0.57695313  1
  O  O111  1  0.31167856  0.83349627  0.25518337  1
  O  O112  1  0.52246243  0.67345370  0.25625413  1
  O  O113  1  0.16136454  0.46971326  0.25590645  1
  O  O114  1  0.30786760  0.46881474  0.75452932  1
  O  O115  1  0.15239633  0.67471775  0.75694879  1
  O  O116  1  0.51987882  0.83376840  0.75634737  1
