# generated using pymatgen
data_MgMnV4CuO12
_symmetry_space_group_name_H-M   'P 1'
_cell_length_a   7.02593559
_cell_length_b   6.76972068
_cell_length_c   5.90966181
_cell_angle_alpha   74.22370183
_cell_angle_beta   106.74688506
_cell_angle_gamma   99.63624827
_symmetry_Int_Tables_number   1
_chemical_formula_structural   MgMnV4CuO12
_chemical_formula_sum   'Mg1 Mn1 V4 Cu1 O12'
_cell_volume   257.81175874
_cell_formula_units_Z   1
loop_
 _symmetry_equiv_pos_site_id
 _symmetry_equiv_pos_as_xyz
  1  'x, y, z'
loop_
 _atom_site_type_symbol
 _atom_site_label
 _atom_site_symmetry_multiplicity
 _atom_site_fract_x
 _atom_site_fract_y
 _atom_site_fract_z
 _atom_site_occupancy
  Mg  Mg0  1  0.28450600  0.27368700  0.29222800  1
  Mn  Mn1  1  0.91761700  0.91819500  0.26092600  1
  V  V2  1  0.19210700  0.60523400  0.77071100  1
  V  V3  1  0.38488800  0.80244500  0.27202300  1
  V  V4  1  0.62785600  0.20843200  0.72584100  1
  V  V5  1  0.80689800  0.39286200  0.22338100  1
  Cu  Cu6  1  0.10115900  0.07399700  0.77899000  1
  O  O7  1  0.04209700  0.80732200  0.66017600  1
  O  O8  1  0.06183100  0.36868100  0.76520300  1
  O  O9  1  0.21618100  0.00529800  0.17366400  1
  O  O10  1  0.35502000  0.64520500  0.57950400  1
  O  O11  1  0.37703100  0.12462600  0.66772700  1
  O  O12  1  0.30856700  0.57855700  0.09958400  1
  O  O13  1  0.67075200  0.38434000  0.92154600  1
  O  O14  1  0.62367000  0.89678100  0.26745500  1
  O  O15  1  0.62308200  0.32805700  0.40435300  1
  O  O16  1  0.78344400  0.02130400  0.85139700  1
  O  O17  1  0.92130300  0.62902200  0.21799500  1
  O  O18  1  0.99198800  0.22595100  0.31729300  1
