# generated using pymatgen
data_Fe3BO5
_symmetry_space_group_name_H-M   'P 1'
_cell_length_a   3.05175586
_cell_length_b   9.38142686
_cell_length_c   12.40083039
_cell_angle_alpha   90.00000000
_cell_angle_beta   90.00000000
_cell_angle_gamma   90.00000000
_symmetry_Int_Tables_number   1
_chemical_formula_structural   Fe3BO5
_chemical_formula_sum   'Fe12 B4 O20'
_cell_volume   355.03359642
_cell_formula_units_Z   4
loop_
 _symmetry_equiv_pos_site_id
 _symmetry_equiv_pos_as_xyz
  1  'x, y, z'
loop_
 _atom_site_type_symbol
 _atom_site_label
 _atom_site_symmetry_multiplicity
 _atom_site_fract_x
 _atom_site_fract_y
 _atom_site_fract_z
 _atom_site_occupancy
  Fe  Fe0  1  0.50000000  0.50000000  0.00000000  1
  Fe  Fe1  1  0.50000000  -0.00000000  0.50000000  1
  Fe  Fe2  1  0.50000000  0.74557336  0.38779106  1
  Fe  Fe3  1  -0.00000000  -0.00288972  0.72439462  1
  Fe  Fe4  1  -0.00000000  0.00288972  0.27560538  1
  Fe  Fe5  1  -0.00000000  0.50288972  0.22439462  1
  Fe  Fe6  1  0.50000000  0.75442664  0.88779106  1
  Fe  Fe7  1  -0.00000000  0.49711028  0.77560538  1
  Fe  Fe8  1  0.00000000  0.50000000  0.50000000  1
  Fe  Fe9  1  0.50000000  0.25442664  0.61220894  1
  Fe  Fe10  1  0.50000000  0.24557336  0.11220894  1
  Fe  Fe11  1  -0.00000000  -0.00000000  0.00000000  1
  B  B12  1  0.50000000  0.72620905  0.63941856  1
  B  B13  1  0.50000000  0.77379095  0.13941856  1
  B  B14  1  0.50000000  0.22620905  0.86058144  1
  B  B15  1  0.50000000  0.27379095  0.36058144  1
  O  O16  1  0.50000000  0.65213466  0.54347175  1
  O  O17  1  0.50000000  0.37320354  0.85982585  1
  O  O18  1  -0.00000000  0.10457419  0.14016833  1
  O  O19  1  -0.00000000  0.10539564  0.58135422  1
  O  O20  1  0.50000000  0.34758936  0.26441999  1
  O  O21  1  0.50000000  0.62679646  0.14017415  1
  O  O22  1  -0.00000000  0.39460436  0.08135422  1
  O  O23  1  -0.00000000  0.60457419  0.35983167  1
  O  O24  1  -0.00000000  0.89542581  0.85983167  1
  O  O25  1  -0.00000000  0.60539564  0.91864578  1
  O  O26  1  -0.00000000  0.89460436  0.41864578  1
  O  O27  1  0.50000000  0.84758936  0.23558001  1
  O  O28  1  0.50000000  0.34786534  0.45652825  1
  O  O29  1  0.50000000  0.65241064  0.73558001  1
  O  O30  1  0.50000000  0.15213466  0.95652825  1
  O  O31  1  0.50000000  0.84786534  0.04347175  1
  O  O32  1  -0.00000000  0.39542581  0.64016833  1
  O  O33  1  0.50000000  0.12679646  0.35982585  1
  O  O34  1  0.50000000  0.15241064  0.76441999  1
  O  O35  1  0.50000000  0.87320354  0.64017415  1
