# generated using pymatgen
data_Na5La3Ge(PO4)6
_symmetry_space_group_name_H-M   'P 1'
_cell_length_a   9.41453306
_cell_length_b   9.40374145
_cell_length_c   23.14800811
_cell_angle_alpha   90.03032437
_cell_angle_beta   89.92792686
_cell_angle_gamma   120.14598483
_symmetry_Int_Tables_number   1
_chemical_formula_structural   Na5La3Ge(PO4)6
_chemical_formula_sum   'Na15 La9 Ge3 P18 O72'
_cell_volume   1772.15877589
_cell_formula_units_Z   3
loop_
 _symmetry_equiv_pos_site_id
 _symmetry_equiv_pos_as_xyz
  1  'x, y, z'
loop_
 _atom_site_type_symbol
 _atom_site_label
 _atom_site_symmetry_multiplicity
 _atom_site_fract_x
 _atom_site_fract_y
 _atom_site_fract_z
 _atom_site_occupancy
  Na  Na0  1  0.64245058  0.00187123  0.25777549  1
  Na  Na1  1  0.36261980  0.36205232  0.25959839  1
  Na  Na2  1  0.99532196  0.63527143  0.25779409  1
  Na  Na3  1  0.64989780  0.65768237  0.75938545  1
  Na  Na4  1  0.00284948  0.35939419  0.75947149  1
  Na  Na5  1  0.03672188  0.69925963  0.57505446  1
  Na  Na6  1  0.66017598  0.96356660  0.57533496  1
  Na  Na7  1  0.66075108  0.69693893  0.07395387  1
  Na  Na8  1  0.03712370  0.33521776  0.07341417  1
  Na  Na9  1  0.01557083  0.01511243  0.49767497  1
  Na  Na10  1  0.01709765  -0.00021677  0.99692699  1
  Na  Na11  1  0.65665599  0.32348073  0.84135492  1
  Na  Na12  1  0.66731937  0.33314536  0.34754209  1
  Na  Na13  1  0.33567455  0.68240904  0.17063187  1
  Na  Na14  1  0.33534371  0.67188985  0.67542153  1
  La  La15  1  0.99527659  0.99757170  0.35762068  1
  La  La16  1  0.00149251  0.99921936  0.85629920  1
  La  La17  1  0.01627308  0.01111329  0.65100482  1
  La  La18  1  0.01243498  0.99987783  0.14450540  1
  La  La19  1  0.64970953  0.32514377  0.68747628  1
  La  La20  1  0.65820167  0.32476378  0.17819075  1
  La  La21  1  0.33272409  0.67517503  0.00822310  1
  La  La22  1  0.33141593  0.65247033  0.51388704  1
  La  La23  1  0.33315030  0.66322118  0.33385530  1
  Ge  Ge24  1  0.66408460  0.33150422  0.97715996  1
  Ge  Ge25  1  0.66268982  0.33205832  0.48389452  1
  Ge  Ge26  1  0.33280100  0.67983413  0.82226377  1
  P  P27  1  0.30332841  0.98976086  0.25226390  1
  P  P28  1  0.68921305  0.69736530  0.24598539  1
  P  P29  1  0.00887179  0.31081057  0.24642974  1
  P  P30  1  0.30383170  0.33526182  0.75869672  1
  P  P31  1  0.02258778  0.69723535  0.75246196  1
  P  P32  1  0.67523707  0.97737986  0.75364774  1
  P  P33  1  0.93867372  0.32269862  0.58088800  1
  P  P34  1  0.37417808  0.04738917  0.57514198  1
  P  P35  1  0.67995776  0.62775190  0.58038309  1
  P  P36  1  0.94324915  0.61757792  0.07496634  1
  P  P37  1  0.67851634  0.04847625  0.07507760  1
  P  P38  1  0.37480379  0.32765650  0.07306864  1
  P  P39  1  0.62143188  0.63650586  0.91805399  1
  P  P40  1  0.01460507  0.37860295  0.91825412  1
  P  P41  1  0.36446381  0.98499011  0.91637592  1
  P  P42  1  0.64663198  0.00365415  0.42398532  1
  P  P43  1  0.35787630  0.34893033  0.41855583  1
  P  P44  1  0.99629871  0.64354475  0.42429790  1
  O  O45  1  0.20944588  0.00655917  0.30309160  1
  O  O46  1  0.80656397  0.79501896  0.29543144  1
  O  O47  1  0.99084478  0.19418915  0.29587498  1
  O  O48  1  0.21665971  0.21958952  0.80815628  1
  O  O49  1  0.98021145  0.78522770  0.79858754  1
  O  O50  1  0.80027355  0.00482329  0.80043192  1
  O  O51  1  0.73546672  0.94077920  0.69536802  1
  O  O52  1  0.20414041  0.26320580  0.70168186  1
  O  O53  1  0.05201342  0.78684638  0.69336754  1
  O  O54  1  0.76366515  0.78647036  0.18751332  1
  O  O55  1  0.02571357  0.23769942  0.18799382  1
  O  O56  1  0.20891627  0.97367499  0.19531034  1
  O  O57  1  0.86990474  0.33324280  0.64007177  1
  O  O58  1  0.46150841  0.12061831  0.63250735  1
  O  O59  1  0.66607963  0.54785974  0.63966932  1
  O  O60  1  0.87564459  0.54707639  0.13573788  1
  O  O61  1  0.66994806  0.11222273  0.13596100  1
  O  O62  1  0.44545008  0.33003063  0.13367355  1
  O  O63  1  0.48435449  0.31827937  0.02389572  1
  O  O64  1  0.82040846  0.50653372  0.02637001  1
  O  O65  1  0.68200073  0.16719259  0.02657087  1
  O  O66  1  0.47448041  0.16096503  0.52375899  1
  O  O67  1  0.68509590  0.51730511  0.53040221  1
  O  O68  1  0.81786042  0.30593032  0.53102218  1
  O  O69  1  0.55557366  0.65952166  0.97551680  1
  O  O70  1  0.10333121  0.44087855  0.97594711  1
  O  O71  1  0.33767405  0.89762326  0.97367609  1
  O  O72  1  0.55560556  0.89023155  0.47520212  1
  O  O73  1  0.33262193  0.44953774  0.46527068  1
  O  O74  1  0.11005288  0.66842481  0.47555295  1
  O  O75  1  0.07379840  0.62497915  0.36668658  1
  O  O76  1  0.55341326  0.92359697  0.36612325  1
  O  O77  1  0.37530405  0.43511522  0.35892914  1
  O  O78  1  0.11481561  0.49956339  0.86577065  1
  O  O79  1  0.38312094  0.88042540  0.86448484  1
  O  O80  1  0.50653333  0.62258148  0.86487114  1
  O  O81  1  0.96731403  0.79019866  0.42151739  1
  O  O82  1  0.82291600  0.03332565  0.42232902  1
  O  O83  1  0.21109753  0.17330207  0.41982481  1
  O  O84  1  0.98914544  0.20690695  0.90777170  1
  O  O85  1  0.21929552  0.01057983  0.90589904  1
  O  O86  1  0.79527033  0.78310464  0.90975379  1
  O  O87  1  0.95091396  0.16316036  0.57918604  1
  O  O88  1  0.19810385  0.02325738  0.57572903  1
  O  O89  1  0.84543372  0.79648417  0.57863251  1
  O  O90  1  0.95475039  0.78799023  0.06996605  1
  O  O91  1  0.84282359  0.04528582  0.07072539  1
  O  O92  1  0.19764282  0.17874579  0.06856580  1
  O  O93  1  0.65306363  0.12816817  0.75185803  1
  O  O94  1  0.48437036  0.37655798  0.75411314  1
  O  O95  1  0.87839379  0.51610111  0.74977588  1
  O  O96  1  0.66383031  0.52072281  0.24778407  1
  O  O97  1  0.85604666  0.33335477  0.24796392  1
  O  O98  1  0.47918122  0.14268486  0.25192678  1
  O  O99  1  0.63103637  0.47251402  0.92065508  1
  O  O100  1  0.84094770  0.36763381  0.92162673  1
  O  O101  1  0.52788047  0.15700685  0.91968987  1
  O  O102  1  0.65176634  0.17190817  0.42944213  1
  O  O103  1  0.52260469  0.35089735  0.42863559  1
  O  O104  1  0.82863056  0.47951426  0.43133932  1
  O  O105  1  0.36467997  0.48766023  0.07182332  1
  O  O106  1  0.11089796  0.62636613  0.07227780  1
  O  O107  1  0.53470786  0.86920886  0.07278313  1
  O  O108  1  0.35668739  0.87399870  0.57261727  1
  O  O109  1  0.53778124  0.66469034  0.57572306  1
  O  O110  1  0.10787599  0.48056782  0.57561849  1
  O  O111  1  0.31776974  0.83203252  0.25668033  1
  O  O112  1  0.51944492  0.68672403  0.25356688  1
  O  O113  1  0.16618865  0.48301187  0.25383247  1
  O  O114  1  0.30494921  0.50512621  0.76681470  1
  O  O115  1  0.18498069  0.69010311  0.76616489  1
  O  O116  1  0.50546453  0.81129626  0.76598798  1
