# generated using pymatgen
data_Na18Ta16Zn8Si21(S5O48)3
_symmetry_space_group_name_H-M   'P 1'
_cell_length_a   17.81693460
_cell_length_b   8.91629533
_cell_length_c   22.82509773
_cell_angle_alpha   89.97582020
_cell_angle_beta   89.52348578
_cell_angle_gamma   120.11522709
_symmetry_Int_Tables_number   1
_chemical_formula_structural   Na18Ta16Zn8Si21(S5O48)3
_chemical_formula_sum   'Na18 Ta16 Zn8 Si21 S15 O144'
_cell_volume   3136.41937312
_cell_formula_units_Z   1
loop_
 _symmetry_equiv_pos_site_id
 _symmetry_equiv_pos_as_xyz
  1  'x, y, z'
loop_
 _atom_site_type_symbol
 _atom_site_label
 _atom_site_symmetry_multiplicity
 _atom_site_fract_x
 _atom_site_fract_y
 _atom_site_fract_z
 _atom_site_occupancy
  Na  Na0  1  0.32006407  0.01815209  0.24223253  1
  Na  Na1  1  0.81738301  0.01652067  0.24304756  1
  Na  Na2  1  0.99603658  0.63419650  0.24321624  1
  Na  Na3  1  0.32497664  0.62095777  0.74610036  1
  Na  Na4  1  0.81812599  0.61965049  0.74401445  1
  Na  Na5  1  0.49367261  0.36087056  0.74242251  1
  Na  Na6  1  0.99157703  0.98657095  0.49097074  1
  Na  Na7  1  0.49195608  0.99055285  0.49291203  1
  Na  Na8  1  0.99189273  0.99435265  0.98774357  1
  Na  Na9  1  0.49204668  0.99644788  0.98785901  1
  Na  Na10  1  0.32831571  0.33786329  0.82569576  1
  Na  Na11  1  0.82665273  0.32338075  0.82699707  1
  Na  Na12  1  0.32944122  0.33249910  0.32939221  1
  Na  Na13  1  0.81917186  0.31670539  0.33221014  1
  Na  Na14  1  0.16824482  0.67252860  0.16075315  1
  Na  Na15  1  0.65837660  0.66756107  0.16231141  1
  Na  Na16  1  0.16115690  0.65212988  0.66440919  1
  Na  Na17  1  0.66360686  0.66317853  0.66429631  1
  Ta  Ta18  1  0.00003949  0.01067915  0.64366698  1
  Ta  Ta19  1  0.50177758  0.99945207  0.64581158  1
  Ta  Ta20  1  0.00090754  0.99088295  0.14182943  1
  Ta  Ta21  1  0.50034795  0.98939548  0.14302852  1
  Ta  Ta22  1  0.34436030  0.34531191  0.97739673  1
  Ta  Ta23  1  0.84277908  0.34465114  0.97778873  1
  Ta  Ta24  1  0.34390280  0.34089067  0.48003080  1
  Ta  Ta25  1  0.84316433  0.34029435  0.47884397  1
  Ta  Ta26  1  0.16858214  0.66955328  0.01944508  1
  Ta  Ta27  1  0.66877909  0.66791250  0.01891662  1
  Ta  Ta28  1  0.16906026  0.67237563  0.52098429  1
  Ta  Ta29  1  0.66865890  0.66979321  0.52080550  1
  Ta  Ta30  1  0.16668458  0.67920815  0.31500128  1
  Ta  Ta31  1  0.66114663  0.67692706  0.31402447  1
  Ta  Ta32  1  0.16302722  0.64615491  0.81303030  1
  Ta  Ta33  1  0.66249786  0.65090139  0.81138269  1
  Zn  Zn34  1  0.00206379  0.99147491  0.35891662  1
  Zn  Zn35  1  0.50256848  0.99047686  0.35792231  1
  Zn  Zn36  1  0.00014070  0.01236744  0.85748405  1
  Zn  Zn37  1  0.50115673  0.99765483  0.85422980  1
  Zn  Zn38  1  0.33935654  0.36294611  0.68357161  1
  Zn  Zn39  1  0.83215538  0.34393085  0.67995022  1
  Zn  Zn40  1  0.33299982  0.32013250  0.17946733  1
  Zn  Zn41  1  0.82704062  0.31499289  0.17762684  1
  Si  Si42  1  0.14747840  0.01716984  0.25275576  1
  Si  Si43  1  0.64658502  0.01593371  0.25267796  1
  Si  Si44  1  0.14488535  0.27478287  0.75312744  1
  Si  Si45  1  0.64833993  0.27692596  0.75228265  1
  Si  Si46  1  0.50165984  0.71505230  0.75411805  1
  Si  Si47  1  0.47966997  0.33167116  0.58747421  1
  Si  Si48  1  0.97774093  0.33937326  0.58671252  1
  Si  Si49  1  0.33391663  0.62503807  0.58494982  1
  Si  Si50  1  0.83371299  0.62289120  0.58559456  1
  Si  Si51  1  0.47803123  0.61459522  0.08626774  1
  Si  Si52  1  0.97780291  0.61339740  0.08761932  1
  Si  Si53  1  0.33292549  0.04398908  0.08579474  1
  Si  Si54  1  0.83245212  0.04214572  0.08518960  1
  Si  Si55  1  0.31459411  0.66722246  0.91663104  1
  Si  Si56  1  0.81469945  0.66920507  0.91482611  1
  Si  Si57  1  0.02311597  0.37174901  0.91878190  1
  Si  Si58  1  0.52403899  0.36784763  0.91718558  1
  Si  Si59  1  0.31632751  0.96590440  0.41707213  1
  Si  Si60  1  0.81441191  0.96162523  0.41599897  1
  Si  Si61  1  0.02259526  0.67243223  0.41835174  1
  Si  Si62  1  0.52184784  0.67441987  0.41964991  1
  S  S63  1  0.35458414  0.70586101  0.25053185  1
  S  S64  1  0.85339005  0.70791207  0.24996905  1
  S  S65  1  0.00366130  0.28980564  0.25157391  1
  S  S66  1  0.50332504  0.29008441  0.25167744  1
  S  S67  1  0.00343279  0.71676432  0.75175992  1
  S  S68  1  0.35231651  0.99786843  0.75028669  1
  S  S69  1  0.85582313  0.00392083  0.75059902  1
  S  S70  1  0.18851829  0.04470930  0.58416532  1
  S  S71  1  0.68863890  0.04404089  0.58289581  1
  S  S72  1  0.18825144  0.33431770  0.08400738  1
  S  S73  1  0.68746498  0.33355253  0.08341216  1
  S  S74  1  0.16866442  0.95539029  0.91696437  1
  S  S75  1  0.66910550  0.95637449  0.91787197  1
  S  S76  1  0.16832108  0.38266930  0.41758881  1
  S  S77  1  0.66840482  0.38345141  0.41715743  1
  O  O78  1  0.09603343  0.02210902  0.30841015  1
  O  O79  1  0.59953003  0.03016703  0.30923952  1
  O  O80  1  0.40333202  0.78862687  0.30283240  1
  O  O81  1  0.90501232  0.78869857  0.30165755  1
  O  O82  1  0.48884640  0.18344542  0.30365085  1
  O  O83  1  0.98929465  0.18380090  0.30341597  1
  O  O84  1  0.09673931  0.16789820  0.80971835  1
  O  O85  1  0.60065142  0.17867687  0.81015679  1
  O  O86  1  0.47605778  0.79406397  0.80776768  1
  O  O87  1  0.98889901  0.79389036  0.80366790  1
  O  O88  1  0.40314218  0.02593636  0.80261797  1
  O  O89  1  0.90519817  0.02177986  0.80265394  1
  O  O90  1  0.39349949  0.96266804  0.69671185  1
  O  O91  1  0.89784420  0.96958849  0.69609868  1
  O  O92  1  0.08227263  0.18666093  0.69329172  1
  O  O93  1  0.58352754  0.19612434  0.69294662  1
  O  O94  1  0.01406538  0.82183925  0.69713070  1
  O  O95  1  0.51309812  0.83471598  0.69323148  1
  O  O96  1  0.39558506  0.82455467  0.19646354  1
  O  O97  1  0.89553185  0.82488916  0.19594884  1
  O  O98  1  0.01309774  0.20631677  0.19704324  1
  O  O99  1  0.51410721  0.20704767  0.19718951  1
  O  O100  1  0.08237929  0.97386320  0.19347762  1
  O  O101  1  0.58448640  0.98177938  0.19298487  1
  O  O102  1  0.44123922  0.36146219  0.64631611  1
  O  O103  1  0.93636210  0.36531934  0.64405344  1
  O  O104  1  0.23866211  0.11272435  0.63649697  1
  O  O105  1  0.73757537  0.10987732  0.63619026  1
  O  O106  1  0.30868937  0.51997818  0.64493072  1
  O  O107  1  0.81101817  0.52192095  0.64635662  1
  O  O108  1  0.43687535  0.50903777  0.14450955  1
  O  O109  1  0.93901133  0.51661485  0.14854337  1
  O  O110  1  0.30985318  0.09762973  0.14703984  1
  O  O111  1  0.81247640  0.09974333  0.14676459  1
  O  O112  1  0.23686121  0.36436871  0.13727074  1
  O  O113  1  0.73744467  0.36672281  0.13681639  1
  O  O114  1  0.22571066  0.30285862  0.03086730  1
  O  O115  1  0.72626182  0.30322559  0.03077837  1
  O  O116  1  0.41701552  0.53134223  0.02683741  1
  O  O117  1  0.91537927  0.52648019  0.02947070  1
  O  O118  1  0.34418481  0.16958547  0.02880765  1
  O  O119  1  0.84446056  0.16881388  0.02851753  1
  O  O120  1  0.22669908  0.14935644  0.53005146  1
  O  O121  1  0.72983916  0.15023013  0.52962846  1
  O  O122  1  0.34390657  0.51972128  0.52739378  1
  O  O123  1  0.84482226  0.51919105  0.52799924  1
  O  O124  1  0.41698246  0.30318417  0.52834068  1
  O  O125  1  0.91725373  0.30206484  0.52656595  1
  O  O126  1  0.25828907  0.68008821  0.97228379  1
  O  O127  1  0.76155792  0.68683881  0.97159584  1
  O  O128  1  0.08060339  0.48652646  0.97395984  1
  O  O129  1  0.58224998  0.48529978  0.97238007  1
  O  O130  1  0.16061249  0.84889160  0.97087961  1
  O  O131  1  0.66166335  0.84995574  0.97144125  1
  O  O132  1  0.26136154  0.83712492  0.47165520  1
  O  O133  1  0.76136023  0.83622238  0.47157766  1
  O  O134  1  0.16021316  0.47261162  0.47026686  1
  O  O135  1  0.66076731  0.47313329  0.47029901  1
  O  O136  1  0.08227523  0.67591458  0.47206722  1
  O  O137  1  0.58215840  0.67772192  0.47300359  1
  O  O138  1  0.06716744  0.63540177  0.35798956  1
  O  O139  1  0.56672834  0.63598218  0.35995348  1
  O  O140  1  0.25158621  0.86259737  0.35814403  1
  O  O141  1  0.75050260  0.85895867  0.35728952  1
  O  O142  1  0.18136864  0.49340018  0.36353364  1
  O  O143  1  0.68204825  0.49314405  0.36349879  1
  O  O144  1  0.06762521  0.50015402  0.86019898  1
  O  O145  1  0.56701683  0.49646786  0.85812289  1
  O  O146  1  0.18240986  0.87349147  0.86402788  1
  O  O147  1  0.68365279  0.87598374  0.86491026  1
  O  O148  1  0.25040137  0.64141226  0.85838407  1
  O  O149  1  0.75283043  0.64549226  0.85709576  1
  O  O150  1  0.01337362  0.83881145  0.41752729  1
  O  O151  1  0.51304797  0.84112462  0.41853551  1
  O  O152  1  0.40987811  0.99079328  0.40918097  1
  O  O153  1  0.90912786  0.98995810  0.40903025  1
  O  O154  1  0.09001600  0.21592313  0.41420259  1
  O  O155  1  0.59014671  0.21584532  0.41451645  1
  O  O156  1  0.01350344  0.18691943  0.91864522  1
  O  O157  1  0.51378369  0.18306709  0.91544980  1
  O  O158  1  0.09043274  0.96581048  0.91533267  1
  O  O159  1  0.59199108  0.96929508  0.91683235  1
  O  O160  1  0.40721792  0.83277581  0.91491317  1
  O  O161  1  0.91028853  0.82911107  0.91035434  1
  O  O162  1  0.49079222  0.15957285  0.58992267  1
  O  O163  1  0.98894555  0.16344810  0.59100097  1
  O  O164  1  0.09820886  0.01972620  0.58956937  1
  O  O165  1  0.60015151  0.02532531  0.58679803  1
  O  O166  1  0.42182043  0.81823881  0.58990785  1
  O  O167  1  0.92283265  0.81603808  0.59222598  1
  O  O168  1  0.48912313  0.81401060  0.09169143  1
  O  O169  1  0.98856276  0.81278318  0.09143743  1
  O  O170  1  0.42222428  0.02909114  0.09382864  1
  O  O171  1  0.92234494  0.02815966  0.09329043  1
  O  O172  1  0.09756027  0.17617620  0.09055962  1
  O  O173  1  0.59782281  0.17693497  0.09001701  1
  O  O174  1  0.33908261  0.14443033  0.74010732  1
  O  O175  1  0.84309631  0.15060887  0.74138177  1
  O  O176  1  0.24356350  0.32038817  0.74598522  1
  O  O177  1  0.74792247  0.32206677  0.74572047  1
  O  O178  1  0.42443084  0.51486104  0.74811038  1
  O  O179  1  0.92971027  0.53901401  0.74584011  1
  O  O180  1  0.34116366  0.53354450  0.24165870  1
  O  O181  1  0.84391961  0.53648582  0.24156791  1
  O  O182  1  0.42973704  0.32054847  0.24602432  1
  O  O183  1  0.93048944  0.32371946  0.24680009  1
  O  O184  1  0.24711274  0.16926084  0.24687442  1
  O  O185  1  0.74687530  0.16986602  0.24623939  1
  O  O186  1  0.31069972  0.47826270  0.92627801  1
  O  O187  1  0.81212904  0.48153578  0.92674571  1
  O  O188  1  0.42864674  0.36267606  0.92342166  1
  O  O189  1  0.92759895  0.36453369  0.92332901  1
  O  O190  1  0.24843331  0.12837917  0.92394760  1
  O  O191  1  0.74961208  0.13021515  0.92473541  1
  O  O192  1  0.31109475  0.14446265  0.42551501  1
  O  O193  1  0.81106407  0.14307787  0.42476984  1
  O  O194  1  0.24805896  0.36960286  0.42227773  1
  O  O195  1  0.74831743  0.36960855  0.42272317  1
  O  O196  1  0.42684296  0.49030355  0.42316234  1
  O  O197  1  0.92706844  0.48950991  0.42219734  1
  O  O198  1  0.17370850  0.48545438  0.07574959  1
  O  O199  1  0.67428447  0.48600249  0.07511821  1
  O  O200  1  0.07533392  0.64770136  0.07495477  1
  O  O201  1  0.57606840  0.64983525  0.07332180  1
  O  O202  1  0.25210754  0.84658984  0.07200981  1
  O  O203  1  0.75197857  0.84541057  0.07207203  1
  O  O204  1  0.17442620  0.86354916  0.57502711  1
  O  O205  1  0.67500499  0.86366968  0.57450874  1
  O  O206  1  0.25177621  0.65641030  0.57032296  1
  O  O207  1  0.75282101  0.65734341  0.57099348  1
  O  O208  1  0.07555765  0.50161863  0.57283171  1
  O  O209  1  0.57599104  0.50115293  0.57247387  1
  O  O210  1  0.15246688  0.82240887  0.25674411  1
  O  O211  1  0.65482287  0.82679782  0.25671391  1
  O  O212  1  0.26577595  0.69779661  0.25376685  1
  O  O213  1  0.76564318  0.69577330  0.25322290  1
  O  O214  1  0.08656984  0.46773445  0.25476225  1
  O  O215  1  0.58743746  0.46566480  0.25597863  1
  O  O216  1  0.15292011  0.48067070  0.75707290  1
  O  O217  1  0.65564896  0.48259969  0.75586410  1
  O  O218  1  0.08752882  0.71007707  0.75595360  1
  O  O219  1  0.59435388  0.70740126  0.75805667  1
  O  O220  1  0.26433924  0.83066580  0.75473313  1
  O  O221  1  0.76907079  0.83518602  0.75288731  1
