# generated using pymatgen
data_Na6Sc2In2Si3(SO8)3
_symmetry_space_group_name_H-M   'P 1'
_cell_length_a   9.19514435
_cell_length_b   9.16553343
_cell_length_c   22.75500981
_cell_angle_alpha   90.36132076
_cell_angle_beta   89.61775954
_cell_angle_gamma   120.09946413
_symmetry_Int_Tables_number   1
_chemical_formula_structural   Na6Sc2In2Si3(SO8)3
_chemical_formula_sum   'Na18 Sc6 In6 Si9 S9 O72'
_cell_volume   1659.11158768
_cell_formula_units_Z   3
loop_
 _symmetry_equiv_pos_site_id
 _symmetry_equiv_pos_as_xyz
  1  'x, y, z'
loop_
 _atom_site_type_symbol
 _atom_site_label
 _atom_site_symmetry_multiplicity
 _atom_site_fract_x
 _atom_site_fract_y
 _atom_site_fract_z
 _atom_site_occupancy
  Na  Na0  1  0.63374437  0.00661554  0.25838647  1
  Na  Na1  1  0.34899897  0.35135278  0.25396807  1
  Na  Na2  1  0.64822058  0.64626598  0.73727512  1
  Na  Na3  1  0.98603060  0.36550894  0.74560074  1
  Na  Na4  1  0.01876505  0.68667181  0.59163147  1
  Na  Na5  1  0.67557747  0.96655860  0.58280554  1
  Na  Na6  1  0.31008410  0.96965892  0.09504627  1
  Na  Na7  1  0.02381260  0.32182831  0.08293281  1
  Na  Na8  1  0.97040971  0.65733884  0.90096960  1
  Na  Na9  1  0.71429227  0.04565306  0.90975087  1
  Na  Na10  1  0.95264788  0.28800814  0.42152391  1
  Na  Na11  1  0.34446809  0.03113463  0.41378319  1
  Na  Na12  1  0.97459564  0.99376102  0.50627066  1
  Na  Na13  1  0.99167568  0.01431645  0.99804892  1
  Na  Na14  1  0.66762192  0.32335176  0.82224688  1
  Na  Na15  1  0.67455510  0.33169769  0.33516353  1
  Na  Na16  1  0.32540070  0.67184749  0.17331137  1
  Na  Na17  1  0.33331928  0.66642140  0.66495908  1
  Sc  Sc18  1  0.99125294  0.00321759  0.34896927  1
  Sc  Sc19  1  0.98657920  0.99298365  0.64870135  1
  Sc  Sc20  1  0.68070569  0.34250833  0.68279626  1
  Sc  Sc21  1  0.66653655  0.31524194  0.18862957  1
  Sc  Sc22  1  0.67560326  0.33492801  0.48680606  1
  Sc  Sc23  1  0.32867057  0.68130926  0.31385286  1
  In  In24  1  0.99847350  0.01170499  0.84331480  1
  In  In25  1  0.99468023  0.00276962  0.15455217  1
  In  In26  1  0.67852163  0.32879102  0.98413188  1
  In  In27  1  0.33675319  0.66214350  0.01624559  1
  In  In28  1  0.34961416  0.66097209  0.52089760  1
  In  In29  1  0.32224124  0.67030050  0.81075082  1
  Si  Si30  1  0.29069646  0.99858287  0.24843752  1
  Si  Si31  1  0.00509968  0.30456217  0.24911923  1
  Si  Si32  1  0.99880728  0.70604723  0.75006328  1
  Si  Si33  1  0.69539507  0.00024681  0.75095097  1
  Si  Si34  1  0.96980995  0.33522240  0.58183400  1
  Si  Si35  1  0.66757282  0.62646249  0.58564153  1
  Si  Si36  1  0.66511716  0.02486978  0.08320640  1
  Si  Si37  1  0.04165888  0.36914915  0.91844778  1
  Si  Si38  1  0.63155974  0.96501037  0.41680863  1
  S  S39  1  0.70064934  0.69933116  0.25053497  1
  S  S40  1  0.29867528  0.29249137  0.74929238  1
  S  S41  1  0.37161539  0.04382828  0.58221488  1
  S  S42  1  0.95901325  0.63159911  0.08340967  1
  S  S43  1  0.37775811  0.33491825  0.08369080  1
  S  S44  1  0.63273575  0.66253093  0.91727757  1
  S  S45  1  0.33231471  0.96784294  0.91948246  1
  S  S46  1  0.33288348  0.36770400  0.41353803  1
  S  S47  1  0.03737848  0.66839255  0.41719935  1
  O  O48  1  0.19443928  0.02204169  0.30493220  1
  O  O49  1  0.80837704  0.78201192  0.30161070  1
  O  O50  1  0.96667080  0.17245936  0.30350578  1
  O  O51  1  0.23149164  0.20141043  0.80594705  1
  O  O52  1  0.98228146  0.79140307  0.81284910  1
  O  O53  1  0.80567916  0.04390255  0.81270792  1
  O  O54  1  0.79423147  0.97278044  0.69576743  1
  O  O55  1  0.18555837  0.20399267  0.69997586  1
  O  O56  1  0.01801006  0.82312486  0.69427799  1
  O  O57  1  0.76901429  0.80263323  0.19643213  1
  O  O58  1  0.04500666  0.23412411  0.18759765  1
  O  O59  1  0.18588066  0.96948974  0.18687672  1
  O  O60  1  0.88083161  0.36619560  0.64000383  1
  O  O61  1  0.48230747  0.13158909  0.63245494  1
  O  O62  1  0.64751346  0.52107665  0.64534115  1
  O  O63  1  0.86366645  0.52211631  0.13292858  1
  O  O64  1  0.63574413  0.12105515  0.13963241  1
  O  O65  1  0.47369066  0.35051088  0.13730350  1
  O  O66  1  0.46537011  0.32401941  0.03010718  1
  O  O67  1  0.86919910  0.56315585  0.02663102  1
  O  O68  1  0.70134631  0.13872936  0.02318097  1
  O  O69  1  0.44844315  0.13561972  0.52610001  1
  O  O70  1  0.68381672  0.52392589  0.52886460  1
  O  O71  1  0.85094335  0.30152855  0.52265486  1
  O  O72  1  0.55508602  0.69353106  0.97028133  1
  O  O73  1  0.13832908  0.44850878  0.98182199  1
  O  O74  1  0.30952331  0.86846608  0.97449206  1
  O  O75  1  0.54210885  0.85984488  0.47660299  1
  O  O76  1  0.29752673  0.44244344  0.46585498  1
  O  O77  1  0.13826414  0.69531417  0.47091846  1
  O  O78  1  0.12224085  0.64031468  0.36559545  1
  O  O79  1  0.51313824  0.87146540  0.35860086  1
  O  O80  1  0.35233024  0.46790251  0.36005793  1
  O  O81  1  0.13320198  0.49511263  0.86331439  1
  O  O82  1  0.36766962  0.88742930  0.86876014  1
  O  O83  1  0.53563529  0.64315206  0.86376522  1
  O  O84  1  0.02468358  0.82220700  0.40913579  1
  O  O85  1  0.82409185  0.99390790  0.41196717  1
  O  O86  1  0.17952768  0.19405076  0.40907376  1
  O  O87  1  0.01220581  0.17684724  0.91409677  1
  O  O88  1  0.17738577  0.97559099  0.91340538  1
  O  O89  1  0.80564320  0.81363519  0.91512328  1
  O  O90  1  0.98440683  0.16622523  0.58819356  1
  O  O91  1  0.20295581  0.02341899  0.58745185  1
  O  O92  1  0.84395804  0.81279214  0.58616605  1
  O  O93  1  0.98988198  0.80612486  0.08756473  1
  O  O94  1  0.83809534  0.01369265  0.08853030  1
  O  O95  1  0.20963231  0.17580655  0.08336447  1
  O  O96  1  0.67297674  0.16378917  0.74261716  1
  O  O97  1  0.46837134  0.31732075  0.74275667  1
  O  O98  1  0.82367692  0.51951258  0.74859941  1
  O  O99  1  0.67816381  0.52873816  0.24353528  1
  O  O100  1  0.83310508  0.31739867  0.24426354  1
  O  O101  1  0.47685990  0.17732965  0.24512769  1
  O  O102  1  0.64911051  0.50934743  0.92374458  1
  O  O103  1  0.85182974  0.35580591  0.91874537  1
  O  O104  1  0.48371805  0.13990839  0.92346477  1
  O  O105  1  0.64513650  0.15406155  0.41836948  1
  O  O106  1  0.48163491  0.34745179  0.41952630  1
  O  O107  1  0.86888374  0.51397637  0.42034495  1
  O  O108  1  0.34990208  0.48183948  0.08214552  1
  O  O109  1  0.12690770  0.63915697  0.08261340  1
  O  O110  1  0.48477038  0.84279809  0.07887361  1
  O  O111  1  0.35416350  0.87182139  0.58011889  1
  O  O112  1  0.51180904  0.66623588  0.58499682  1
  O  O113  1  0.14733830  0.51637523  0.57577828  1
  O  O114  1  0.33177392  0.84348605  0.25300071  1
  O  O115  1  0.52999039  0.68004370  0.25804357  1
  O  O116  1  0.17806347  0.48414818  0.25885744  1
  O  O117  1  0.31157358  0.46275033  0.75258199  1
  O  O118  1  0.15446635  0.66567191  0.74922102  1
  O  O119  1  0.52084506  0.81599762  0.75637894  1
