# generated using pymatgen
data_Na14Y4Sc4Si7S5O48
_symmetry_space_group_name_H-M   'P 1'
_cell_length_a   18.65229316
_cell_length_b   9.31179052
_cell_length_c   23.10799957
_cell_angle_alpha   89.95275994
_cell_angle_beta   90.06363052
_cell_angle_gamma   120.04391039
_symmetry_Int_Tables_number   1
_chemical_formula_structural   Na14Y4Sc4Si7S5O48
_chemical_formula_sum   'Na42 Y12 Sc12 Si21 S15 O144'
_cell_volume   3474.28779867
_cell_formula_units_Z   3
loop_
 _symmetry_equiv_pos_site_id
 _symmetry_equiv_pos_as_xyz
  1  'x, y, z'
loop_
 _atom_site_type_symbol
 _atom_site_label
 _atom_site_symmetry_multiplicity
 _atom_site_fract_x
 _atom_site_fract_y
 _atom_site_fract_z
 _atom_site_occupancy
  Na  Na0  1  0.81010434  0.98896228  0.24298180  1
  Na  Na1  1  0.18774471  0.36544019  0.25918123  1
  Na  Na2  1  0.69091895  0.36794014  0.25615579  1
  Na  Na3  1  0.99720500  0.64892254  0.24088092  1
  Na  Na4  1  0.50316658  0.65525714  0.24447433  1
  Na  Na5  1  0.30935047  0.63258629  0.75319120  1
  Na  Na6  1  0.00142815  0.34862658  0.74842595  1
  Na  Na7  1  0.50029860  0.34764243  0.74731708  1
  Na  Na8  1  0.18579545  0.00771671  0.76070689  1
  Na  Na9  1  0.69006972  0.01200652  0.76287734  1
  Na  Na10  1  0.14172168  0.33208226  0.58380964  1
  Na  Na11  1  0.64115216  0.33339176  0.58467284  1
  Na  Na12  1  0.33840806  0.97854200  0.57867125  1
  Na  Na13  1  0.83959006  0.98040276  0.58166866  1
  Na  Na14  1  0.13773337  0.94700336  0.08623585  1
  Na  Na15  1  0.65187787  0.95678632  0.08531122  1
  Na  Na16  1  0.33913006  0.69794809  0.08163111  1
  Na  Na17  1  0.83827307  0.71472742  0.07841024  1
  Na  Na18  1  0.48911677  0.68875621  0.92468042  1
  Na  Na19  1  0.98273647  0.68033982  0.92528578  1
  Na  Na20  1  0.34166977  0.01470546  0.91241387  1
  Na  Na21  1  0.84053974  0.01675301  0.91990067  1
  Na  Na22  1  0.16902357  0.29422028  0.90807668  1
  Na  Na23  1  0.67755932  0.30852294  0.90991461  1
  Na  Na24  1  0.48672162  0.28711007  0.41982007  1
  Na  Na25  1  0.98586138  0.28396065  0.42084197  1
  Na  Na26  1  0.17206470  0.04163651  0.40481291  1
  Na  Na27  1  0.67074410  0.04458259  0.40516569  1
  Na  Na28  1  0.34145077  0.66764110  0.40839773  1
  Na  Na29  1  0.84132409  0.66879453  0.40887831  1
  Na  Na30  1  0.99775417  0.01557855  0.49400135  1
  Na  Na31  1  0.49827849  0.01613098  0.49333734  1
  Na  Na32  1  0.98849398  0.98158059  0.00132922  1
  Na  Na33  1  0.50099382  0.98329164  0.99610664  1
  Na  Na34  1  0.32203884  0.32035840  0.83498404  1
  Na  Na35  1  0.82116723  0.33055176  0.83673559  1
  Na  Na36  1  0.32159697  0.31466576  0.33054328  1
  Na  Na37  1  0.82253975  0.32639937  0.32825087  1
  Na  Na38  1  0.16454967  0.68095042  0.17171865  1
  Na  Na39  1  0.66606424  0.68247352  0.16396056  1
  Na  Na40  1  0.15712990  0.64757277  0.67182761  1
  Na  Na41  1  0.66793240  0.65202883  0.67397827  1
  Y  Y42  1  0.99838824  0.00901190  0.65151021  1
  Y  Y43  1  0.49637778  0.00551088  0.65030642  1
  Y  Y44  1  0.99256789  0.98903865  0.14803041  1
  Y  Y45  1  0.49975392  0.98796287  0.15076893  1
  Y  Y46  1  0.83631477  0.33738812  0.68846753  1
  Y  Y47  1  0.33593436  0.33386834  0.18787250  1
  Y  Y48  1  0.16194785  0.66831387  0.01481480  1
  Y  Y49  1  0.67017277  0.68328055  0.01687032  1
  Y  Y50  1  0.16507393  0.65804541  0.51418830  1
  Y  Y51  1  0.66284539  0.65611104  0.51451790  1
  Y  Y52  1  0.17888212  0.68537964  0.31582448  1
  Y  Y53  1  0.67946436  0.67267211  0.81742692  1
  Sc  Sc54  1  0.99963440  0.99576006  0.34811981  1
  Sc  Sc55  1  0.50037017  0.99811159  0.34762075  1
  Sc  Sc56  1  0.99964761  0.00142013  0.84894387  1
  Sc  Sc57  1  0.50070506  0.00555073  0.84955708  1
  Sc  Sc58  1  0.33626702  0.32651223  0.68764716  1
  Sc  Sc59  1  0.83558183  0.33278018  0.18265025  1
  Sc  Sc60  1  0.33466802  0.34607456  0.97964684  1
  Sc  Sc61  1  0.83637959  0.33425878  0.98490303  1
  Sc  Sc62  1  0.33607144  0.32715923  0.48077276  1
  Sc  Sc63  1  0.83478027  0.32317400  0.47925663  1
  Sc  Sc64  1  0.67854304  0.67805746  0.31728260  1
  Sc  Sc65  1  0.17741180  0.67767146  0.81852429  1
  Si  Si66  1  0.14569867  0.99811468  0.25009125  1
  Si  Si67  1  0.65098877  0.99819292  0.25251937  1
  Si  Si68  1  0.35126458  0.70081225  0.25043594  1
  Si  Si69  1  0.84978098  0.69685020  0.25288558  1
  Si  Si70  1  0.15145942  0.30426870  0.75048576  1
  Si  Si71  1  0.64672873  0.29672595  0.75025657  1
  Si  Si72  1  0.34895992  0.99804984  0.75130844  1
  Si  Si73  1  0.85079342  0.00006768  0.74986328  1
  Si  Si74  1  0.48029014  0.33815510  0.58443526  1
  Si  Si75  1  0.98314453  0.33729135  0.58226887  1
  Si  Si76  1  0.48151823  0.62830620  0.08211713  1
  Si  Si77  1  0.98104955  0.62197560  0.08455095  1
  Si  Si78  1  0.83523813  0.04556404  0.08289255  1
  Si  Si79  1  0.31816456  0.66858423  0.91716496  1
  Si  Si80  1  0.82241022  0.66545204  0.91974324  1
  Si  Si81  1  0.16658380  0.97008671  0.91505869  1
  Si  Si82  1  0.66507520  0.97552995  0.91490814  1
  Si  Si83  1  0.32158244  0.97369590  0.42168342  1
  Si  Si84  1  0.81811745  0.96717009  0.41786227  1
  Si  Si85  1  0.16616231  0.35641482  0.41689909  1
  Si  Si86  1  0.66633027  0.36210160  0.41617150  1
  S  S87  1  0.99809741  0.29457718  0.25243692  1
  S  S88  1  0.50283843  0.29812425  0.25380254  1
  S  S89  1  0.00339735  0.70835436  0.75281924  1
  S  S90  1  0.49738009  0.70167947  0.75058896  1
  S  S91  1  0.18964735  0.04480159  0.58383165  1
  S  S92  1  0.68653065  0.04039701  0.58139607  1
  S  S93  1  0.33382870  0.62082344  0.58321964  1
  S  S94  1  0.83417747  0.62747442  0.57956375  1
  S  S95  1  0.33387784  0.04098416  0.07960669  1
  S  S96  1  0.18834533  0.33483088  0.08148915  1
  S  S97  1  0.68844792  0.33331010  0.08359119  1
  S  S98  1  0.01870323  0.36957991  0.91253916  1
  S  S99  1  0.51528118  0.36522261  0.91605136  1
  S  S100  1  0.01500315  0.66630895  0.41633187  1
  S  S101  1  0.51715518  0.66717671  0.41454621  1
  O  O102  1  0.09878229  0.02051470  0.30725039  1
  O  O103  1  0.60363920  0.02678779  0.30782067  1
  O  O104  1  0.40831545  0.80153163  0.30715918  1
  O  O105  1  0.90898209  0.79010843  0.30920228  1
  O  O106  1  0.49297877  0.19731337  0.30602474  1
  O  O107  1  0.98736413  0.19252455  0.30483165  1
  O  O108  1  0.10653026  0.17915952  0.80549990  1
  O  O109  1  0.59761626  0.17598918  0.80568164  1
  O  O110  1  0.48527231  0.78087428  0.80280992  1
  O  O111  1  0.99432729  0.79044606  0.80499853  1
  O  O112  1  0.40981793  0.02899071  0.80645296  1
  O  O113  1  0.91100882  0.01735831  0.80477941  1
  O  O114  1  0.38544906  0.95821368  0.69286209  1
  O  O115  1  0.89013990  0.97758927  0.68959544  1
  O  O116  1  0.09752617  0.22415467  0.69107360  1
  O  O117  1  0.59571880  0.21129219  0.68977117  1
  O  O118  1  0.01505254  0.80841960  0.70055423  1
  O  O119  1  0.51018295  0.80444643  0.69888176  1
  O  O120  1  0.39181859  0.80517246  0.19114959  1
  O  O121  1  0.88712224  0.81388801  0.19568772  1
  O  O122  1  0.01244962  0.21870961  0.20094273  1
  O  O123  1  0.51421353  0.21983495  0.20146892  1
  O  O124  1  0.09589454  0.98569060  0.19034553  1
  O  O125  1  0.59564451  0.96924818  0.19374544  1
  O  O126  1  0.43019981  0.34335115  0.64240051  1
  O  O127  1  0.93866767  0.34819382  0.64129359  1
  O  O128  1  0.23938058  0.12976007  0.63641215  1
  O  O129  1  0.73549305  0.12157414  0.63434368  1
  O  O130  1  0.32568149  0.52226786  0.63586935  1
  O  O131  1  0.82307437  0.52570983  0.63186913  1
  O  O132  1  0.43657475  0.52966447  0.14134731  1
  O  O133  1  0.93258007  0.51949908  0.14321869  1
  O  O134  1  0.32313713  0.12020162  0.13159970  1
  O  O135  1  0.82448231  0.13619118  0.14102889  1
  O  O136  1  0.23757397  0.35325638  0.13421467  1
  O  O137  1  0.73745279  0.35022881  0.13653560  1
  O  O138  1  0.23018750  0.31375719  0.02952345  1
  O  O139  1  0.72859041  0.31244163  0.03115644  1
  O  O140  1  0.42178105  0.52784748  0.02578751  1
  O  O141  1  0.92695647  0.53042241  0.02634934  1
  O  O142  1  0.33852300  0.13532641  0.02683496  1
  O  O143  1  0.83711411  0.14578681  0.02408725  1
  O  O144  1  0.23023862  0.14680642  0.53135928  1
  O  O145  1  0.72830497  0.14578647  0.52975612  1
  O  O146  1  0.33836106  0.53690195  0.53027339  1
  O  O147  1  0.83854295  0.54200281  0.52706764  1
  O  O148  1  0.42437919  0.32364374  0.52740802  1
  O  O149  1  0.92442698  0.32038125  0.52571315  1
  O  O150  1  0.27692871  0.69735922  0.97509904  1
  O  O151  1  0.78249626  0.70113313  0.97737273  1
  O  O152  1  0.07092775  0.44473292  0.96448816  1
  O  O153  1  0.56979571  0.44619021  0.96618872  1
  O  O154  1  0.14760540  0.85484483  0.97298588  1
  O  O155  1  0.64384025  0.85153701  0.97069230  1
  O  O156  1  0.28308266  0.86409272  0.48102778  1
  O  O157  1  0.77741540  0.85759838  0.47655602  1
  O  O158  1  0.14733221  0.43847798  0.47390454  1
  O  O159  1  0.64619966  0.43637523  0.47474957  1
  O  O160  1  0.06918975  0.69447477  0.46703853  1
  O  O161  1  0.56945915  0.69557314  0.46629128  1
  O  O162  1  0.05057476  0.63328361  0.36419277  1
  O  O163  1  0.55469911  0.63711272  0.36316525  1
  O  O164  1  0.25393277  0.88911467  0.36985393  1
  O  O165  1  0.75552273  0.87704638  0.36292925  1
  O  O166  1  0.18256437  0.47570527  0.36075639  1
  O  O167  1  0.68023665  0.48716100  0.36184542  1
  O  O168  1  0.05858533  0.47397945  0.86118133  1
  O  O169  1  0.54956942  0.46580668  0.86299663  1
  O  O170  1  0.18132674  0.87523699  0.85999648  1
  O  O171  1  0.67873504  0.88781953  0.85788198  1
  O  O172  1  0.25693239  0.63473565  0.86107161  1
  O  O173  1  0.75619307  0.61635212  0.86669496  1
  O  O174  1  0.00654170  0.81545066  0.41123841  1
  O  O175  1  0.50816793  0.81669965  0.40914027  1
  O  O176  1  0.41183059  0.98654266  0.41110667  1
  O  O177  1  0.91005467  0.98686720  0.40979175  1
  O  O178  1  0.08418027  0.16983956  0.41115080  1
  O  O179  1  0.58525318  0.17479480  0.40927808  1
  O  O180  1  0.00973475  0.20144310  0.90731451  1
  O  O181  1  0.50535345  0.19679305  0.91092565  1
  O  O182  1  0.08625009  0.99589223  0.90755708  1
  O  O183  1  0.58252497  0.99775035  0.90947695  1
  O  O184  1  0.40987321  0.83336048  0.90861577  1
  O  O185  1  0.91274037  0.83649792  0.90915737  1
  O  O186  1  0.48531697  0.16331742  0.58267226  1
  O  O187  1  0.98924361  0.16339394  0.57996902  1
  O  O188  1  0.10635504  0.02616729  0.58726339  1
  O  O189  1  0.60317114  0.02326803  0.58436219  1
  O  O190  1  0.40781779  0.78943399  0.58534282  1
  O  O191  1  0.90861344  0.79364055  0.58322179  1
  O  O192  1  0.48720772  0.81404006  0.07991708  1
  O  O193  1  0.98974912  0.80886238  0.08357242  1
  O  O194  1  0.40878350  0.02430346  0.08322526  1
  O  O195  1  0.91566353  0.01982383  0.08223504  1
  O  O196  1  0.10557554  0.18452775  0.08453739  1
  O  O197  1  0.60506673  0.18197153  0.08728487  1
  O  O198  1  0.34121122  0.16781922  0.74537446  1
  O  O199  1  0.84859639  0.17588148  0.75066317  1
  O  O200  1  0.24574031  0.32927521  0.74368036  1
  O  O201  1  0.73706506  0.30779366  0.74859686  1
  O  O202  1  0.41933661  0.53617278  0.74476921  1
  O  O203  1  0.92925729  0.54092810  0.74901432  1
  O  O204  1  0.34927102  0.52097430  0.25158794  1
  O  O205  1  0.84213927  0.51320077  0.24739953  1
  O  O206  1  0.42875916  0.31664373  0.24963879  1
  O  O207  1  0.92150621  0.30564374  0.24711417  1
  O  O208  1  0.23712424  0.16726855  0.24990635  1
  O  O209  1  0.74364258  0.16393405  0.24774108  1
  O  O210  1  0.32719906  0.50011173  0.92088974  1
  O  O211  1  0.83540708  0.50370507  0.92445635  1
  O  O212  1  0.43074519  0.34369419  0.92422772  1
  O  O213  1  0.93537866  0.35191549  0.91912238  1
  O  O214  1  0.25279797  0.15211495  0.92168431  1
  O  O215  1  0.74948659  0.15821703  0.92225084  1
  O  O216  1  0.33472384  0.16293492  0.42530470  1
  O  O217  1  0.82772030  0.15424677  0.42197093  1
  O  O218  1  0.25141002  0.34524814  0.42595231  1
  O  O219  1  0.75221852  0.35229711  0.42314545  1
  O  O220  1  0.43262244  0.51920193  0.42259529  1
  O  O221  1  0.93074658  0.51869062  0.42474586  1
  O  O222  1  0.18350903  0.48751002  0.07674292  1
  O  O223  1  0.68171263  0.48452364  0.07928006  1
  O  O224  1  0.07673669  0.65335194  0.08475166  1
  O  O225  1  0.57494144  0.65677618  0.08046508  1
  O  O226  1  0.25898086  0.87028197  0.07785101  1
  O  O227  1  0.75097914  0.85809146  0.08382822  1
  O  O228  1  0.18532399  0.88155533  0.58034188  1
  O  O229  1  0.68160665  0.87779779  0.57700836  1
  O  O230  1  0.25787439  0.63840812  0.58171219  1
  O  O231  1  0.75886161  0.64718627  0.57806167  1
  O  O232  1  0.07857042  0.49571605  0.58157179  1
  O  O233  1  0.57551528  0.49522335  0.58444474  1
  O  O234  1  0.14377567  0.82002624  0.25395290  1
  O  O235  1  0.65520620  0.82578083  0.25958276  1
  O  O236  1  0.25452812  0.65881664  0.25087404  1
  O  O237  1  0.75605187  0.67313120  0.25885932  1
  O  O238  1  0.07046549  0.46374301  0.25856554  1
  O  O239  1  0.57731681  0.46668803  0.25921715  1
  O  O240  1  0.15631318  0.48572980  0.75774064  1
  O  O241  1  0.64434518  0.46975295  0.75348010  1
  O  O242  1  0.07787911  0.68825826  0.75804423  1
  O  O243  1  0.56846112  0.67528457  0.75655807  1
  O  O244  1  0.25516944  0.83678414  0.75743072  1
  O  O245  1  0.75421562  0.84859077  0.75060814  1
