# generated using pymatgen
data_BaSi7N10
_symmetry_space_group_name_H-M   'P 1'
_cell_length_a   6.72166764
_cell_length_b   6.87598128
_cell_length_c   9.62714742
_cell_angle_alpha   73.75917098
_cell_angle_beta   90.00000000
_cell_angle_gamma   90.00000000
_symmetry_Int_Tables_number   1
_chemical_formula_structural   BaSi7N10
_chemical_formula_sum   'Ba2 Si14 N20'
_cell_volume   427.19226850
_cell_formula_units_Z   2
loop_
 _symmetry_equiv_pos_site_id
 _symmetry_equiv_pos_as_xyz
  1  'x, y, z'
loop_
 _atom_site_type_symbol
 _atom_site_label
 _atom_site_symmetry_multiplicity
 _atom_site_fract_x
 _atom_site_fract_y
 _atom_site_fract_z
 _atom_site_occupancy
  Ba  Ba0  1  0.59655655  0.28861289  0.78833633  1
  Ba  Ba1  1  0.40344345  0.28861289  0.28833633  1
  Si  Si2  1  0.86549034  0.99538842  0.46815665  1
  Si  Si3  1  0.13450966  0.99538842  0.96815665  1
  Si  Si4  1  0.87124526  0.81256114  0.77343509  1
  Si  Si5  1  0.12875474  0.81256114  0.27343509  1
  Si  Si6  1  0.11856023  0.62516776  0.57711635  1
  Si  Si7  1  0.88143977  0.62516776  0.07711635  1
  Si  Si8  1  0.10604222  0.43780443  0.88809070  1
  Si  Si9  1  0.89395778  0.43780443  0.38809070  1
  Si  Si10  1  0.12404125  0.17820487  0.65325071  1
  Si  Si11  1  0.87595875  0.17820487  0.15325071  1
  Si  Si12  1  0.47302196  0.86837564  0.63258754  1
  Si  Si13  1  0.52697804  0.86837564  0.13258754  1
  Si  Si14  1  0.47228312  0.68597733  0.94463084  1
  Si  Si15  1  0.52771688  0.68597733  0.44463084  1
  N  N16  1  0.91573310  0.03253954  0.63699655  1
  N  N17  1  0.08426690  0.03253954  0.13699655  1
  N  N18  1  0.88874151  0.21686611  0.32911186  1
  N  N19  1  0.11125849  0.21686611  0.82911186  1
  N  N20  1  0.92248957  0.40760469  0.02378434  1
  N  N21  1  0.07751043  0.40760469  0.52378434  1
  N  N22  1  0.99960230  0.61414531  0.73695158  1
  N  N23  1  0.00039770  0.61414531  0.23695158  1
  N  N24  1  0.03701978  0.82697635  0.43698174  1
  N  N25  1  0.96298022  0.82697635  0.93698174  1
  N  N26  1  0.61706977  0.77495750  0.78865633  1
  N  N27  1  0.38293023  0.77495750  0.28865633  1
  N  N28  1  0.34038233  0.07258871  0.63025756  1
  N  N29  1  0.65961767  0.07258871  0.13025756  1
  N  N30  1  0.33159752  0.48839147  0.94332445  1
  N  N31  1  0.66840248  0.48839147  0.44332445  1
  N  N32  1  0.36734247  0.89719894  0.98492043  1
  N  N33  1  0.63265753  0.89719894  0.48492043  1
  N  N34  1  0.63097433  0.65108092  0.09516895  1
  N  N35  1  0.36902567  0.65108092  0.59516895  1
