# generated using pymatgen
data_RbScBP2HO9
_symmetry_space_group_name_H-M   'P 1'
_cell_length_a   5.33804591
_cell_length_b   8.36674050
_cell_length_c   8.44125126
_cell_angle_alpha   87.81072458
_cell_angle_beta   86.74283655
_cell_angle_gamma   80.05170504
_symmetry_Int_Tables_number   1
_chemical_formula_structural   RbScBP2HO9
_chemical_formula_sum   'Rb2 Sc2 B2 P4 H2 O18'
_cell_volume   370.58059772
_cell_formula_units_Z   2
loop_
 _symmetry_equiv_pos_site_id
 _symmetry_equiv_pos_as_xyz
  1  'x, y, z'
loop_
 _atom_site_type_symbol
 _atom_site_label
 _atom_site_symmetry_multiplicity
 _atom_site_fract_x
 _atom_site_fract_y
 _atom_site_fract_z
 _atom_site_occupancy
  Rb  Rb0  1  0.72312589  0.12199802  0.32338820  1
  Rb  Rb1  1  0.27687411  0.87800198  0.67661180  1
  Sc  Sc2  1  0.28250629  0.79845536  0.19325486  1
  Sc  Sc3  1  0.71749371  0.20154464  0.80674514  1
  B  B4  1  0.11289936  0.43618871  0.27503724  1
  B  B5  1  0.88710064  0.56381129  0.72496276  1
  P  P6  1  0.21205153  0.19495744  0.05869248  1
  P  P7  1  0.78794847  0.80504256  0.94130752  1
  P  P8  1  0.19019032  0.30262890  0.58096644  1
  P  P9  1  0.80980968  0.69737110  0.41903356  1
  H  H10  1  0.40470864  0.47597707  0.12589452  1
  H  H11  1  0.59529136  0.52402293  0.87410548  1
  O  O12  1  0.45620471  0.25784720  0.00124753  1
  O  O13  1  0.56599590  0.79162834  0.35668420  1
  O  O14  1  0.28528932  0.53950391  0.19998418  1
  O  O15  1  0.71471068  0.46049609  0.80001582  1
  O  O16  1  0.43400410  0.20837166  0.64331580  1
  O  O17  1  0.54379529  0.74215280  0.99875247  1
  O  O18  1  0.96887750  0.20972303  0.60262787  1
  O  O19  1  0.03112250  0.79027697  0.39737213  1
  O  O20  1  0.95897950  0.66992860  0.84150839  1
  O  O21  1  0.04102050  0.33007140  0.15849161  1
  O  O22  1  0.94708967  0.83848922  0.07434262  1
  O  O23  1  0.05291033  0.16151078  0.92565738  1
  O  O24  1  0.87709338  0.53149670  0.33797544  1
  O  O25  1  0.12290662  0.46850330  0.66202456  1
  O  O26  1  0.72116297  0.95443078  0.83122254  1
  O  O27  1  0.27883703  0.04556922  0.16877746  1
  O  O28  1  0.74980863  0.66517763  0.59797682  1
  O  O29  1  0.25019137  0.33482237  0.40202318  1
