# generated using pymatgen
data_Na2Ca2Zr6Si3(S3O16)3
_symmetry_space_group_name_H-M   'P 1'
_cell_length_a   18.14197207
_cell_length_b   9.07096471
_cell_length_c   23.72253254
_cell_angle_alpha   90.04455510
_cell_angle_beta   89.92641087
_cell_angle_gamma   120.00139430
_symmetry_Int_Tables_number   1
_chemical_formula_structural   Na2Ca2Zr6Si3(S3O16)3
_chemical_formula_sum   'Na6 Ca6 Zr18 Si9 S27 O144'
_cell_volume   3380.82887104
_cell_formula_units_Z   3
loop_
 _symmetry_equiv_pos_site_id
 _symmetry_equiv_pos_as_xyz
  1  'x, y, z'
loop_
 _atom_site_type_symbol
 _atom_site_label
 _atom_site_symmetry_multiplicity
 _atom_site_fract_x
 _atom_site_fract_y
 _atom_site_fract_z
 _atom_site_occupancy
  Na  Na0  1  0.00247106  0.98843385  0.49271498  1
  Na  Na1  1  0.50033367  0.01432102  0.99736694  1
  Na  Na2  1  0.32995489  0.32329085  0.83954839  1
  Na  Na3  1  0.83558283  0.33423177  0.83669423  1
  Na  Na4  1  0.32429803  0.32177589  0.33218945  1
  Na  Na5  1  0.83207670  0.33899234  0.33635067  1
  Ca  Ca6  1  0.00532244  0.99554268  0.35370033  1
  Ca  Ca7  1  0.49980319  0.00787979  0.85574118  1
  Ca  Ca8  1  0.00147680  0.00753132  0.65084403  1
  Ca  Ca9  1  0.50100074  0.99346726  0.15129689  1
  Ca  Ca10  1  0.83575288  0.33408057  0.98063117  1
  Ca  Ca11  1  0.33559445  0.33523723  0.47912347  1
  Zr  Zr12  1  0.51014004  0.01138887  0.35454212  1
  Zr  Zr13  1  0.01126138  0.00989044  0.85563547  1
  Zr  Zr14  1  0.50513486  0.00198628  0.64382041  1
  Zr  Zr15  1  0.01132204  0.00787645  0.14627600  1
  Zr  Zr16  1  0.32377023  0.32712476  0.68608924  1
  Zr  Zr17  1  0.83378745  0.32480042  0.68171442  1
  Zr  Zr18  1  0.32832797  0.33727260  0.18531518  1
  Zr  Zr19  1  0.82555500  0.31907231  0.18660906  1
  Zr  Zr20  1  0.32679890  0.32143997  0.97687649  1
  Zr  Zr21  1  0.82614555  0.33181015  0.47502181  1
  Zr  Zr22  1  0.16365530  0.67022031  0.02456125  1
  Zr  Zr23  1  0.66416316  0.65900084  0.02254887  1
  Zr  Zr24  1  0.16503435  0.67003647  0.51866065  1
  Zr  Zr25  1  0.66371278  0.66055425  0.52188219  1
  Zr  Zr26  1  0.15696477  0.66821507  0.31042056  1
  Zr  Zr27  1  0.67055724  0.66520383  0.31003730  1
  Zr  Zr28  1  0.16990082  0.67385015  0.81133013  1
  Zr  Zr29  1  0.65881655  0.65564676  0.81427295  1
  Si  Si30  1  0.14944130  0.00580346  0.25092571  1
  Si  Si31  1  0.64692661  0.99847422  0.25006802  1
  Si  Si32  1  0.14674411  0.29550058  0.75014988  1
  Si  Si33  1  0.69047026  0.04161499  0.58164647  1
  Si  Si34  1  0.18955309  0.33782717  0.08149427  1
  Si  Si35  1  0.51939563  0.37486836  0.91973450  1
  Si  Si36  1  0.16724828  0.95060402  0.91661826  1
  Si  Si37  1  0.66542009  0.38206254  0.41626674  1
  Si  Si38  1  0.01868508  0.66493372  0.41876222  1
  S  S39  1  0.35251391  0.70463429  0.25357701  1
  S  S40  1  0.85428233  0.70450567  0.24730177  1
  S  S41  1  0.99733781  0.29037829  0.24839088  1
  S  S42  1  0.49811593  0.29347134  0.25191452  1
  S  S43  1  0.64950496  0.29499037  0.74876964  1
  S  S44  1  0.99672407  0.70059106  0.75219742  1
  S  S45  1  0.49889552  0.70458647  0.74837507  1
  S  S46  1  0.35508062  0.00419541  0.74752733  1
  S  S47  1  0.85130143  0.00109990  0.75287754  1
  S  S48  1  0.47808955  0.33161344  0.58566248  1
  S  S49  1  0.97799742  0.33616205  0.57991403  1
  S  S50  1  0.18765808  0.03794983  0.58157514  1
  S  S51  1  0.33351554  0.62702227  0.58481215  1
  S  S52  1  0.83281542  0.61966139  0.58147142  1
  S  S53  1  0.47745473  0.62012758  0.08007367  1
  S  S54  1  0.97718429  0.62403803  0.08488489  1
  S  S55  1  0.33396028  0.04692869  0.08122508  1
  S  S56  1  0.83376846  0.03857005  0.08445455  1
  S  S57  1  0.68760161  0.33498945  0.08187110  1
  S  S58  1  0.30793717  0.66418686  0.91873824  1
  S  S59  1  0.80984859  0.67070171  0.91391260  1
  S  S60  1  0.02416379  0.38140342  0.91447213  1
  S  S61  1  0.66802996  0.95046363  0.91681300  1
  S  S62  1  0.31030569  0.94880485  0.41404074  1
  S  S63  1  0.80832863  0.95192838  0.41876726  1
  S  S64  1  0.16749938  0.38461433  0.41709247  1
  S  S65  1  0.52444327  0.66744722  0.41449797  1
  O  O66  1  0.11700649  0.05369618  0.30621856  1
  O  O67  1  0.60127095  0.03336265  0.30549243  1
  O  O68  1  0.40940756  0.79241719  0.30222224  1
  O  O69  1  0.90271092  0.76860983  0.29913772  1
  O  O70  1  0.48355636  0.18029396  0.30159086  1
  O  O71  1  0.97714332  0.18954888  0.29958185  1
  O  O72  1  0.10109525  0.16940503  0.80553315  1
  O  O73  1  0.61557323  0.19163959  0.79930744  1
  O  O74  1  0.48185139  0.77170672  0.79931820  1
  O  O75  1  0.98197123  0.78441902  0.80172623  1
  O  O76  1  0.40501753  0.03837736  0.79891833  1
  O  O77  1  0.90731975  0.02940932  0.80191339  1
  O  O78  1  0.39818607  0.98026034  0.69812992  1
  O  O79  1  0.88325894  0.96947837  0.70063410  1
  O  O80  1  0.09573912  0.22456805  0.69357426  1
  O  O81  1  0.59411204  0.21033921  0.69891603  1
  O  O82  1  0.01124151  0.79703454  0.70041965  1
  O  O83  1  0.51097335  0.81594018  0.69865200  1
  O  O84  1  0.38413445  0.80059232  0.20121613  1
  O  O85  1  0.89492436  0.81321640  0.19772694  1
  O  O86  1  0.00775473  0.20357631  0.19846529  1
  O  O87  1  0.51304701  0.22536472  0.20033154  1
  O  O88  1  0.08831890  0.97738444  0.19530321  1
  O  O89  1  0.59605647  0.96675545  0.19335835  1
  O  O90  1  0.43567551  0.35814341  0.63513552  1
  O  O91  1  0.93836204  0.36016950  0.63345718  1
  O  O92  1  0.24083922  0.12639189  0.63366285  1
  O  O93  1  0.75001539  0.13663697  0.63832960  1
  O  O94  1  0.32057660  0.51405302  0.63492437  1
  O  O95  1  0.82294882  0.51460544  0.63334268  1
  O  O96  1  0.44138328  0.52050531  0.13253250  1
  O  O97  1  0.93489422  0.51258900  0.13409621  1
  O  O98  1  0.32390176  0.12957799  0.13242693  1
  O  O99  1  0.81827906  0.12499606  0.13383952  1
  O  O100  1  0.24993481  0.36669417  0.13717779  1
  O  O101  1  0.74060144  0.35480167  0.13298476  1
  O  O102  1  0.23659144  0.30741906  0.02803441  1
  O  O103  1  0.72749186  0.31262947  0.03151234  1
  O  O104  1  0.42503533  0.52695533  0.03082976  1
  O  O105  1  0.92863200  0.55446840  0.03307680  1
  O  O106  1  0.34403457  0.15201793  0.03038464  1
  O  O107  1  0.85092958  0.14316398  0.03401351  1
  O  O108  1  0.22846025  0.14348217  0.53237797  1
  O  O109  1  0.73625263  0.16716748  0.52932769  1
  O  O110  1  0.35289680  0.56044456  0.53497299  1
  O  O111  1  0.84365114  0.53448856  0.53145757  1
  O  O112  1  0.42823946  0.29596327  0.53466414  1
  O  O113  1  0.92406037  0.32202432  0.53178364  1
  O  O114  1  0.26332138  0.67918825  0.96875406  1
  O  O115  1  0.77038511  0.69103374  0.96626704  1
  O  O116  1  0.07283977  0.45651522  0.96694517  1
  O  O117  1  0.58335590  0.48875549  0.97232540  1
  O  O118  1  0.15635518  0.83542000  0.97173184  1
  O  O119  1  0.66505169  0.85265494  0.96814052  1
  O  O120  1  0.27054339  0.85000965  0.46733015  1
  O  O121  1  0.76221714  0.84774743  0.46928122  1
  O  O122  1  0.16662814  0.48135545  0.46948818  1
  O  O123  1  0.65578487  0.47567240  0.47252475  1
  O  O124  1  0.08188356  0.67874706  0.47276826  1
  O  O125  1  0.57388694  0.69020712  0.46747592  1
  O  O126  1  0.06689348  0.64370867  0.36254180  1
  O  O127  1  0.56958867  0.64991122  0.36534120  1
  O  O128  1  0.25491854  0.85895766  0.36508122  1
  O  O129  1  0.75891477  0.87319348  0.36679813  1
  O  O130  1  0.17479036  0.48481364  0.36621869  1
  O  O131  1  0.68008487  0.50101806  0.36174411  1
  O  O132  1  0.06916737  0.48831483  0.86488058  1
  O  O133  1  0.56901994  0.49168276  0.86199623  1
  O  O134  1  0.18057968  0.86138522  0.86087783  1
  O  O135  1  0.67476716  0.86181060  0.86492273  1
  O  O136  1  0.25896061  0.64487430  0.86631544  1
  O  O137  1  0.75380824  0.64983865  0.86409591  1
  O  O138  1  0.00899465  0.82968998  0.42185858  1
  O  O139  1  0.51538866  0.82086671  0.40759031  1
  O  O140  1  0.39380101  0.96001008  0.40668066  1
  O  O141  1  0.89315411  0.97258301  0.41661726  1
  O  O142  1  0.08794086  0.22090759  0.41857729  1
  O  O143  1  0.58019603  0.19607300  0.40703683  1
  O  O144  1  0.01438163  0.20901161  0.90683230  1
  O  O145  1  0.51321505  0.19290398  0.91950056  1
  O  O146  1  0.08123743  0.96517894  0.90683420  1
  O  O147  1  0.58956145  0.95893643  0.91435050  1
  O  O148  1  0.39349112  0.81421494  0.91543346  1
  O  O149  1  0.89292873  0.82539150  0.90490287  1
  O  O150  1  0.49050857  0.18275824  0.59850039  1
  O  O151  1  0.98503547  0.18307495  0.58458371  1
  O  O152  1  0.10120169  0.00829238  0.58848642  1
  O  O153  1  0.59717186  0.02267674  0.59789173  1
  O  O154  1  0.40791324  0.79877039  0.59898703  1
  O  O155  1  0.90711961  0.78958466  0.58685315  1
  O  O156  1  0.48624656  0.78962549  0.08238450  1
  O  O157  1  0.98734947  0.79490340  0.09489736  1
  O  O158  1  0.40835263  0.02447512  0.08483324  1
  O  O159  1  0.90560832  0.01334249  0.09829985  1
  O  O160  1  0.09553153  0.17361973  0.09405865  1
  O  O161  1  0.60077070  0.19265982  0.08793349  1
  O  O162  1  0.34330645  0.15496368  0.73676700  1
  O  O163  1  0.84361093  0.16113256  0.74627686  1
  O  O164  1  0.24473138  0.31588719  0.74392691  1
  O  O165  1  0.73701012  0.32238256  0.73775402  1
  O  O166  1  0.42628885  0.52987456  0.73619443  1
  O  O167  1  0.91952301  0.52540907  0.74668932  1
  O  O168  1  0.34769879  0.53282150  0.24753700  1
  O  O169  1  0.84187928  0.52901872  0.23642045  1
  O  O170  1  0.42272144  0.31692864  0.24655676  1
  O  O171  1  0.92506214  0.32380480  0.23613892  1
  O  O172  1  0.24698426  0.16539038  0.23662521  1
  O  O173  1  0.74457108  0.17326826  0.24395261  1
  O  O174  1  0.31505751  0.50721925  0.92310164  1
  O  O175  1  0.81790503  0.51698436  0.91642930  1
  O  O176  1  0.42911910  0.37249064  0.92379455  1
  O  O177  1  0.93864209  0.36341125  0.91686055  1
  O  O178  1  0.25011359  0.14272175  0.92141420  1
  O  O179  1  0.74505978  0.12046682  0.91758815  1
  O  O180  1  0.31952075  0.11926437  0.41830767  1
  O  O181  1  0.81414342  0.12211341  0.42407752  1
  O  O182  1  0.24386638  0.36642202  0.42037333  1
  O  O183  1  0.74877062  0.35676055  0.42165788  1
  O  O184  1  0.43964655  0.51502982  0.41829558  1
  O  O185  1  0.92807319  0.48511128  0.42543733  1
  O  O186  1  0.17843447  0.50197323  0.06939541  1
  O  O187  1  0.68592601  0.49961640  0.07686801  1
  O  O188  1  0.06356802  0.64271323  0.07858676  1
  O  O189  1  0.56521749  0.64087837  0.07292301  1
  O  O190  1  0.25506008  0.87776973  0.07443711  1
  O  O191  1  0.75552646  0.86983215  0.07639971  1
  O  O192  1  0.18663329  0.87221319  0.57707833  1
  O  O193  1  0.67673012  0.85354060  0.57156743  1
  O  O194  1  0.25762005  0.64459286  0.57835279  1
  O  O195  1  0.75373417  0.62972971  0.57550777  1
  O  O196  1  0.06385732  0.49099802  0.57482112  1
  O  O197  1  0.56404458  0.48455708  0.57891973  1
  O  O198  1  0.15908916  0.83495059  0.25772523  1
  O  O199  1  0.66412691  0.84548264  0.26835085  1
  O  O200  1  0.26571440  0.67228055  0.26581101  1
  O  O201  1  0.76732165  0.68257938  0.25394461  1
  O  O202  1  0.07589404  0.45933700  0.25439655  1
  O  O203  1  0.57374503  0.46480825  0.26319097  1
  O  O204  1  0.16448719  0.48357413  0.76788093  1
  O  O205  1  0.65789195  0.46633326  0.75601234  1
  O  O206  1  0.07121272  0.67745493  0.76331763  1
  O  O207  1  0.57746295  0.69130075  0.75476922  1
  O  O208  1  0.26925402  0.85160709  0.75367979  1
  O  O209  1  0.76430958  0.85624983  0.76472261  1
