# generated using pymatgen
data_CaHf3P2(SO6)4
_symmetry_space_group_name_H-M   'P 1'
_cell_length_a   8.96371246
_cell_length_b   8.98672743
_cell_length_c   23.15137074
_cell_angle_alpha   90.07095547
_cell_angle_beta   90.02036458
_cell_angle_gamma   119.95651530
_symmetry_Int_Tables_number   1
_chemical_formula_structural   CaHf3P2(SO6)4
_chemical_formula_sum   'Ca3 Hf9 P6 S12 O72'
_cell_volume   1615.79534733
_cell_formula_units_Z   3
loop_
 _symmetry_equiv_pos_site_id
 _symmetry_equiv_pos_as_xyz
  1  'x, y, z'
loop_
 _atom_site_type_symbol
 _atom_site_label
 _atom_site_symmetry_multiplicity
 _atom_site_fract_x
 _atom_site_fract_y
 _atom_site_fract_z
 _atom_site_occupancy
  Ca  Ca0  1  0.99653506  0.00106402  0.35994046  1
  Ca  Ca1  1  0.67320218  0.33544419  0.68973579  1
  Ca  Ca2  1  0.66395091  0.33420399  0.18504689  1
  Hf  Hf3  1  0.00061960  0.00066401  0.86167170  1
  Hf  Hf4  1  0.99848910  0.00533500  0.64371539  1
  Hf  Hf5  1  0.00677312  0.00698600  0.14457192  1
  Hf  Hf6  1  0.65827254  0.33180893  0.97715794  1
  Hf  Hf7  1  0.67152572  0.32516183  0.47772986  1
  Hf  Hf8  1  0.33313653  0.66180971  0.01870699  1
  Hf  Hf9  1  0.33440900  0.66645387  0.52150224  1
  Hf  Hf10  1  0.33946835  0.67282954  0.30945179  1
  Hf  Hf11  1  0.33068335  0.66484508  0.81522629  1
  P  P12  1  0.95847540  0.33384538  0.58303818  1
  P  P13  1  0.37405749  0.33371882  0.08240522  1
  P  P14  1  0.61808652  0.66469214  0.91624780  1
  P  P15  1  0.04312572  0.38177616  0.91662892  1
  P  P16  1  0.33585474  0.95230531  0.91677724  1
  P  P17  1  0.61143132  0.95148873  0.41772291  1
  S  S18  1  0.28490776  0.99286168  0.25087865  1
  S  S19  1  0.70990547  0.71503454  0.25024846  1
  S  S20  1  0.00767956  0.29402015  0.25068469  1
  S  S21  1  0.27753587  0.28529865  0.75186619  1
  S  S22  1  0.00872189  0.72489500  0.75183227  1
  S  S23  1  0.71347600  0.99034977  0.75218254  1
  S  S24  1  0.37243523  0.04118238  0.58257609  1
  S  S25  1  0.66853491  0.62589430  0.58251941  1
  S  S26  1  0.96116968  0.62888182  0.08184331  1
  S  S27  1  0.66712769  0.03871269  0.08166165  1
  S  S28  1  0.34508107  0.38909545  0.41820262  1
  S  S29  1  0.04658747  0.65816008  0.41775646  1
  O  O30  1  0.20705195  0.01637779  0.30202545  1
  O  O31  1  0.81031548  0.79297004  0.30169976  1
  O  O32  1  0.98338125  0.19203713  0.30169088  1
  O  O33  1  0.18766001  0.17697109  0.80235113  1
  O  O34  1  0.99151523  0.81578579  0.80259987  1
  O  O35  1  0.82370710  0.01039828  0.80244824  1
  O  O36  1  0.79724419  0.96667821  0.69881173  1
  O  O37  1  0.16918872  0.20150488  0.69866339  1
  O  O38  1  0.03248529  0.83103463  0.69880099  1
  O  O39  1  0.79368716  0.82689445  0.19810404  1
  O  O40  1  0.03550710  0.20767977  0.19821255  1
  O  O41  1  0.17208132  0.96658733  0.19842999  1
  O  O42  1  0.89151078  0.37420266  0.63616168  1
  O  O43  1  0.47570816  0.10725889  0.63404242  1
  O  O44  1  0.62960431  0.52301366  0.63400324  1
  O  O45  1  0.89749746  0.52581197  0.13349276  1
  O  O46  1  0.63171647  0.10478284  0.13367568  1
  O  O47  1  0.47979685  0.37288549  0.13590173  1
  O  O48  1  0.46421958  0.30226501  0.02959474  1
  O  O49  1  0.84660343  0.54473520  0.03129786  1
  O  O50  1  0.69972076  0.15364882  0.03125557  1
  O  O51  1  0.45425474  0.15525568  0.53174682  1
  O  O52  1  0.69809499  0.54358593  0.53156904  1
  O  O53  1  0.83662194  0.30126759  0.52979783  1
  O  O54  1  0.53591553  0.69888352  0.96874048  1
  O  O55  1  0.16150972  0.46556128  0.96867907  1
  O  O56  1  0.30297167  0.83736777  0.96913015  1
  O  O57  1  0.51357990  0.83961312  0.47043564  1
  O  O58  1  0.32276298  0.47665815  0.46938185  1
  O  O59  1  0.15290333  0.67537618  0.46921211  1
  O  O60  1  0.12549457  0.62846621  0.36564358  1
  O  O61  1  0.49618224  0.86286557  0.36351739  1
  O  O62  1  0.36962855  0.49551499  0.36595555  1
  O  O63  1  0.12910687  0.49672339  0.86270164  1
  O  O64  1  0.36451099  0.86648244  0.86271499  1
  O  O65  1  0.50216314  0.63409829  0.86255201  1
  O  O66  1  0.03042724  0.80899591  0.41398020  1
  O  O67  1  0.78633006  0.97211409  0.41464290  1
  O  O68  1  0.19618595  0.22020065  0.41410057  1
  O  O69  1  0.02488710  0.20366414  0.90493949  1
  O  O70  1  0.17745266  0.97405629  0.90541918  1
  O  O71  1  0.79698258  0.82349673  0.90506438  1
  O  O72  1  0.97701417  0.17010808  0.59233632  1
  O  O73  1  0.19747429  0.02163572  0.59069853  1
  O  O74  1  0.82457637  0.80016366  0.59114910  1
  O  O75  1  0.97690995  0.80190677  0.09091541  1
  O  O76  1  0.82309607  0.01944932  0.09042917  1
  O  O77  1  0.19166707  0.16925452  0.09189058  1
  O  O78  1  0.69465788  0.13999626  0.74685169  1
  O  O79  1  0.44585107  0.30314792  0.74585409  1
  O  O80  1  0.85716385  0.55697481  0.74741570  1
  O  O81  1  0.68104472  0.54369607  0.24202822  1
  O  O82  1  0.86543063  0.32273789  0.24057417  1
  O  O83  1  0.45725209  0.13308361  0.24182370  1
  O  O84  1  0.63911566  0.50721749  0.92696732  1
  O  O85  1  0.86586695  0.36109233  0.92857180  1
  O  O86  1  0.49524151  0.13050496  0.92688014  1
  O  O87  1  0.61871270  0.12855114  0.42745219  1
  O  O88  1  0.50472998  0.38020824  0.42813350  1
  O  O89  1  0.87415401  0.50047652  0.42646488  1
  O  O90  1  0.34349349  0.48394946  0.06703731  1
  O  O91  1  0.13630584  0.65849660  0.06908295  1
  O  O92  1  0.51943366  0.86563781  0.06909500  1
  O  O93  1  0.34350778  0.86636107  0.56996549  1
  O  O94  1  0.52240422  0.65639010  0.57039706  1
  O  O95  1  0.13938545  0.48195850  0.56705284  1
  O  O96  1  0.29118675  0.82701881  0.25685302  1
  O  O97  1  0.53459207  0.70388959  0.25695349  1
  O  O98  1  0.17100657  0.46548324  0.25793978  1
  O  O99  1  0.28728121  0.45459162  0.75868322  1
  O  O100  1  0.16777976  0.71274554  0.75891989  1
  O  O101  1  0.54423564  0.83068130  0.75886504  1
