# generated using pymatgen
data_YSc(SO4)3
_symmetry_space_group_name_H-M   'P 1'
_cell_length_a   9.06412108
_cell_length_b   9.06412077
_cell_length_c   23.45293780
_cell_angle_alpha   90.00000000
_cell_angle_beta   90.00000000
_cell_angle_gamma   120.00000113
_symmetry_Int_Tables_number   1
_chemical_formula_structural   YSc(SO4)3
_chemical_formula_sum   'Y6 Sc6 S18 O72'
_cell_volume   1668.70382016
_cell_formula_units_Z   6
loop_
 _symmetry_equiv_pos_site_id
 _symmetry_equiv_pos_as_xyz
  1  'x, y, z'
loop_
 _atom_site_type_symbol
 _atom_site_label
 _atom_site_symmetry_multiplicity
 _atom_site_fract_x
 _atom_site_fract_y
 _atom_site_fract_z
 _atom_site_occupancy
  Y  Y0  1  -0.00000000  0.00000000  0.85271767  1
  Y  Y1  1  0.66666700  0.33333300  0.98061533  1
  Y  Y2  1  0.33333300  0.66666700  0.02511330  1
  Y  Y3  1  0.33333300  0.66666700  0.52261340  1
  Y  Y4  1  0.33333300  0.66666700  0.31072060  1
  Y  Y5  1  0.33333300  0.66666700  0.80822070  1
  Sc  Sc6  1  -0.00000000  0.00000000  0.35322051  1
  Sc  Sc7  1  -0.00000000  0.00000000  0.64398069  1
  Sc  Sc8  1  -0.00000000  0.00000000  0.14650317  1
  Sc  Sc9  1  0.66666700  0.33333300  0.68682983  1
  Sc  Sc10  1  0.66666700  0.33333300  0.18935231  1
  Sc  Sc11  1  0.66666700  0.33333300  0.48011249  1
  S  S12  1  0.28682122  0.00733986  0.24861644  1
  S  S13  1  0.72051864  0.71317878  0.24861644  1
  S  S14  1  0.99266014  0.27948136  0.24861644  1
  S  S15  1  0.29308145  0.28525523  0.74581547  1
  S  S16  1  0.99217378  0.70691855  0.74581547  1
  S  S17  1  0.71474477  0.00782622  0.74581547  1
  S  S18  1  0.94614836  0.32599314  0.58471656  1
  S  S19  1  0.37984578  0.05385164  0.58471656  1
  S  S20  1  0.67400686  0.62015422  0.58471656  1
  S  S21  1  0.95192223  0.62641445  0.08751753  1
  S  S22  1  0.67449322  0.04807777  0.08751753  1
  S  S23  1  0.37358555  0.32550678  0.08751753  1
  S  S24  1  0.62400231  0.66666700  0.91666700  1
  S  S25  1  0.04266369  0.37599769  0.91666700  1
  S  S26  1  0.33333300  0.95733631  0.91666700  1
  S  S27  1  0.63292651  0.96626051  0.41666700  1
  S  S28  1  0.33333300  0.36707349  0.41666700  1
  S  S29  1  0.03373949  0.66666700  0.41666700  1
  O  O30  1  0.20630192  0.03165204  0.30037914  1
  O  O31  1  0.82535012  0.79369808  0.30037914  1
  O  O32  1  0.96834796  0.17464988  0.30037914  1
  O  O33  1  0.22032080  0.18434015  0.79854605  1
  O  O34  1  0.96401935  0.77967920  0.79854605  1
  O  O35  1  0.81565985  0.03598065  0.79854605  1
  O  O36  1  0.80255496  0.98209512  0.69667300  1
  O  O37  1  0.17954016  0.19744504  0.69667300  1
  O  O38  1  0.01790488  0.82045984  0.69667300  1
  O  O39  1  0.80261824  0.82164621  0.19810766  1
  O  O40  1  0.01902797  0.19738176  0.19810766  1
  O  O41  1  0.17835379  0.98097203  0.19810766  1
  O  O42  1  0.86404876  0.35236097  0.63522534  1
  O  O43  1  0.48831321  0.13595124  0.63522534  1
  O  O44  1  0.64763903  0.51168679  0.63522534  1
  O  O45  1  0.86411204  0.51287316  0.13666000  1
  O  O46  1  0.64876212  0.13588796  0.13666000  1
  O  O47  1  0.48712684  0.35123788  0.13666000  1
  O  O48  1  0.44634620  0.29735235  0.03478695  1
  O  O49  1  0.85100715  0.55365380  0.03478695  1
  O  O50  1  0.70264765  0.14899285  0.03478695  1
  O  O51  1  0.46036508  0.15868312  0.53295386  1
  O  O52  1  0.69831904  0.53963492  0.53295386  1
  O  O53  1  0.84131688  0.30168096  0.53295386  1
  O  O54  1  0.54253527  0.69024391  0.96798914  1
  O  O55  1  0.14770765  0.45746473  0.96798914  1
  O  O56  1  0.30975609  0.85229235  0.96798914  1
  O  O57  1  0.55448188  0.85528870  0.46723134  1
  O  O58  1  0.30080582  0.44551812  0.46723134  1
  O  O59  1  0.14471130  0.69919418  0.46723134  1
  O  O60  1  0.11218412  0.63413982  0.36610266  1
  O  O61  1  0.52195470  0.88781588  0.36610266  1
  O  O62  1  0.36586018  0.47804530  0.36610266  1
  O  O63  1  0.12413073  0.48104165  0.86534486  1
  O  O64  1  0.35690991  0.87586927  0.86534486  1
  O  O65  1  0.51895835  0.64309009  0.86534486  1
  O  O66  1  0.01446591  0.81724623  0.40538325  1
  O  O67  1  0.80278032  0.98553409  0.40538325  1
  O  O68  1  0.18275377  0.19721968  0.40538325  1
  O  O69  1  0.02467179  0.20634808  0.90959309  1
  O  O70  1  0.18167629  0.97532821  0.90959309  1
  O  O71  1  0.79365192  0.81832371  0.90959309  1
  O  O72  1  0.96495410  0.17434856  0.59389264  1
  O  O73  1  0.20939446  0.03504590  0.59389264  1
  O  O74  1  0.82565144  0.79060554  0.59389264  1
  O  O75  1  0.97220361  0.79662683  0.09717762  1
  O  O76  1  0.82442322  0.02779639  0.09717762  1
  O  O77  1  0.20337317  0.17557678  0.09717762  1
  O  O78  1  0.69446339  0.15775622  0.73615538  1
  O  O79  1  0.46329383  0.30553661  0.73615538  1
  O  O80  1  0.84224378  0.53670617  0.73615538  1
  O  O81  1  0.70171290  0.54272746  0.23944036  1
  O  O82  1  0.84101556  0.29828710  0.23944036  1
  O  O83  1  0.45727254  0.15898444  0.23944036  1
  O  O84  1  0.64199521  0.51500929  0.92373991  1
  O  O85  1  0.87301508  0.35800479  0.92373991  1
  O  O86  1  0.48499071  0.12698492  0.92373991  1
  O  O87  1  0.65220109  0.13611332  0.42794975  1
  O  O88  1  0.48391323  0.34779891  0.42794975  1
  O  O89  1  0.86388668  0.51608677  0.42794975  1
  O  O90  1  0.35648129  0.47804525  0.08046781  1
  O  O91  1  0.12156296  0.64351871  0.08046781  1
  O  O92  1  0.52195475  0.87843704  0.08046781  1
  O  O93  1  0.36070492  0.88317948  0.57704946  1
  O  O94  1  0.52247356  0.63929508  0.57704946  1
  O  O95  1  0.11682052  0.47752644  0.57704946  1
  O  O96  1  0.30596108  0.85580756  0.25628454  1
  O  O97  1  0.54984548  0.69403892  0.25628454  1
  O  O98  1  0.14419244  0.45015452  0.25628454  1
  O  O99  1  0.31018471  0.45489696  0.75286619  1
  O  O100  1  0.14471125  0.68981529  0.75286619  1
  O  O101  1  0.54510304  0.85528875  0.75286619  1
