# generated using pymatgen
data_Na3YHfSi2SO12
_symmetry_space_group_name_H-M   'P 1'
_cell_length_a   9.31405102
_cell_length_b   9.31405069
_cell_length_c   23.13206733
_cell_angle_alpha   89.27565002
_cell_angle_beta   90.72434998
_cell_angle_gamma   119.92876477
_symmetry_Int_Tables_number   1
_chemical_formula_structural   Na3YHfSi2SO12
_chemical_formula_sum   'Na18 Y6 Hf6 Si12 S6 O72'
_cell_volume   1738.95071548
_cell_formula_units_Z   6
loop_
 _symmetry_equiv_pos_site_id
 _symmetry_equiv_pos_as_xyz
  1  'x, y, z'
loop_
 _atom_site_type_symbol
 _atom_site_label
 _atom_site_symmetry_multiplicity
 _atom_site_fract_x
 _atom_site_fract_y
 _atom_site_fract_z
 _atom_site_occupancy
  Na  Na0  1  0.62963997  0.99797474  0.24283942  1
  Na  Na1  1  0.99489567  0.64435492  0.24549027  1
  Na  Na2  1  0.00202526  0.37036003  0.74283942  1
  Na  Na3  1  0.35564508  0.00510433  0.74549027  1
  Na  Na4  1  0.29630697  0.33130774  0.57617242  1
  Na  Na5  1  0.66156267  0.97768792  0.57882327  1
  Na  Na6  1  0.66869226  0.70369303  0.07617242  1
  Na  Na7  1  0.02231208  0.33843733  0.07882327  1
  Na  Na8  1  0.96297297  0.66464174  0.90950642  1
  Na  Na9  1  0.32822867  0.31102192  0.91215727  1
  Na  Na10  1  0.33535826  0.03702703  0.40950642  1
  Na  Na11  1  0.68897808  0.67177133  0.41215727  1
  Na  Na12  1  0.00403496  0.02861938  0.49651590  1
  Na  Na13  1  0.97138062  0.99596504  0.99651590  1
  Na  Na14  1  0.67070196  0.36195238  0.82984890  1
  Na  Na15  1  0.63804762  0.32929804  0.32984890  1
  Na  Na16  1  0.33736796  0.69528638  0.16318290  1
  Na  Na17  1  0.30471362  0.66263204  0.66318290  1
  Y  Y18  1  0.00639012  0.01149871  0.35086773  1
  Y  Y19  1  0.98850129  0.99360988  0.85086773  1
  Y  Y20  1  0.67305712  0.34483171  0.68420073  1
  Y  Y21  1  0.65516829  0.32694288  0.18420073  1
  Y  Y22  1  0.33972312  0.67816571  0.01753473  1
  Y  Y23  1  0.32183429  0.66027688  0.51753473  1
  Hf  Hf24  1  0.02171122  0.00645266  0.64779091  1
  Hf  Hf25  1  0.99354734  0.97828878  0.14779091  1
  Hf  Hf26  1  0.68837822  0.33978566  0.98112391  1
  Hf  Hf27  1  0.66021434  0.31162178  0.48112391  1
  Hf  Hf28  1  0.35504422  0.67311966  0.31445791  1
  Hf  Hf29  1  0.32688034  0.64495578  0.81445791  1
  Si  Si30  1  0.29443574  0.99254481  0.25353339  1
  Si  Si31  1  0.70457536  0.70348640  0.25209944  1
  Si  Si32  1  0.29651360  0.29542464  0.75209944  1
  Si  Si33  1  0.00745519  0.70556426  0.75353339  1
  Si  Si34  1  0.96110274  0.32587781  0.58686639  1
  Si  Si35  1  0.37124236  0.03681940  0.58543244  1
  Si  Si36  1  0.96318060  0.62875764  0.08543244  1
  Si  Si37  1  0.67412219  0.03889726  0.08686639  1
  Si  Si38  1  0.62776874  0.65921181  0.92020039  1
  Si  Si39  1  0.03790836  0.37015340  0.91876644  1
  Si  Si40  1  0.62984660  0.96209164  0.41876644  1
  Si  Si41  1  0.34078819  0.37223126  0.42020039  1
  S  S42  1  0.00833873  0.30172390  0.24738837  1
  S  S43  1  0.69827610  0.99166127  0.74738837  1
  S  S44  1  0.67500573  0.63505690  0.58072137  1
  S  S45  1  0.36494310  0.32499427  0.08072137  1
  S  S46  1  0.34167173  0.96839090  0.91405537  1
  S  S47  1  0.03160910  0.65832827  0.41405537  1
  O  O48  1  0.21820493  0.01492645  0.31267015  1
  O  O49  1  0.81200500  0.78973576  0.30941004  1
  O  O50  1  0.98234822  0.19811710  0.29872319  1
  O  O51  1  0.21026424  0.18799500  0.80941004  1
  O  O52  1  0.98507355  0.78179507  0.81267015  1
  O  O53  1  0.80188290  0.01765178  0.79872319  1
  O  O54  1  0.77711718  0.97088240  0.69509142  1
  O  O55  1  0.17286268  0.20251500  0.69449202  1
  O  O56  1  0.02532552  0.83173858  0.69821288  1
  O  O57  1  0.79748500  0.82713732  0.19449202  1
  O  O58  1  0.02911760  0.22288282  0.19509142  1
  O  O59  1  0.16826142  0.97467448  0.19821288  1
  O  O60  1  0.88487193  0.34825945  0.64600315  1
  O  O61  1  0.47867200  0.12306876  0.64274304  1
  O  O62  1  0.64901522  0.53145010  0.63205619  1
  O  O63  1  0.87693124  0.52132800  0.14274304  1
  O  O64  1  0.65174055  0.11512807  0.14600315  1
  O  O65  1  0.46854990  0.35098478  0.13205619  1
  O  O66  1  0.44378418  0.30421540  0.02842442  1
  O  O67  1  0.83952968  0.53584800  0.02782502  1
  O  O68  1  0.69199252  0.16507158  0.03154588  1
  O  O69  1  0.46415200  0.16047032  0.52782502  1
  O  O70  1  0.69578460  0.55621582  0.52842442  1
  O  O71  1  0.83492842  0.30800748  0.53154588  1
  O  O72  1  0.55153793  0.68159345  0.97933715  1
  O  O73  1  0.14533800  0.45640276  0.97607704  1
  O  O74  1  0.31568122  0.86478410  0.96539019  1
  O  O75  1  0.54359724  0.85466200  0.47607704  1
  O  O76  1  0.31840655  0.44846207  0.47933715  1
  O  O77  1  0.13521590  0.68431878  0.46539019  1
  O  O78  1  0.11045018  0.63754940  0.36175842  1
  O  O79  1  0.50619568  0.86918200  0.36115902  1
  O  O80  1  0.35865852  0.49840558  0.36487988  1
  O  O81  1  0.13081800  0.49380432  0.86115902  1
  O  O82  1  0.36245060  0.88954982  0.86175842  1
  O  O83  1  0.50159442  0.64134148  0.86487988  1
  O  O84  1  0.01253613  0.80744509  0.41023697  1
  O  O85  1  0.80896605  0.97498374  0.41331335  1
  O  O86  1  0.19154202  0.18090661  0.41513537  1
  O  O87  1  0.02501626  0.19103395  0.91331335  1
  O  O88  1  0.19255491  0.98746387  0.91023697  1
  O  O89  1  0.81909339  0.80845798  0.91513537  1
  O  O90  1  0.96039226  0.14451225  0.58937248  1
  O  O91  1  0.18908163  0.03126440  0.58898952  1
  O  O92  1  0.82293072  0.80365119  0.58782717  1
  O  O93  1  0.96873560  0.81091837  0.08898952  1
  O  O94  1  0.85548775  0.03960774  0.08937248  1
  O  O95  1  0.19634881  0.17706928  0.08782717  1
  O  O96  1  0.67920313  0.14077809  0.74356997  1
  O  O97  1  0.47563305  0.30831674  0.74664635  1
  O  O98  1  0.85820902  0.51423961  0.74846837  1
  O  O99  1  0.69168326  0.52436695  0.24664635  1
  O  O100  1  0.85922191  0.32079687  0.24356997  1
  O  O101  1  0.48576039  0.14179098  0.24846837  1
  O  O102  1  0.62705926  0.47784525  0.92270548  1
  O  O103  1  0.85574863  0.36459740  0.92232252  1
  O  O104  1  0.48959772  0.13698419  0.92116017  1
  O  O105  1  0.63540260  0.14425137  0.42232252  1
  O  O106  1  0.52215475  0.37294074  0.42270548  1
  O  O107  1  0.86301581  0.51040228  0.42116017  1
  O  O108  1  0.34586913  0.47411209  0.07690397  1
  O  O109  1  0.14229905  0.64165074  0.07998035  1
  O  O110  1  0.52487502  0.84757361  0.08180237  1
  O  O111  1  0.35834926  0.85770095  0.57998035  1
  O  O112  1  0.52588791  0.65413087  0.57690397  1
  O  O113  1  0.15242639  0.47512498  0.58180237  1
  O  O114  1  0.29372526  0.81117925  0.25603948  1
  O  O115  1  0.52241463  0.69793140  0.25565652  1
  O  O116  1  0.15626372  0.47031819  0.25449417  1
  O  O117  1  0.30206860  0.47758537  0.75565652  1
  O  O118  1  0.18882075  0.70627474  0.75603948  1
  O  O119  1  0.52968181  0.84373628  0.75449417  1
