# generated using pymatgen
data_Na3YZrSi(PO6)2
_symmetry_space_group_name_H-M   'P 1'
_cell_length_a   9.26590948
_cell_length_b   9.26590914
_cell_length_c   23.22148157
_cell_angle_alpha   90.02144470
_cell_angle_beta   89.97855532
_cell_angle_gamma   119.94936252
_symmetry_Int_Tables_number   1
_chemical_formula_structural   Na3YZrSi(PO6)2
_chemical_formula_sum   'Na18 Y6 Zr6 Si6 P12 O72'
_cell_volume   1727.49970578
_cell_formula_units_Z   6
loop_
 _symmetry_equiv_pos_site_id
 _symmetry_equiv_pos_as_xyz
  1  'x, y, z'
loop_
 _atom_site_type_symbol
 _atom_site_label
 _atom_site_symmetry_multiplicity
 _atom_site_fract_x
 _atom_site_fract_y
 _atom_site_fract_z
 _atom_site_occupancy
  Na  Na0  1  0.00314125  0.99292503  0.49838993  1
  Na  Na1  1  0.00707497  0.99685875  0.99838993  1
  Na  Na2  1  0.66610306  0.32259042  0.83198478  1
  Na  Na3  1  0.67740958  0.33389694  0.33198478  1
  Na  Na4  1  0.34387085  0.67265300  0.16513711  1
  Na  Na5  1  0.32734700  0.65612915  0.66513711  1
  Na  Na6  1  0.36161129  0.36127672  0.24797723  1
  Na  Na7  1  0.99485049  0.63013558  0.24755875  1
  Na  Na8  1  0.63872328  0.63838871  0.74797723  1
  Na  Na9  1  0.36986442  0.00514951  0.74755875  1
  Na  Na10  1  0.04013240  0.70164174  0.57988157  1
  Na  Na11  1  0.65474945  0.96697711  0.58492979  1
  Na  Na12  1  0.29835826  0.95986760  0.07988157  1
  Na  Na13  1  0.03302289  0.34525055  0.08492979  1
  Na  Na14  1  0.97709724  0.67598976  0.91882326  1
  Na  Na15  1  0.69628380  0.02810830  0.91214856  1
  Na  Na16  1  0.97189170  0.30371620  0.41214856  1
  Na  Na17  1  0.32401024  0.02290276  0.41882326  1
  Y  Y18  1  0.98773208  0.99143381  0.35052456  1
  Y  Y19  1  0.00856619  0.01226792  0.85052456  1
  Y  Y20  1  0.66961796  0.32755138  0.68419630  1
  Y  Y21  1  0.67244862  0.33038204  0.18419630  1
  Y  Y22  1  0.33718577  0.66527746  0.01697828  1
  Y  Y23  1  0.33472254  0.66281423  0.51697828  1
  Zr  Zr24  1  0.00553226  0.00868625  0.64894881  1
  Zr  Zr25  1  0.99131375  0.99446774  0.14894881  1
  Zr  Zr26  1  0.66211185  0.33770130  0.98228829  1
  Zr  Zr27  1  0.66229870  0.33788815  0.48228829  1
  Zr  Zr28  1  0.33067475  0.66612737  0.31566528  1
  Zr  Zr29  1  0.33387263  0.66932525  0.81566528  1
  Si  Si30  1  0.00446012  0.30093929  0.25155654  1
  Si  Si31  1  0.69906071  0.99553988  0.75155654  1
  Si  Si32  1  0.36528145  0.03597380  0.58352758  1
  Si  Si33  1  0.96402620  0.63471855  0.08352758  1
  Si  Si34  1  0.33701757  0.96698683  0.91823271  1
  Si  Si35  1  0.03301317  0.66298243  0.41823271  1
  P  P36  1  0.29096335  0.99602753  0.25062110  1
  P  P37  1  0.69860227  0.70379481  0.24917407  1
  P  P38  1  0.29620519  0.30139773  0.74917407  1
  P  P39  1  0.00397247  0.70903665  0.75062110  1
  P  P40  1  0.95881394  0.32855662  0.58162552  1
  P  P41  1  0.67329713  0.63297702  0.58608000  1
  P  P42  1  0.67144338  0.04118606  0.08162552  1
  P  P43  1  0.36702298  0.32670287  0.08608000  1
  P  P44  1  0.62800740  0.66182612  0.91457747  1
  P  P45  1  0.03344297  0.37338851  0.91860524  1
  P  P46  1  0.62661149  0.96655703  0.41860524  1
  P  P47  1  0.33817388  0.37199260  0.41457747  1
  O  O48  1  0.21093440  0.01897869  0.30493499  1
  O  O49  1  0.80911041  0.77730245  0.30202801  1
  O  O50  1  0.98710900  0.19948749  0.30966267  1
  O  O51  1  0.22269755  0.19088959  0.80202801  1
  O  O52  1  0.98102131  0.78906560  0.80493499  1
  O  O53  1  0.80051251  0.01289100  0.80966267  1
  O  O54  1  0.79667328  0.97234117  0.69442174  1
  O  O55  1  0.18436674  0.20865300  0.69581540  1
  O  O56  1  0.03193681  0.82468817  0.69708766  1
  O  O57  1  0.79134700  0.81563326  0.19581540  1
  O  O58  1  0.02765883  0.20332672  0.19442174  1
  O  O59  1  0.17531183  0.96806319  0.19708766  1
  O  O60  1  0.88015557  0.36027638  0.63405068  1
  O  O61  1  0.47678748  0.11766136  0.64037201  1
  O  O62  1  0.65242579  0.53726675  0.64146099  1
  O  O63  1  0.88233864  0.52321252  0.14037201  1
  O  O64  1  0.63972362  0.11984443  0.13405068  1
  O  O65  1  0.46273325  0.34757421  0.14146099  1
  O  O66  1  0.46165774  0.30430798  0.03350704  1
  O  O67  1  0.84632771  0.53656427  0.02617444  1
  O  O68  1  0.69636700  0.15290270  0.02740065  1
  O  O69  1  0.46343573  0.15367229  0.52617444  1
  O  O70  1  0.69569202  0.53834226  0.53350704  1
  O  O71  1  0.84709730  0.30363300  0.52740065  1
  O  O72  1  0.54712475  0.68983746  0.96703690  1
  O  O73  1  0.13013719  0.44567538  0.97431120  1
  O  O74  1  0.31173727  0.85698712  0.97528077  1
  O  O75  1  0.55432462  0.86986281  0.47431120  1
  O  O76  1  0.31016254  0.45287525  0.46703690  1
  O  O77  1  0.14301288  0.68826273  0.47528077  1
  O  O78  1  0.13176528  0.63742857  0.36117532  1
  O  O79  1  0.51165895  0.87053091  0.36651266  1
  O  O80  1  0.36073990  0.47999242  0.35980916  1
  O  O81  1  0.12946909  0.48834105  0.86651266  1
  O  O82  1  0.36257143  0.86823472  0.86117532  1
  O  O83  1  0.52000758  0.63926010  0.85980916  1
  O  O84  1  0.02401076  0.83256718  0.41287177  1
  O  O85  1  0.80695584  0.00240237  0.41293196  1
  O  O86  1  0.18429825  0.19563296  0.40997756  1
  O  O87  1  0.99759763  0.19304416  0.91293196  1
  O  O88  1  0.16743282  0.97598924  0.91287177  1
  O  O89  1  0.80436704  0.81570175  0.90997756  1
  O  O90  1  0.96253269  0.16213607  0.58811694  1
  O  O91  1  0.17573116  0.01203676  0.58835858  1
  O  O92  1  0.83825888  0.80714888  0.58822326  1
  O  O93  1  0.98796324  0.82426884  0.08835858  1
  O  O94  1  0.83786393  0.03746731  0.08811694  1
  O  O95  1  0.19285112  0.16174112  0.08822326  1
  O  O96  1  0.66060634  0.14828081  0.74820871  1
  O  O97  1  0.47386071  0.32858039  0.74299062  1
  O  O98  1  0.84629960  0.53915196  0.74415617  1
  O  O99  1  0.67141961  0.52613929  0.24299062  1
  O  O100  1  0.85171919  0.33939366  0.24820871  1
  O  O101  1  0.46084804  0.15370040  0.24415617  1
  O  O102  1  0.64741496  0.50426479  0.92063285  1
  O  O103  1  0.86055269  0.36761293  0.92107616  1
  O  O104  1  0.51352575  0.14764502  0.92231920  1
  O  O105  1  0.63238707  0.13944731  0.42107616  1
  O  O106  1  0.49573521  0.35258504  0.42063285  1
  O  O107  1  0.85235498  0.48647425  0.42231920  1
  O  O108  1  0.33532498  0.47311246  0.07900727  1
  O  O109  1  0.15025222  0.65494889  0.07981174  1
  O  O110  1  0.51976791  0.86642268  0.07633850  1
  O  O111  1  0.34505111  0.84974778  0.57981174  1
  O  O112  1  0.52688754  0.66467502  0.57900727  1
  O  O113  1  0.13357732  0.48023209  0.57633850  1
  O  O114  1  0.30346554  0.83411862  0.25536891  1
  O  O115  1  0.52562443  0.69034404  0.25479404  1
  O  O116  1  0.18270397  0.48664783  0.25434069  1
  O  O117  1  0.30965596  0.47437557  0.75479404  1
  O  O118  1  0.16588138  0.69653446  0.75536891  1
  O  O119  1  0.51335217  0.81729603  0.75434069  1
