# generated using pymatgen
data_MgMnP2O7
_symmetry_space_group_name_H-M   'P 1'
_cell_length_a   5.44773874
_cell_length_b   5.44772174
_cell_length_c   5.01491846
_cell_angle_alpha   84.38468934
_cell_angle_beta   95.61530763
_cell_angle_gamma   79.45562192
_symmetry_Int_Tables_number   1
_chemical_formula_structural   MgMnP2O7
_chemical_formula_sum   'Mg1 Mn1 P2 O7'
_cell_volume   144.59346184
_cell_formula_units_Z   1
loop_
 _symmetry_equiv_pos_site_id
 _symmetry_equiv_pos_as_xyz
  1  'x, y, z'
loop_
 _atom_site_type_symbol
 _atom_site_label
 _atom_site_symmetry_multiplicity
 _atom_site_fract_x
 _atom_site_fract_y
 _atom_site_fract_z
 _atom_site_occupancy
  Mg  Mg0  1  0.49862900  0.49863000  0.00000000  1
  Mn  Mn1  1  0.10487000  0.10487100  0.99999900  1
  P  P2  1  0.25403200  0.66273600  0.56361300  1
  P  P3  1  0.66273500  0.25403000  0.43638700  1
  O  O4  1  0.54690200  0.54690200  0.50000000  1
  O  O5  1  0.18919800  0.43647800  0.73360800  1
  O  O6  1  0.10588100  0.77661800  0.29913600  1
  O  O7  1  0.32487800  0.83446000  0.77863800  1
  O  O8  1  0.77661700  0.10587900  0.70086400  1
  O  O9  1  0.83446000  0.32487800  0.22136200  1
  O  O10  1  0.43647900  0.18919700  0.26639200  1
