# generated using pymatgen
data_Na5MgSiSn3P5O24
_symmetry_space_group_name_H-M   'P 1'
_cell_length_a   8.91843208
_cell_length_b   8.89337159
_cell_length_c   22.45403741
_cell_angle_alpha   90.06529156
_cell_angle_beta   89.89949867
_cell_angle_gamma   119.88709775
_symmetry_Int_Tables_number   1
_chemical_formula_structural   Na5MgSiSn3P5O24
_chemical_formula_sum   'Na15 Mg3 Si3 Sn9 P15 O72'
_cell_volume   1544.08888578
_cell_formula_units_Z   3
loop_
 _symmetry_equiv_pos_site_id
 _symmetry_equiv_pos_as_xyz
  1  'x, y, z'
loop_
 _atom_site_type_symbol
 _atom_site_label
 _atom_site_symmetry_multiplicity
 _atom_site_fract_x
 _atom_site_fract_y
 _atom_site_fract_z
 _atom_site_occupancy
  Na  Na0  1  0.64094717  0.01084063  0.24399317  1
  Na  Na1  1  0.37107150  0.36043461  0.24413784  1
  Na  Na2  1  0.98946511  0.62992033  0.24451050  1
  Na  Na3  1  0.63412291  0.62454524  0.74869943  1
  Na  Na4  1  0.99143588  0.36557748  0.74900762  1
  Na  Na5  1  0.37692174  0.01099263  0.74411998  1
  Na  Na6  1  0.66195387  0.97477855  0.58334010  1
  Na  Na7  1  0.33265790  0.30678018  0.92321805  1
  Na  Na8  1  0.32535449  0.03219417  0.41566234  1
  Na  Na9  1  0.00232574  0.00061355  0.49482852  1
  Na  Na10  1  0.98459471  0.99071307  0.00222261  1
  Na  Na11  1  0.67899999  0.33820231  0.83926538  1
  Na  Na12  1  0.67647665  0.34253712  0.33138304  1
  Na  Na13  1  0.33365338  0.66699786  0.15976523  1
  Na  Na14  1  0.32427983  0.66262729  0.66099249  1
  Mg  Mg15  1  0.99332070  0.99927557  0.35306005  1
  Mg  Mg16  1  0.66443627  0.33078243  0.68042809  1
  Mg  Mg17  1  0.66827559  0.33407077  0.17980563  1
  Si  Si18  1  0.37204999  0.03900542  0.58398108  1
  Si  Si19  1  0.62843708  0.66578943  0.91774604  1
  Si  Si20  1  0.03542991  0.37365181  0.91643298  1
  Sn  Sn21  1  0.99346962  0.99599268  0.85617577  1
  Sn  Sn22  1  0.00761152  0.00007718  0.64490959  1
  Sn  Sn23  1  0.99947316  0.00112578  0.14686815  1
  Sn  Sn24  1  0.67449357  0.33738906  0.98403674  1
  Sn  Sn25  1  0.66783400  0.33742222  0.48311241  1
  Sn  Sn26  1  0.33437154  0.66539630  0.02019619  1
  Sn  Sn27  1  0.32921514  0.66282964  0.51868380  1
  Sn  Sn28  1  0.33233909  0.66461471  0.31749567  1
  Sn  Sn29  1  0.33180827  0.66392995  0.82084974  1
  P  P30  1  0.29201574  0.00014417  0.25297952  1
  P  P31  1  0.70910288  0.70855170  0.25186134  1
  P  P32  1  0.99989117  0.29142479  0.25186178  1
  P  P33  1  0.29174971  0.29315085  0.75090024  1
  P  P34  1  0.00245494  0.70823378  0.75061421  1
  P  P35  1  0.70693764  0.99963479  0.74920035  1
  P  P36  1  0.96017446  0.33514833  0.58599896  1
  P  P37  1  0.66587655  0.62635613  0.58568145  1
  P  P38  1  0.96382945  0.63043213  0.08605453  1
  P  P39  1  0.66508330  0.03797091  0.08575937  1
  P  P40  1  0.37178619  0.33191111  0.08535893  1
  P  P41  1  0.33533768  0.96118248  0.91677941  1
  P  P42  1  0.63134063  0.96291683  0.41772177  1
  P  P43  1  0.33416896  0.37128248  0.41685374  1
  P  P44  1  0.03510306  0.66452739  0.41646428  1
  O  O45  1  0.21184687  0.02759550  0.30899723  1
  O  O46  1  0.82363513  0.79252395  0.30553373  1
  O  O47  1  0.97076141  0.17708933  0.30552712  1
  O  O48  1  0.21157813  0.17793533  0.80672876  1
  O  O49  1  0.96805249  0.79191669  0.80524958  1
  O  O50  1  0.82728645  0.03207580  0.80273919  1
  O  O51  1  0.78306833  0.95908529  0.69255982  1
  O  O52  1  0.16744282  0.21096562  0.69703343  1
  O  O53  1  0.04229958  0.82759924  0.69542483  1
  O  O54  1  0.78232932  0.82713355  0.19544022  1
  O  O55  1  0.04480683  0.21813985  0.19523662  1
  O  O56  1  0.17105271  0.95754547  0.19769066  1
  O  O57  1  0.88584521  0.36361650  0.64286618  1
  O  O58  1  0.48726819  0.11332395  0.64320643  1
  O  O59  1  0.64254303  0.52593549  0.64254346  1
  O  O60  1  0.88608788  0.52775066  0.14273054  1
  O  O61  1  0.64366928  0.11715065  0.14279875  1
  O  O62  1  0.47638091  0.35303868  0.14101850  1
  O  O63  1  0.45113591  0.30493130  0.02668018  1
  O  O64  1  0.85267112  0.55003463  0.02926525  1
  O  O65  1  0.69333457  0.14895408  0.02894287  1
  O  O66  1  0.45508982  0.15054837  0.52226454  1
  O  O67  1  0.70227481  0.55010454  0.52918493  1
  O  O68  1  0.84439320  0.29907157  0.52994727  1
  O  O69  1  0.53817677  0.70432747  0.97275304  1
  O  O70  1  0.16974739  0.46223787  0.97075594  1
  O  O71  1  0.30038254  0.84200853  0.96951027  1
  O  O72  1  0.54398181  0.85145445  0.47396029  1
  O  O73  1  0.30754689  0.46021797  0.47152320  1
  O  O74  1  0.15725501  0.69744590  0.47007993  1
  O  O75  1  0.11102031  0.62866016  0.35837200  1
  O  O76  1  0.50957055  0.88377734  0.36159492  1
  O  O77  1  0.36777837  0.48174401  0.35898789  1
  O  O78  1  0.10535158  0.48006035  0.85215448  1
  O  O79  1  0.36814019  0.89149377  0.85636735  1
  O  O80  1  0.51696537  0.62436700  0.85379958  1
  O  O81  1  0.02568434  0.83017820  0.41134742  1
  O  O82  1  0.80769286  0.97979613  0.41176154  1
  O  O83  1  0.17803285  0.18962719  0.41235269  1
  O  O84  1  0.03839665  0.19074368  0.91102472  1
  O  O85  1  0.17536589  0.98488937  0.91047181  1
  O  O86  1  0.81997718  0.83430923  0.91335194  1
  O  O87  1  0.96607495  0.16165472  0.58898284  1
  O  O88  1  0.17889960  0.01906062  0.58487876  1
  O  O89  1  0.82209242  0.81720219  0.58850452  1
  O  O90  1  0.98284673  0.81510926  0.08852898  1
  O  O91  1  0.83031814  0.01818407  0.08757729  1
  O  O92  1  0.18773944  0.16604215  0.08750780  1
  O  O93  1  0.68895120  0.16153987  0.74514824  1
  O  O94  1  0.47223642  0.31488619  0.74448054  1
  O  O95  1  0.84341426  0.52785999  0.74460653  1
  O  O96  1  0.68214488  0.52485508  0.24397602  1
  O  O97  1  0.84319061  0.31776508  0.24431611  1
  O  O98  1  0.47407486  0.15735538  0.24469649  1
  O  O99  1  0.62892370  0.48252153  0.92316297  1
  O  O100  1  0.84359329  0.34784988  0.92179623  1
  O  O101  1  0.49356942  0.14405709  0.92326307  1
  O  O102  1  0.63653832  0.14153289  0.42169998  1
  O  O103  1  0.50211948  0.35708727  0.42093204  1
  O  O104  1  0.85681473  0.49754127  0.42299349  1
  O  O105  1  0.35399341  0.49732042  0.08094362  1
  O  O106  1  0.14659934  0.64910292  0.07916447  1
  O  O107  1  0.49882105  0.85649161  0.07984381  1
  O  O108  1  0.36117852  0.84712557  0.57772473  1
  O  O109  1  0.50306360  0.64757891  0.57815716  1
  O  O110  1  0.14426611  0.49210948  0.57811411  1
  O  O111  1  0.30964146  0.83016066  0.25613709  1
  O  O112  1  0.52258432  0.69198606  0.25648313  1
  O  O113  1  0.16950889  0.47808295  0.25582792  1
  O  O114  1  0.30640346  0.47665317  0.75405018  1
  O  O115  1  0.17227881  0.69648094  0.75507394  1
  O  O116  1  0.52385241  0.83278930  0.75529774  1
