# generated using pymatgen
data_MgMn2(SiO3)4
_symmetry_space_group_name_H-M   'P 1'
_cell_length_a   5.44619836
_cell_length_b   6.46374317
_cell_length_c   6.46744051
_cell_angle_alpha   83.49733942
_cell_angle_beta   76.46761297
_cell_angle_gamma   76.43426077
_symmetry_Int_Tables_number   1
_chemical_formula_structural   MgMn2(SiO3)4
_chemical_formula_sum   'Mg1 Mn2 Si4 O12'
_cell_volume   214.76545561
_cell_formula_units_Z   1
loop_
 _symmetry_equiv_pos_site_id
 _symmetry_equiv_pos_as_xyz
  1  'x, y, z'
loop_
 _atom_site_type_symbol
 _atom_site_label
 _atom_site_symmetry_multiplicity
 _atom_site_fract_x
 _atom_site_fract_y
 _atom_site_fract_z
 _atom_site_occupancy
  Mg  Mg0  1  0.24277400  0.69867100  0.26863500  1
  Mn  Mn1  1  0.24285600  0.07336100  0.89427500  1
  Mn  Mn2  1  0.74274800  0.88817500  0.07945100  1
  Si  Si3  1  0.21654300  0.18770900  0.38125800  1
  Si  Si4  1  0.27113600  0.58642800  0.77994800  1
  Si  Si5  1  0.72334600  0.36154800  0.20369900  1
  Si  Si6  1  0.76425100  0.76391400  0.60607900  1
  O  O7  1  0.42207200  0.35050400  0.33737200  1
  O  O8  1  0.06731300  0.63194700  0.61545600  1
  O  O9  1  0.55023600  0.61573300  0.62985200  1
  O  O10  1  0.93932100  0.34022900  0.34950400  1
  O  O11  1  0.20565700  0.06679700  0.61207700  1
  O  O12  1  0.27983300  0.35549200  0.90053300  1
  O  O13  1  0.83642000  0.85259200  0.35700900  1
  O  O14  1  0.64869300  0.61059000  0.11534700  1
  O  O15  1  0.82437200  0.17188100  0.03824100  1
  O  O16  1  0.66180100  0.92971200  0.79568700  1
  O  O17  1  0.31736700  0.00688300  0.19986400  1
  O  O18  1  0.16825600  0.76825100  0.96071600  1
