# generated using pymatgen
data_CrF4
_symmetry_space_group_name_H-M   'P 1'
_cell_length_a   8.05643998
_cell_length_b   8.05643998
_cell_length_c   3.78613553
_cell_angle_alpha   90.00000000
_cell_angle_beta   90.00000000
_cell_angle_gamma   90.00000000
_symmetry_Int_Tables_number   1
_chemical_formula_structural   CrF4
_chemical_formula_sum   'Cr4 F16'
_cell_volume   245.74376516
_cell_formula_units_Z   4
loop_
 _symmetry_equiv_pos_site_id
 _symmetry_equiv_pos_as_xyz
  1  'x, y, z'
loop_
 _atom_site_type_symbol
 _atom_site_label
 _atom_site_symmetry_multiplicity
 _atom_site_fract_x
 _atom_site_fract_y
 _atom_site_fract_z
 _atom_site_occupancy
  Cr  Cr0  1  0.63682049  0.36317951  0.50000000  1
  Cr  Cr1  1  0.36317951  0.63682049  0.50000000  1
  Cr  Cr2  1  0.13682049  0.13682049  0.00000000  1
  Cr  Cr3  1  0.86317951  0.86317951  0.00000000  1
  F  F4  1  0.60171987  0.60171987  0.50000000  1
  F  F5  1  0.39828013  0.39828013  0.50000000  1
  F  F6  1  0.10171987  0.89828013  0.00000000  1
  F  F7  1  0.89828013  0.10171987  0.00000000  1
  F  F8  1  0.87252086  0.87252086  0.50000000  1
  F  F9  1  0.12747914  0.12747914  0.50000000  1
  F  F10  1  0.37252086  0.62747914  0.00000000  1
  F  F11  1  0.62747914  0.37252086  0.00000000  1
  F  F12  1  0.61120933  0.15272997  0.50000000  1
  F  F13  1  0.38879067  0.84727003  0.50000000  1
  F  F14  1  0.11120933  0.34727003  0.00000000  1
  F  F15  1  0.88879067  0.65272997  0.00000000  1
  F  F16  1  0.15272997  0.61120933  0.50000000  1
  F  F17  1  0.84727003  0.38879067  0.50000000  1
  F  F18  1  0.34727003  0.11120933  0.00000000  1
  F  F19  1  0.65272997  0.88879067  0.00000000  1
