# generated using pymatgen
data_Na7Mg2Zr2SiP5O24
_symmetry_space_group_name_H-M   'P 1'
_cell_length_a   9.10909004
_cell_length_b   9.10393481
_cell_length_c   22.40811486
_cell_angle_alpha   90.10449981
_cell_angle_beta   89.87551634
_cell_angle_gamma   120.04630907
_symmetry_Int_Tables_number   1
_chemical_formula_structural   Na7Mg2Zr2SiP5O24
_chemical_formula_sum   'Na21 Mg6 Zr6 Si3 P15 O72'
_cell_volume   1608.55552486
_cell_formula_units_Z   3
loop_
 _symmetry_equiv_pos_site_id
 _symmetry_equiv_pos_as_xyz
  1  'x, y, z'
loop_
 _atom_site_type_symbol
 _atom_site_label
 _atom_site_symmetry_multiplicity
 _atom_site_fract_x
 _atom_site_fract_y
 _atom_site_fract_z
 _atom_site_occupancy
  Na  Na0  1  0.35884670  0.36943020  0.25590457  1
  Na  Na1  1  0.01032457  0.63856136  0.25324853  1
  Na  Na2  1  0.62956184  0.64638948  0.75253027  1
  Na  Na3  1  0.00598544  0.36730266  0.75684056  1
  Na  Na4  1  0.36212656  0.98490779  0.75441499  1
  Na  Na5  1  0.29370602  0.31287893  0.58441751  1
  Na  Na6  1  0.02838153  0.70810547  0.58789577  1
  Na  Na7  1  0.67697317  0.97268809  0.59300273  1
  Na  Na8  1  0.29110035  0.97252954  0.08851837  1
  Na  Na9  1  0.68676790  0.70552031  0.08586790  1
  Na  Na10  1  0.02635142  0.32681301  0.08991636  1
  Na  Na11  1  0.95806786  0.65363677  0.92618302  1
  Na  Na12  1  0.69384416  0.03734442  0.91960001  1
  Na  Na13  1  0.96323248  0.30653045  0.42073507  1
  Na  Na14  1  0.34692733  0.04071578  0.42499922  1
  Na  Na15  1  0.99357425  0.98682118  0.50709636  1
  Na  Na16  1  0.01458977  0.00598515  0.00666342  1
  Na  Na17  1  0.64957831  0.33010504  0.84186233  1
  Na  Na18  1  0.66512525  0.33646224  0.34132786  1
  Na  Na19  1  0.34797160  0.68525689  0.17592608  1
  Na  Na20  1  0.33992391  0.67591301  0.67388992  1
  Mg  Mg21  1  0.99970004  0.99905497  0.64948072  1
  Mg  Mg22  1  0.99710433  0.99611916  0.14995989  1
  Mg  Mg23  1  0.66162661  0.33605238  0.98245438  1
  Mg  Mg24  1  0.66232483  0.33650417  0.48195056  1
  Mg  Mg25  1  0.34066580  0.67328979  0.31588248  1
  Mg  Mg26  1  0.33692500  0.66845882  0.81656205  1
  Zr  Zr27  1  0.99275949  0.99403924  0.35154201  1
  Zr  Zr28  1  0.00211021  0.00518751  0.85179439  1
  Zr  Zr29  1  0.66404005  0.32598765  0.68408947  1
  Zr  Zr30  1  0.67089578  0.33082398  0.18534240  1
  Zr  Zr31  1  0.33062610  0.66282251  0.01767747  1
  Zr  Zr32  1  0.33939520  0.67118666  0.51691022  1
  Si  Si33  1  0.70092112  0.99713950  0.74738883  1
  Si  Si34  1  0.36427482  0.03486114  0.57940761  1
  Si  Si35  1  0.96354508  0.63332465  0.08014813  1
  P  P36  1  0.29445401  0.99740347  0.24851698  1
  P  P37  1  0.69886880  0.70326573  0.24560716  1
  P  P38  1  0.00237431  0.29688473  0.24829241  1
  P  P39  1  0.29436123  0.29741155  0.74625157  1
  P  P40  1  0.00097340  0.70461353  0.74862890  1
  P  P41  1  0.96166241  0.33212870  0.57939626  1
  P  P42  1  0.66876802  0.62622812  0.58239209  1
  P  P43  1  0.66989140  0.04039647  0.07866025  1
  P  P44  1  0.37324874  0.33090883  0.08360514  1
  P  P45  1  0.62903619  0.66231477  0.91332441  1
  P  P46  1  0.03485682  0.37043351  0.91399971  1
  P  P47  1  0.33595780  0.96489563  0.91470322  1
  P  P48  1  0.62827951  0.96576226  0.41532034  1
  P  P49  1  0.33578866  0.37116637  0.41231655  1
  P  P50  1  0.03614986  0.66263836  0.41341389  1
  O  O51  1  0.20363412  0.02101399  0.30485229  1
  O  O52  1  0.81898678  0.79944490  0.29970743  1
  O  O53  1  0.98555980  0.18988001  0.30533212  1
  O  O54  1  0.20524647  0.17721949  0.80067085  1
  O  O55  1  0.97939569  0.79425818  0.80509826  1
  O  O56  1  0.82302769  0.02570066  0.80696876  1
  O  O57  1  0.79152464  0.97655542  0.68887544  1
  O  O58  1  0.19414901  0.21598902  0.68922852  1
  O  O59  1  0.02686102  0.81260261  0.69288950  1
  O  O60  1  0.78086487  0.79833646  0.18794237  1
  O  O61  1  0.01725768  0.20768011  0.19258216  1
  O  O62  1  0.18903263  0.97926523  0.19279408  1
  O  O63  1  0.87875796  0.36241169  0.63663902  1
  O  O64  1  0.48673067  0.12655424  0.63943556  1
  O  O65  1  0.64244110  0.52401300  0.64174522  1
  O  O66  1  0.87081254  0.50982383  0.13984613  1
  O  O67  1  0.63670511  0.12782677  0.13347344  1
  O  O68  1  0.47925274  0.35853204  0.14215321  1
  O  O69  1  0.45945935  0.29955883  0.03124493  1
  O  O70  1  0.85117040  0.54296449  0.02204847  1
  O  O71  1  0.68943009  0.14098298  0.02204206  1
  O  O72  1  0.45436693  0.14786974  0.52150640  1
  O  O73  1  0.69404531  0.53557224  0.53038708  1
  O  O74  1  0.85640018  0.31435904  0.52438273  1
  O  O75  1  0.54137482  0.68599829  0.97023173  1
  O  O76  1  0.14065660  0.46015395  0.97167816  1
  O  O77  1  0.31348738  0.85037391  0.97110742  1
  O  O78  1  0.55004908  0.86464879  0.47513152  1
  O  O79  1  0.31264573  0.45843305  0.46962193  1
  O  O80  1  0.15280287  0.69046430  0.46971051  1
  O  O81  1  0.12204018  0.64361694  0.35777276  1
  O  O82  1  0.51247357  0.87002493  0.36393283  1
  O  O83  1  0.34328650  0.46981180  0.35669925  1
  O  O84  1  0.12587665  0.47564078  0.85890273  1
  O  O85  1  0.35289634  0.87709546  0.85895055  1
  O  O86  1  0.53130956  0.65487335  0.85724982  1
  O  O87  1  0.02720608  0.83089146  0.41171661  1
  O  O88  1  0.81002408  0.98567387  0.41158469  1
  O  O89  1  0.16679629  0.18958463  0.41209886  1
  O  O90  1  0.01722213  0.18997003  0.91402950  1
  O  O91  1  0.16790390  0.97190335  0.91390176  1
  O  O92  1  0.81053386  0.83032995  0.91322311  1
  O  O93  1  0.98161198  0.17491162  0.58591911  1
  O  O94  1  0.17503191  0.00830453  0.58678232  1
  O  O95  1  0.82088582  0.80800494  0.58688465  1
  O  O96  1  0.99128070  0.82356788  0.08694852  1
  O  O97  1  0.82794735  0.02306360  0.08756633  1
  O  O98  1  0.19022041  0.18207170  0.08983549  1
  O  O99  1  0.69065907  0.17590166  0.74742704  1
  O  O100  1  0.47572544  0.31708709  0.74541276  1
  O  O101  1  0.83341224  0.52902092  0.74608819  1
  O  O102  1  0.68963228  0.52420350  0.24662787  1
  O  O103  1  0.84031416  0.31627957  0.24760584  1
  O  O104  1  0.47026773  0.16514117  0.24685740  1
  O  O105  1  0.65606168  0.50992031  0.91801734  1
  O  O106  1  0.85573019  0.34789223  0.91787369  1
  O  O107  1  0.49508970  0.13963538  0.92119785  1
  O  O108  1  0.65364071  0.14635867  0.41927930  1
  O  O109  1  0.48733996  0.34249551  0.41690614  1
  O  O110  1  0.86127836  0.50460025  0.42115757  1
  O  O111  1  0.36617871  0.50000662  0.07788083  1
  O  O112  1  0.15424309  0.64637150  0.07958237  1
  O  O113  1  0.50838327  0.85798355  0.07737953  1
  O  O114  1  0.35166807  0.84467162  0.57933360  1
  O  O115  1  0.50064107  0.63580648  0.57758002  1
  O  O116  1  0.14302284  0.49473742  0.57704717  1
  O  O117  1  0.31012222  0.83814101  0.25481914  1
  O  O118  1  0.51907501  0.67271391  0.25352454  1
  O  O119  1  0.15965785  0.47643979  0.25244596  1
  O  O120  1  0.31192411  0.47312318  0.75465238  1
  O  O121  1  0.15308171  0.67602584  0.75507063  1
  O  O122  1  0.51096193  0.83437883  0.75371235  1
