# generated using pymatgen
data_Na8Ga2Si5Sn2SO24
_symmetry_space_group_name_H-M   'P 1'
_cell_length_a   9.06442949
_cell_length_b   9.04485979
_cell_length_c   22.10709591
_cell_angle_alpha   90.06704940
_cell_angle_beta   89.32804499
_cell_angle_gamma   119.86045310
_symmetry_Int_Tables_number   1
_chemical_formula_structural   Na8Ga2Si5Sn2SO24
_chemical_formula_sum   'Na24 Ga6 Si15 Sn6 S3 O72'
_cell_volume   1571.72822980
_cell_formula_units_Z   3
loop_
 _symmetry_equiv_pos_site_id
 _symmetry_equiv_pos_as_xyz
  1  'x, y, z'
loop_
 _atom_site_type_symbol
 _atom_site_label
 _atom_site_symmetry_multiplicity
 _atom_site_fract_x
 _atom_site_fract_y
 _atom_site_fract_z
 _atom_site_occupancy
  Na  Na0  1  0.63792418  0.00067172  0.25267873  1
  Na  Na1  1  0.36171518  0.36286899  0.24676148  1
  Na  Na2  1  0.99990864  0.63563293  0.24978133  1
  Na  Na3  1  0.63528072  0.63607088  0.74681900  1
  Na  Na4  1  0.99973990  0.36594944  0.74994205  1
  Na  Na5  1  0.36693906  0.00259783  0.75009266  1
  Na  Na6  1  0.30172348  0.33965986  0.58516172  1
  Na  Na7  1  0.03809042  0.70073993  0.58262586  1
  Na  Na8  1  0.66443672  0.96233454  0.58266454  1
  Na  Na9  1  0.28633546  0.96306337  0.08102977  1
  Na  Na10  1  0.66784522  0.69531708  0.08652318  1
  Na  Na11  1  0.04286322  0.33513670  0.08721173  1
  Na  Na12  1  0.97138424  0.66782471  0.91610628  1
  Na  Na13  1  0.70308241  0.04222510  0.91052201  1
  Na  Na14  1  0.32257081  0.28470830  0.91892743  1
  Na  Na15  1  0.96135663  0.29335158  0.41181721  1
  Na  Na16  1  0.32745421  0.02320394  0.41532290  1
  Na  Na17  1  0.71449865  0.68109233  0.41790396  1
  Na  Na18  1  0.99266360  0.99155080  0.49926362  1
  Na  Na19  1  0.01542733  0.00598970  0.00004243  1
  Na  Na20  1  0.66647166  0.32590246  0.83391879  1
  Na  Na21  1  0.67424825  0.33282031  0.33198887  1
  Na  Na22  1  0.32585934  0.65838026  0.16505977  1
  Na  Na23  1  0.33399114  0.66709874  0.66362131  1
  Ga  Ga24  1  0.98725940  0.98546647  0.34668650  1
  Ga  Ga25  1  0.01431268  0.01238463  0.84830376  1
  Ga  Ga26  1  0.01333517  0.99880300  0.15245378  1
  Ga  Ga27  1  0.66420804  0.33283538  0.98300517  1
  Ga  Ga28  1  0.29547289  0.64227168  0.01667859  1
  Ga  Ga29  1  0.33799526  0.68635521  0.52206721  1
  Si  Si30  1  0.28783022  0.00205665  0.25046572  1
  Si  Si31  1  0.71192328  0.71406587  0.24916375  1
  Si  Si32  1  0.99959541  0.28287644  0.24979583  1
  Si  Si33  1  0.29441629  0.29416924  0.75135122  1
  Si  Si34  1  0.99737579  0.71243859  0.75258250  1
  Si  Si35  1  0.71112738  0.99916077  0.75322645  1
  Si  Si36  1  0.96954973  0.33717815  0.58276944  1
  Si  Si37  1  0.37394881  0.04187107  0.58341242  1
  Si  Si38  1  0.66225025  0.62773770  0.58217171  1
  Si  Si39  1  0.95664688  0.62853913  0.08104022  1
  Si  Si40  1  0.37198754  0.33657020  0.08046892  1
  Si  Si41  1  0.03061679  0.36271636  0.91803567  1
  Si  Si42  1  0.33540951  0.96175501  0.92040567  1
  Si  Si43  1  0.62852183  0.95828720  0.41770478  1
  Si  Si44  1  0.04151743  0.67042298  0.41853695  1
  Sn  Sn45  1  0.00010627  0.00110701  0.64833495  1
  Sn  Sn46  1  0.67005361  0.33569903  0.68586962  1
  Sn  Sn47  1  0.66798904  0.34195486  0.18592011  1
  Sn  Sn48  1  0.67610520  0.33200379  0.48429738  1
  Sn  Sn49  1  0.32977607  0.67206531  0.31306569  1
  Sn  Sn50  1  0.32471262  0.67010983  0.81481355  1
  S  S51  1  0.66631657  0.03952020  0.08198893  1
  S  S52  1  0.62336944  0.66660550  0.91841284  1
  S  S53  1  0.33356703  0.37559745  0.41794878  1
  O  O54  1  0.20720667  0.04096739  0.31033543  1
  O  O55  1  0.82412126  0.78553010  0.30975288  1
  O  O56  1  0.96665902  0.16986709  0.31090135  1
  O  O57  1  0.21622965  0.17520800  0.81083897  1
  O  O58  1  0.96276117  0.79761662  0.81176303  1
  O  O59  1  0.83091546  0.03308368  0.81136318  1
  O  O60  1  0.78348167  0.95810926  0.69104254  1
  O  O61  1  0.17584815  0.22012814  0.69136936  1
  O  O62  1  0.03921214  0.82654317  0.69089981  1
  O  O63  1  0.79325518  0.83407667  0.18959199  1
  O  O64  1  0.03341811  0.20245547  0.18895523  1
  O  O65  1  0.17544411  0.96116898  0.18996743  1
  O  O66  1  0.88766579  0.37966312  0.64219845  1
  O  O67  1  0.49570400  0.12323926  0.64215043  1
  O  O68  1  0.62440309  0.50721355  0.64215920  1
  O  O69  1  0.88238550  0.50317186  0.14158393  1
  O  O70  1  0.63406553  0.11470592  0.13793056  1
  O  O71  1  0.49004523  0.37474471  0.14190256  1
  O  O72  1  0.46225499  0.29694380  0.02329518  1
  O  O73  1  0.83379682  0.53706245  0.02325432  1
  O  O74  1  0.69374092  0.14872418  0.02857455  1
  O  O75  1  0.45226450  0.16417379  0.52289717  1
  O  O76  1  0.70396997  0.54625288  0.52208647  1
  O  O77  1  0.84613603  0.28699736  0.52346976  1
  O  O78  1  0.53936594  0.69102471  0.97199965  1
  O  O79  1  0.15722005  0.44271971  0.97549893  1
  O  O80  1  0.30670770  0.83568677  0.97815126  1
  O  O81  1  0.54011773  0.83421831  0.47560013  1
  O  O82  1  0.31112200  0.45721774  0.47102014  1
  O  O83  1  0.16164559  0.69947173  0.47618400  1
  O  O84  1  0.11450748  0.61915957  0.35760244  1
  O  O85  1  0.50984776  0.87972219  0.35680900  1
  O  O86  1  0.36329526  0.47946891  0.36127682  1
  O  O87  1  0.11337066  0.48907039  0.85826909  1
  O  O88  1  0.38225829  0.88659796  0.85907686  1
  O  O89  1  0.51955758  0.63801635  0.86276899  1
  O  O90  1  0.02746763  0.84377047  0.41176241  1
  O  O91  1  0.82074151  0.98399101  0.41206644  1
  O  O92  1  0.18168204  0.20490054  0.41321082  1
  O  O93  1  0.01069675  0.17262437  0.91179596  1
  O  O94  1  0.15927351  0.97083334  0.91437422  1
  O  O95  1  0.79323496  0.81934690  0.91372417  1
  O  O96  1  0.98203823  0.16351523  0.58743714  1
  O  O97  1  0.18573221  0.02476424  0.58673523  1
  O  O98  1  0.83628133  0.81435685  0.58618716  1
  O  O99  1  0.97072253  0.81643182  0.08763869  1
  O  O100  1  0.82148747  0.02615763  0.08641863  1
  O  O101  1  0.18167776  0.16661866  0.08692428  1
  O  O102  1  0.69155644  0.17050519  0.74800118  1
  O  O103  1  0.48317654  0.31147205  0.74651262  1
  O  O104  1  0.82784143  0.52172433  0.74824234  1
  O  O105  1  0.69009484  0.52121840  0.24667342  1
  O  O106  1  0.82764491  0.30408542  0.24519112  1
  O  O107  1  0.48247839  0.16969228  0.24465122  1
  O  O108  1  0.64045457  0.51147231  0.92121622  1
  O  O109  1  0.84436658  0.35243934  0.92538046  1
  O  O110  1  0.50588652  0.15339968  0.92456132  1
  O  O111  1  0.63875735  0.14805074  0.42031639  1
  O  O112  1  0.49012947  0.35862768  0.41953107  1
  O  O113  1  0.84688098  0.49850204  0.42039369  1
  O  O114  1  0.36239472  0.51521598  0.07459066  1
  O  O115  1  0.14895921  0.64969312  0.07862309  1
  O  O116  1  0.51508116  0.86876159  0.07751136  1
  O  O117  1  0.35654689  0.85446930  0.57970152  1
  O  O118  1  0.49158508  0.64287665  0.57637284  1
  O  O119  1  0.15605693  0.50490564  0.57465376  1
  O  O120  1  0.30990217  0.83129082  0.25303770  1
  O  O121  1  0.51696714  0.68635838  0.25485675  1
  O  O122  1  0.17191393  0.47583437  0.25421598  1
  O  O123  1  0.31781242  0.48646713  0.75732195  1
  O  O124  1  0.16853317  0.69182071  0.75396860  1
  O  O125  1  0.52083532  0.82696777  0.75689374  1
