# generated using pymatgen
data_Na6Y4In4Si3(S3O16)3
_symmetry_space_group_name_H-M   'P 1'
_cell_length_a   18.21313680
_cell_length_b   9.07456546
_cell_length_c   23.63073333
_cell_angle_alpha   89.96095721
_cell_angle_beta   90.02423658
_cell_angle_gamma   119.84458375
_symmetry_Int_Tables_number   1
_chemical_formula_structural   Na6Y4In4Si3(S3O16)3
_chemical_formula_sum   'Na18 Y12 In12 Si9 S27 O144'
_cell_volume   3387.63277766
_cell_formula_units_Z   3
loop_
 _symmetry_equiv_pos_site_id
 _symmetry_equiv_pos_as_xyz
  1  'x, y, z'
loop_
 _atom_site_type_symbol
 _atom_site_label
 _atom_site_symmetry_multiplicity
 _atom_site_fract_x
 _atom_site_fract_y
 _atom_site_fract_z
 _atom_site_occupancy
  Na  Na0  1  0.00634199  0.65796556  0.25347066  1
  Na  Na1  1  0.50562675  0.35679898  0.73776073  1
  Na  Na2  1  0.16220612  0.30752334  0.90954413  1
  Na  Na3  1  0.66258229  0.30993559  0.91120290  1
  Na  Na4  1  0.16280920  0.01809535  0.41822239  1
  Na  Na5  1  0.65950078  0.00958435  0.41742723  1
  Na  Na6  1  0.99377293  0.97934311  0.50164979  1
  Na  Na7  1  0.49344788  0.00028698  0.50557375  1
  Na  Na8  1  0.99640118  0.01153392  0.99645548  1
  Na  Na9  1  0.49413872  0.00931027  0.99829695  1
  Na  Na10  1  0.32955223  0.33080544  0.82593903  1
  Na  Na11  1  0.84236007  0.33627599  0.82412024  1
  Na  Na12  1  0.34717243  0.35689737  0.33310903  1
  Na  Na13  1  0.82909539  0.32786547  0.33597382  1
  Na  Na14  1  0.17539344  0.68842134  0.16843955  1
  Na  Na15  1  0.66074469  0.67828771  0.17357679  1
  Na  Na16  1  0.16538740  0.64497013  0.67102377  1
  Na  Na17  1  0.66432445  0.64698869  0.66093734  1
  Y  Y18  1  0.00252508  0.99940044  0.35170573  1
  Y  Y19  1  0.50065020  0.99474707  0.34957309  1
  Y  Y20  1  0.00170371  0.00997341  0.84752060  1
  Y  Y21  1  0.50350098  0.00944066  0.84936505  1
  Y  Y22  1  0.32941000  0.33259699  0.68037510  1
  Y  Y23  1  0.82313084  0.31524903  0.18469857  1
  Y  Y24  1  0.33937558  0.33083529  0.98143305  1
  Y  Y25  1  0.84152300  0.33361110  0.98244343  1
  Y  Y26  1  0.34553106  0.34753668  0.48527390  1
  Y  Y27  1  0.83919633  0.34860719  0.48261734  1
  Y  Y28  1  0.16723262  0.67014991  0.31464834  1
  Y  Y29  1  0.66544352  0.66298028  0.81251570  1
  In  In30  1  0.00623256  0.01170491  0.65242179  1
  In  In31  1  0.50305152  0.01410638  0.64874412  1
  In  In32  1  0.00315390  0.00018630  0.15075378  1
  In  In33  1  0.50603481  0.99925583  0.15337192  1
  In  In34  1  0.83006778  0.33649304  0.68353195  1
  In  In35  1  0.33040062  0.32476557  0.18432622  1
  In  In36  1  0.16359789  0.65987419  0.01686023  1
  In  In37  1  0.66099974  0.65853540  0.01725318  1
  In  In38  1  0.16225776  0.66373954  0.51781205  1
  In  In39  1  0.65185718  0.65158921  0.52017256  1
  In  In40  1  0.65880818  0.66950573  0.31518782  1
  In  In41  1  0.15902705  0.64705817  0.81243228  1
  Si  Si42  1  0.15155644  0.00471693  0.24854005  1
  Si  Si43  1  0.65013799  0.99340258  0.25157856  1
  Si  Si44  1  0.15322879  0.30497359  0.75102536  1
  Si  Si45  1  0.65355042  0.29792304  0.75121133  1
  Si  Si46  1  0.48756940  0.32991021  0.58836915  1
  Si  Si47  1  0.02090571  0.37277736  0.91792756  1
  Si  Si48  1  0.51897852  0.36895897  0.91623184  1
  Si  Si49  1  0.01881201  0.66617716  0.41520346  1
  Si  Si50  1  0.51837013  0.66724814  0.41584725  1
  S  S51  1  0.35215344  0.70018792  0.24488069  1
  S  S52  1  0.85002399  0.70668707  0.24777952  1
  S  S53  1  -0.00005375  0.29689790  0.24657677  1
  S  S54  1  0.50005254  0.29873280  0.24616238  1
  S  S55  1  0.99963490  0.70105366  0.74705159  1
  S  S56  1  0.49905943  0.70644602  0.74688945  1
  S  S57  1  0.34767515  0.99185235  0.75007645  1
  S  S58  1  0.85274503  0.00552693  0.74518297  1
  S  S59  1  0.98185921  0.33118527  0.58625411  1
  S  S60  1  0.17812697  0.02403148  0.58045755  1
  S  S61  1  0.68672350  0.03406582  0.58317850  1
  S  S62  1  0.32944852  0.64046914  0.58263350  1
  S  S63  1  0.83716479  0.64441444  0.58584444  1
  S  S64  1  0.48178257  0.63274560  0.08627232  1
  S  S65  1  0.98638555  0.64147369  0.08582944  1
  S  S66  1  0.33380348  0.02603555  0.08524518  1
  S  S67  1  0.83315459  0.01983617  0.08339650  1
  S  S68  1  0.18371927  0.33643790  0.08339183  1
  S  S69  1  0.67966454  0.33417164  0.08097387  1
  S  S70  1  0.31173894  0.66885102  0.91875097  1
  S  S71  1  0.81364659  0.66990687  0.92081545  1
  S  S72  1  0.16601143  0.95476638  0.91660524  1
  S  S73  1  0.66624734  0.96138563  0.92022269  1
  S  S74  1  0.31363135  0.96002861  0.41990376  1
  S  S75  1  0.80963147  0.95146473  0.41917693  1
  S  S76  1  0.16642059  0.37052126  0.41961034  1
  S  S77  1  0.66775979  0.37935913  0.41511657  1
  O  O78  1  0.10912161  0.02494641  0.30709856  1
  O  O79  1  0.60762171  0.01432838  0.30913528  1
  O  O80  1  0.40058140  0.78343738  0.29635434  1
  O  O81  1  0.90434805  0.79027623  0.29766884  1
  O  O82  1  0.48593608  0.19303147  0.29655456  1
  O  O83  1  0.98688781  0.19412671  0.29717516  1
  O  O84  1  0.11136248  0.20501148  0.81098011  1
  O  O85  1  0.61683451  0.20133152  0.81253269  1
  O  O86  1  0.49042995  0.78592840  0.79915217  1
  O  O87  1  0.98552330  0.77827124  0.79812644  1
  O  O88  1  0.40110526  0.01434035  0.80079335  1
  O  O89  1  0.90176059  0.02204682  0.79744446  1
  O  O90  1  0.38380205  0.95839881  0.69914665  1
  O  O91  1  0.89100854  0.97361622  0.69482238  1
  O  O92  1  0.09347578  0.20992712  0.69592455  1
  O  O93  1  0.58478264  0.19846683  0.70131205  1
  O  O94  1  0.00539968  0.79752409  0.69509578  1
  O  O95  1  0.50275706  0.80189417  0.69565218  1
  O  O96  1  0.38950104  0.80699208  0.19351273  1
  O  O97  1  0.88564475  0.81260937  0.19601719  1
  O  O98  1  0.00488465  0.21301295  0.19396014  1
  O  O99  1  0.50614371  0.21473357  0.19342098  1
  O  O100  1  0.08437559  0.95922982  0.19557376  1
  O  O101  1  0.59520827  0.97257171  0.19382047  1
  O  O102  1  0.44474092  0.34672590  0.64738704  1
  O  O103  1  0.94042365  0.35413421  0.63684361  1
  O  O104  1  0.23001654  0.11449901  0.63021714  1
  O  O105  1  0.73998431  0.12469908  0.63306859  1
  O  O106  1  0.31480722  0.53236963  0.63299962  1
  O  O107  1  0.82471934  0.53765463  0.63666347  1
  O  O108  1  0.44029157  0.52598603  0.13677459  1
  O  O109  1  0.94708955  0.54308964  0.13794865  1
  O  O110  1  0.32056518  0.10654322  0.13576178  1
  O  O111  1  0.82182290  0.10237274  0.13390973  1
  O  O112  1  0.23659797  0.35319388  0.13328931  1
  O  O113  1  0.73256276  0.34979165  0.13083175  1
  O  O114  1  0.22171156  0.31486995  0.03075770  1
  O  O115  1  0.71928101  0.31427264  0.02890099  1
  O  O116  1  0.43232535  0.55054169  0.03446604  1
  O  O117  1  0.93410215  0.55072343  0.03576413  1
  O  O118  1  0.34567984  0.13000820  0.03395734  1
  O  O119  1  0.84566134  0.12560735  0.03259079  1
  O  O120  1  0.21623428  0.12040972  0.52759751  1
  O  O121  1  0.72449629  0.13592590  0.53068312  1
  O  O122  1  0.33810678  0.55793811  0.53118401  1
  O  O123  1  0.85021953  0.56328956  0.53486445  1
  O  O124  1  0.43182695  0.32273288  0.53350228  1
  O  O125  1  0.93242620  0.31453557  0.53432494  1
  O  O126  1  0.27742539  0.70289314  0.97134107  1
  O  O127  1  0.77704592  0.70130175  0.97250647  1
  O  O128  1  0.07992846  0.45030109  0.97523747  1
  O  O129  1  0.58116620  0.45630913  0.97151792  1
  O  O130  1  0.16012915  0.86387065  0.97050266  1
  O  O131  1  0.66087653  0.86803757  0.97327700  1
  O  O132  1  0.27637305  0.85530151  0.47105418  1
  O  O133  1  0.77216920  0.84650681  0.46975298  1
  O  O134  1  0.16039897  0.45443112  0.47149712  1
  O  O135  1  0.66392612  0.46278193  0.46729734  1
  O  O136  1  0.08291105  0.70088094  0.46867692  1
  O  O137  1  0.58452976  0.71802626  0.46916904  1
  O  O138  1  0.05904559  0.64784582  0.35532021  1
  O  O139  1  0.55728164  0.63061475  0.35910246  1
  O  O140  1  0.26271821  0.87387743  0.36865997  1
  O  O141  1  0.76111213  0.87456739  0.36646562  1
  O  O142  1  0.17798332  0.47225069  0.36827097  1
  O  O143  1  0.68294711  0.48296910  0.36340841  1
  O  O144  1  0.06362358  0.49102617  0.86328849  1
  O  O145  1  0.56259399  0.47427090  0.85866780  1
  O  O146  1  0.18093232  0.87912289  0.86664127  1
  O  O147  1  0.67994594  0.88554910  0.86998069  1
  O  O148  1  0.26018540  0.64860229  0.86853620  1
  O  O149  1  0.76238265  0.65026744  0.87012461  1
  O  O150  1  0.01307683  0.84234716  0.41549663  1
  O  O151  1  0.51107177  0.84166173  0.41314598  1
  O  O152  1  0.40087189  0.99476575  0.41408061  1
  O  O153  1  0.89819598  0.98725091  0.41363261  1
  O  O154  1  0.08632811  0.20313154  0.41620957  1
  O  O155  1  0.58882178  0.21165550  0.41117516  1
  O  O156  1  0.01336573  0.18380869  0.91469004  1
  O  O157  1  0.51172386  0.18038075  0.91606548  1
  O  O158  1  0.08705432  0.96586846  0.91286128  1
  O  O159  1  0.58691617  0.97060256  0.91696313  1
  O  O160  1  0.40000845  0.80840848  0.91328544  1
  O  O161  1  0.90125746  0.81090133  0.91526673  1
  O  O162  1  0.49249257  0.15387917  0.58522841  1
  O  O163  1  0.98773246  0.17323725  0.58915377  1
  O  O164  1  0.09127823  0.00276976  0.58488509  1
  O  O165  1  0.59993698  0.00776136  0.58839242  1
  O  O166  1  0.40703923  0.80710693  0.58869522  1
  O  O167  1  0.91572261  0.81467376  0.59141430  1
  O  O168  1  0.48761828  0.80241558  0.08937683  1
  O  O169  1  0.99108188  0.81066635  0.08632135  1
  O  O170  1  0.41044570  0.00773283  0.09089896  1
  O  O171  1  0.91044587  0.00263712  0.08876592  1
  O  O172  1  0.09675377  0.18467344  0.08789164  1
  O  O173  1  0.59329147  0.18178196  0.08556965  1
  O  O174  1  0.34712169  0.15571326  0.74565761  1
  O  O175  1  0.85066041  0.16691495  0.74073501  1
  O  O176  1  0.24597279  0.31823711  0.74735393  1
  O  O177  1  0.74750738  0.31702497  0.74499665  1
  O  O178  1  0.42563795  0.52995191  0.74541639  1
  O  O179  1  0.92644573  0.52439259  0.74315097  1
  O  O180  1  0.34984503  0.53445308  0.24053978  1
  O  O181  1  0.85214747  0.54384607  0.24157741  1
  O  O182  1  0.42640550  0.32811079  0.24188220  1
  O  O183  1  0.92829828  0.33267889  0.24274250  1
  O  O184  1  0.24435720  0.17462333  0.24260507  1
  O  O185  1  0.74409263  0.16766295  0.24817328  1
  O  O186  1  0.31067451  0.50229306  0.92453928  1
  O  O187  1  0.81275505  0.50406142  0.92599842  1
  O  O188  1  0.42543130  0.35042101  0.92138403  1
  O  O189  1  0.92572973  0.34844461  0.92210755  1
  O  O190  1  0.23802474  0.13534025  0.92134642  1
  O  O191  1  0.73811947  0.14042843  0.92458864  1
  O  O192  1  0.31095580  0.12193913  0.42318573  1
  O  O193  1  0.81058225  0.11879635  0.42411667  1
  O  O194  1  0.23762434  0.33540916  0.42283668  1
  O  O195  1  0.73990355  0.34225483  0.41903291  1
  O  O196  1  0.42354456  0.50296537  0.42010957  1
  O  O197  1  0.92521379  0.49824307  0.42027122  1
  O  O198  1  0.17800327  0.49545240  0.08197389  1
  O  O199  1  0.67462104  0.49326572  0.08017307  1
  O  O200  1  0.07322081  0.66376283  0.08139721  1
  O  O201  1  0.56881419  0.65467203  0.08285152  1
  O  O202  1  0.25615247  0.85421025  0.07936511  1
  O  O203  1  0.75604605  0.84928973  0.07781752  1
  O  O204  1  0.17238860  0.85414454  0.57998561  1
  O  O205  1  0.68502769  0.86908892  0.58041984  1
  O  O206  1  0.25296921  0.66243444  0.57787285  1
  O  O207  1  0.76239570  0.66456515  0.57922387  1
  O  O208  1  0.06850991  0.48325001  0.58269286  1
  O  O209  1  0.58325889  0.49905758  0.58560734  1
  O  O210  1  0.15832074  0.82979486  0.25011032  1
  O  O211  1  0.66406360  0.82808152  0.25102107  1
  O  O212  1  0.26467112  0.67102510  0.24926046  1
  O  O213  1  0.76296626  0.67155438  0.25526696  1
  O  O214  1  0.07915432  0.46445723  0.24969055  1
  O  O215  1  0.58034737  0.46343455  0.25023606  1
  O  O216  1  0.16406793  0.49651932  0.75001250  1
  O  O217  1  0.65886194  0.48513156  0.75131559  1
  O  O218  1  0.08003355  0.69741889  0.75133375  1
  O  O219  1  0.57787840  0.69453236  0.74912283  1
  O  O220  1  0.26052324  0.84976046  0.75760147  1
  O  O221  1  0.76607729  0.86041075  0.75066639  1
