# generated using pymatgen
data_Na30Ca16Ta8Si15(S7O48)3
_symmetry_space_group_name_H-M   'P 1'
_cell_length_a   18.56161901
_cell_length_b   9.25979463
_cell_length_c   23.24934415
_cell_angle_alpha   89.93794579
_cell_angle_beta   90.18653029
_cell_angle_gamma   119.95198438
_symmetry_Int_Tables_number   1
_chemical_formula_structural   Na30Ca16Ta8Si15(S7O48)3
_chemical_formula_sum   'Na30 Ca16 Ta8 Si15 S21 O144'
_cell_volume   3462.31107242
_cell_formula_units_Z   1
loop_
 _symmetry_equiv_pos_site_id
 _symmetry_equiv_pos_as_xyz
  1  'x, y, z'
loop_
 _atom_site_type_symbol
 _atom_site_label
 _atom_site_symmetry_multiplicity
 _atom_site_fract_x
 _atom_site_fract_y
 _atom_site_fract_z
 _atom_site_occupancy
  Na  Na0  1  0.32912888  0.03036370  0.24930087  1
  Na  Na1  1  0.82816724  0.02722663  0.24996563  1
  Na  Na2  1  0.18307225  0.33703151  0.24996448  1
  Na  Na3  1  0.68144994  0.33838566  0.24882616  1
  Na  Na4  1  0.98532738  0.63039148  0.25063852  1
  Na  Na5  1  0.48527820  0.62151587  0.24020694  1
  Na  Na6  1  0.32785195  0.62825043  0.75106314  1
  Na  Na7  1  0.83150747  0.63155580  0.75184414  1
  Na  Na8  1  0.98507377  0.34602486  0.74273412  1
  Na  Na9  1  0.48449568  0.34655419  0.74179391  1
  Na  Na10  1  0.18020696  0.02658513  0.75051212  1
  Na  Na11  1  0.68222400  0.02740508  0.75055839  1
  Na  Na12  1  0.01122567  0.66782048  0.59236820  1
  Na  Na13  1  0.51119932  0.66676221  0.59116687  1
  Na  Na14  1  0.51173954  0.35507686  0.08738691  1
  Na  Na15  1  0.47908315  0.66968353  0.91583278  1
  Na  Na16  1  0.47991570  0.28881338  0.41862695  1
  Na  Na17  1  0.97931802  0.28833450  0.42032167  1
  Na  Na18  1  0.99695362  0.00961241  0.50850482  1
  Na  Na19  1  0.49801523  0.01045830  0.50790098  1
  Na  Na20  1  0.00071271  0.00126689  0.99660731  1
  Na  Na21  1  0.49660199  0.98468431  0.00307806  1
  Na  Na22  1  0.32677238  0.31886922  0.82443558  1
  Na  Na23  1  0.83620453  0.33685196  0.82514114  1
  Na  Na24  1  0.32992628  0.33636431  0.32430287  1
  Na  Na25  1  0.82566198  0.33162937  0.32689189  1
  Na  Na26  1  0.16647647  0.66544169  0.15720105  1
  Na  Na27  1  0.66379833  0.68214964  0.15552059  1
  Na  Na28  1  0.16294279  0.64431501  0.65760289  1
  Na  Na29  1  0.66376811  0.64531088  0.65675651  1
  Ca  Ca30  1  0.00005745  0.99436847  0.35050645  1
  Ca  Ca31  1  0.50160040  0.99435177  0.35034649  1
  Ca  Ca32  1  0.00057345  0.00204357  0.85176153  1
  Ca  Ca33  1  0.50060108  0.00839321  0.85035258  1
  Ca  Ca34  1  0.33335972  0.33013050  0.67929104  1
  Ca  Ca35  1  0.83368962  0.32951101  0.67896822  1
  Ca  Ca36  1  0.33377390  0.33704526  0.17823214  1
  Ca  Ca37  1  0.83370484  0.33383244  0.17820496  1
  Ca  Ca38  1  0.33139222  0.34064045  0.98514498  1
  Ca  Ca39  1  0.83503942  0.33678558  0.97997050  1
  Ca  Ca40  1  0.33355990  0.32336331  0.48660733  1
  Ca  Ca41  1  0.83318630  0.32274658  0.48705851  1
  Ca  Ca42  1  0.16687720  0.66547213  0.01884416  1
  Ca  Ca43  1  0.67081402  0.67630873  0.02015299  1
  Ca  Ca44  1  0.17043382  0.66661278  0.52079001  1
  Ca  Ca45  1  0.67065842  0.66670837  0.52046351  1
  Ta  Ta46  1  0.99911118  0.01307857  0.65587611  1
  Ta  Ta47  1  0.49841090  0.01242285  0.65640132  1
  Ta  Ta48  1  0.99958104  -0.00041480  0.15669404  1
  Ta  Ta49  1  0.49911500  0.98507360  0.15510897  1
  Ta  Ta50  1  0.16794184  0.66828870  0.30826571  1
  Ta  Ta51  1  0.66669967  0.66612434  0.30804212  1
  Ta  Ta52  1  0.16433268  0.66741001  0.80895737  1
  Ta  Ta53  1  0.66764820  0.66682191  0.80862897  1
  Si  Si54  1  0.14713520  0.99803043  0.25231668  1
  Si  Si55  1  0.64878568  0.00073738  0.25371192  1
  Si  Si56  1  0.35057571  0.70283023  0.25271782  1
  Si  Si57  1  0.85052515  0.70336261  0.25160710  1
  Si  Si58  1  0.00130931  0.29775981  0.25524367  1
  Si  Si59  1  0.50063680  0.29249507  0.25320171  1
  Si  Si60  1  0.14778029  0.29793649  0.75472908  1
  Si  Si61  1  0.64841087  0.29758131  0.75415509  1
  Si  Si62  1  0.00029699  0.70949528  0.74981737  1
  Si  Si63  1  0.50115450  0.70875338  0.75392191  1
  Si  Si64  1  0.34895315  0.99671517  0.75327459  1
  Si  Si65  1  0.85103229  0.99861361  0.75359532  1
  Si  Si66  1  0.48718250  0.32682847  0.58315855  1
  Si  Si67  1  0.98739323  0.32652421  0.58289693  1
  Si  Si68  1  0.48697778  0.64569858  0.08372627  1
  S  S69  1  0.17302916  0.02857927  0.58622272  1
  S  S70  1  0.67253243  0.02743647  0.58670927  1
  S  S71  1  0.34182049  0.65021419  0.58688601  1
  S  S72  1  0.84158734  0.65014426  0.58664260  1
  S  S73  1  0.98642825  0.65408425  0.08739419  1
  S  S74  1  0.33930161  0.02895025  0.08746338  1
  S  S75  1  0.84322109  0.03231917  0.08730768  1
  S  S76  1  0.17141151  0.31794269  0.08817349  1
  S  S77  1  0.67467918  0.31899754  0.08634319  1
  S  S78  1  0.30973780  0.66147917  0.91356910  1
  S  S79  1  0.80913767  0.66066682  0.91390454  1
  S  S80  1  0.02194897  0.38299781  0.91426786  1
  S  S81  1  0.52256690  0.38326379  0.91547969  1
  S  S82  1  0.16988380  0.95673124  0.91440848  1
  S  S83  1  0.66917858  0.95706883  0.91315477  1
  S  S84  1  0.30990364  0.95926128  0.41253419  1
  S  S85  1  0.81002042  0.95959812  0.41248122  1
  S  S86  1  0.16970878  0.38307180  0.41250814  1
  S  S87  1  0.66980975  0.38268523  0.41268188  1
  S  S88  1  0.02271747  0.66152375  0.41413337  1
  S  S89  1  0.52310138  0.66174401  0.41442232  1
  O  O90  1  0.11242685  0.04952600  0.30544086  1
  O  O91  1  0.61680578  0.05445331  0.30772033  1
  O  O92  1  0.40921025  0.77533397  0.30658240  1
  O  O93  1  0.91080323  0.77387966  0.30497083  1
  O  O94  1  0.48534096  0.19337683  0.31186905  1
  O  O95  1  0.98037860  0.19388931  0.31314512  1
  O  O96  1  0.11479057  0.17891797  0.80831511  1
  O  O97  1  0.61522405  0.17891630  0.80787765  1
  O  O98  1  0.48473326  0.77613049  0.81246468  1
  O  O99  1  0.97977913  0.78661157  0.80327210  1
  O  O100  1  0.40994064  0.04615411  0.80606518  1
  O  O101  1  0.91123310  0.04840352  0.80676440  1
  O  O102  1  0.39942003  0.96268930  0.69675234  1
  O  O103  1  0.90070529  0.96308805  0.69686297  1
  O  O104  1  0.07920236  0.19806410  0.69885877  1
  O  O105  1  0.57908207  0.19871819  0.69878354  1
  O  O106  1  0.01986479  0.83512676  0.69119442  1
  O  O107  1  0.51846250  0.83958501  0.69724944  1
  O  O108  1  0.40062716  0.83683362  0.19641830  1
  O  O109  1  0.90110346  0.83987601  0.19570871  1
  O  O110  1  0.01769732  0.19021562  0.20091984  1
  O  O111  1  0.51868621  0.19814013  0.19662000  1
  O  O112  1  0.07849169  0.96010586  0.19622210  1
  O  O113  1  0.57989461  0.96129563  0.19852845  1
  O  O114  1  0.44415958  0.35497481  0.63916979  1
  O  O115  1  0.94398080  0.35345940  0.63878077  1
  O  O116  1  0.21816937  0.10276803  0.63973047  1
  O  O117  1  0.71791208  0.10197239  0.64008194  1
  O  O118  1  0.32901801  0.55589901  0.64027257  1
  O  O119  1  0.82939590  0.55635798  0.64012486  1
  O  O120  1  0.44573299  0.53719825  0.14121257  1
  O  O121  1  0.95014516  0.56215822  0.14118853  1
  O  O122  1  0.32721507  0.09742741  0.14127639  1
  O  O123  1  0.83344363  0.10454111  0.14112260  1
  O  O124  1  0.21747962  0.33601582  0.14170022  1
  O  O125  1  0.71945462  0.33560944  0.14038838  1
  O  O126  1  0.21139092  0.29557133  0.03718035  1
  O  O127  1  0.71743942  0.29980574  0.03631181  1
  O  O128  1  0.43423874  0.57315209  0.02390845  1
  O  O129  1  0.93445983  0.56921709  0.03682853  1
  O  O130  1  0.34959850  0.13643821  0.03752491  1
  O  O131  1  0.85205029  0.13578917  0.03675680  1
  O  O132  1  0.21450567  0.13051479  0.53528002  1
  O  O133  1  0.71316707  0.12969074  0.53568119  1
  O  O134  1  0.35148706  0.56365636  0.53647615  1
  O  O135  1  0.85083143  0.56272435  0.53628685  1
  O  O136  1  0.43642801  0.29310613  0.52206086  1
  O  O137  1  0.93677527  0.29358653  0.52174097  1
  O  O138  1  0.26670720  0.66458528  0.96548223  1
  O  O139  1  0.76604198  0.66429273  0.96566545  1
  O  O140  1  0.06696552  0.46951103  0.96636158  1
  O  O141  1  0.56647618  0.46445561  0.96889076  1
  O  O142  1  0.16878781  0.86575896  0.96610417  1
  O  O143  1  0.66585948  0.86294472  0.96434494  1
  O  O144  1  0.26651705  0.86860804  0.46399987  1
  O  O145  1  0.76657660  0.86987005  0.46399924  1
  O  O146  1  0.16659271  0.47133449  0.46364488  1
  O  O147  1  0.66729391  0.47177294  0.46366103  1
  O  O148  1  0.06724680  0.66686903  0.46704129  1
  O  O149  1  0.56710514  0.66733573  0.46759736  1
  O  O150  1  0.07431582  0.65699741  0.36226928  1
  O  O151  1  0.57538493  0.65759855  0.36303436  1
  O  O152  1  0.25902075  0.85842952  0.35959252  1
  O  O153  1  0.76030758  0.85980810  0.35947474  1
  O  O154  1  0.17283328  0.48828071  0.35931153  1
  O  O155  1  0.67288996  0.48696652  0.35931626  1
  O  O156  1  0.07253593  0.48833913  0.86189970  1
  O  O157  1  0.57397368  0.49151414  0.86416765  1
  O  O158  1  0.17128020  0.85448835  0.86141301  1
  O  O159  1  0.67294102  0.86124477  0.86005255  1
  O  O160  1  0.26014839  0.66057851  0.86089297  1
  O  O161  1  0.75657634  0.65693033  0.86112035  1
  O  O162  1  0.01256571  0.80688578  0.41143243  1
  O  O163  1  0.51275404  0.80685013  0.41163201  1
  O  O164  1  0.39389353  0.97979808  0.41150991  1
  O  O165  1  0.89423013  0.98026489  0.41215782  1
  O  O166  1  0.09125648  0.22180556  0.41057761  1
  O  O167  1  0.59139463  0.22136368  0.41137240  1
  O  O168  1  0.01448329  0.21835139  0.91269961  1
  O  O169  1  0.51196495  0.21666834  0.91294148  1
  O  O170  1  0.09443275  0.96934339  0.91290681  1
  O  O171  1  0.59122498  0.96330453  0.91174756  1
  O  O172  1  0.39437157  0.80911647  0.91352604  1
  O  O173  1  0.89137815  0.81012368  0.91196667  1
  O  O174  1  0.49383928  0.15051416  0.59607020  1
  O  O175  1  0.99426728  0.15028811  0.59524610  1
  O  O176  1  0.08706975  0.00907554  0.58925626  1
  O  O177  1  0.58608713  0.00593816  0.59050253  1
  O  O178  1  0.42443008  0.81278866  0.59146170  1
  O  O179  1  0.92376397  0.81329268  0.59056489  1
  O  O180  1  0.49420319  0.83685139  0.09590818  1
  O  O181  1  0.99138215  0.82352849  0.09192285  1
  O  O182  1  0.42160593  0.02977133  0.09179055  1
  O  O183  1  0.92329300  0.02409211  0.09209126  1
  O  O184  1  0.08632895  0.16050153  0.09323521  1
  O  O185  1  0.58810867  0.16651415  0.09005008  1
  O  O186  1  0.32232873  0.13406030  0.74173479  1
  O  O187  1  0.82322155  0.13394909  0.74145918  1
  O  O188  1  0.24130625  0.34709638  0.73987059  1
  O  O189  1  0.74200318  0.34834724  0.73946349  1
  O  O190  1  0.42733687  0.52106412  0.74307464  1
  O  O191  1  0.92838543  0.51887114  0.74159746  1
  O  O192  1  0.32356814  0.51179552  0.24175465  1
  O  O193  1  0.82558453  0.51408340  0.23901805  1
  O  O194  1  0.42653979  0.33204687  0.24307191  1
  O  O195  1  0.93071838  0.34310902  0.24002040  1
  O  O196  1  0.24103991  0.13597101  0.23921250  1
  O  O197  1  0.74276146  0.13879591  0.23909632  1
  O  O198  1  0.31673514  0.50817895  0.91007132  1
  O  O199  1  0.81340972  0.50513842  0.91043418  1
  O  O200  1  0.44183161  0.38129715  0.91153783  1
  O  O201  1  0.93998871  0.37410545  0.91086552  1
  O  O202  1  0.24688735  0.12021702  0.91066830  1
  O  O203  1  0.74416567  0.12338108  0.91178737  1
  O  O204  1  0.31582707  0.12502232  0.40827572  1
  O  O205  1  0.81650711  0.12617410  0.40837222  1
  O  O206  1  0.24415843  0.36667553  0.41005097  1
  O  O207  1  0.74433630  0.36596605  0.41024280  1
  O  O208  1  0.44257215  0.50207449  0.40995912  1
  O  O209  1  0.94207312  0.50205469  0.40983677  1
  O  O210  1  0.15839191  0.46288089  0.08283874  1
  O  O211  1  0.66171901  0.46458883  0.08092794  1
  O  O212  1  0.07194201  0.68174717  0.08215029  1
  O  O213  1  0.57928326  0.66437957  0.08177608  1
  O  O214  1  0.26999300  0.85638783  0.08083499  1
  O  O215  1  0.77309088  0.86057374  0.08222162  1
  O  O216  1  0.16040303  0.85687273  0.58097070  1
  O  O217  1  0.66030014  0.85620899  0.58122167  1
  O  O218  1  0.27406529  0.68763056  0.58019919  1
  O  O219  1  0.77339171  0.68636876  0.58021523  1
  O  O220  1  0.07984883  0.49313962  0.58163021  1
  O  O221  1  0.57965511  0.49323456  0.58148689  1
  O  O222  1  0.14419826  0.81169281  0.26041579  1
  O  O223  1  0.64678928  0.81555908  0.26119997  1
  O  O224  1  0.26037406  0.71083705  0.25895603  1
  O  O225  1  0.76053802  0.70889448  0.25931752  1
  O  O226  1  0.09400326  0.48008288  0.25966648  1
  O  O227  1  0.59211144  0.48230629  0.25985613  1
  O  O228  1  0.14516992  0.47874302  0.76137750  1
  O  O229  1  0.64490023  0.47748700  0.76146366  1
  O  O230  1  0.09216006  0.70602692  0.75984694  1
  O  O231  1  0.59282348  0.70413903  0.76064626  1
  O  O232  1  0.25945824  0.80985903  0.76076085  1
  O  O233  1  0.76087473  0.81039474  0.76045512  1
