# generated using pymatgen
data_MgFe4(OF)4
_symmetry_space_group_name_H-M   'P 1'
_cell_length_a   5.38218664
_cell_length_b   10.06000454
_cell_length_c   3.02920722
_cell_angle_alpha   90.45990854
_cell_angle_beta   90.43394414
_cell_angle_gamma   101.75340067
_symmetry_Int_Tables_number   1
_chemical_formula_structural   MgFe4(OF)4
_chemical_formula_sum   'Mg1 Fe4 O4 F4'
_cell_volume   160.56475096
_cell_formula_units_Z   1
loop_
 _symmetry_equiv_pos_site_id
 _symmetry_equiv_pos_as_xyz
  1  'x, y, z'
loop_
 _atom_site_type_symbol
 _atom_site_label
 _atom_site_symmetry_multiplicity
 _atom_site_fract_x
 _atom_site_fract_y
 _atom_site_fract_z
 _atom_site_occupancy
  Mg  Mg0  1  0.88440476  0.73716281  0.97947132  1
  Fe  Fe1  1  0.06380844  0.02172848  0.98460832  1
  Fe  Fe2  1  0.11186548  0.45368301  0.99444163  1
  Fe  Fe3  1  0.57501696  0.24971602  0.49168960  1
  Fe  Fe4  1  0.37855987  0.76496958  0.48125840  1
  O  O5  1  0.08378888  0.88890665  0.48211323  1
  O  O6  1  0.37980559  0.14064594  0.98697079  1
  O  O7  1  0.18176830  0.65097350  0.99274266  1
  O  O8  1  0.77632955  0.33622342  0.99643736  1
  F  F9  1  0.32490893  0.38073413  0.49491225  1
  F  F10  1  0.63487351  0.86743668  0.96762815  1
  F  F11  1  0.88962734  0.10799346  0.48490308  1
  F  F12  1  0.68746540  0.64982832  0.47532323  1
