# generated using pymatgen
data_NaHfSn(PO4)3
_symmetry_space_group_name_H-M   'P 1'
_cell_length_a   8.77267906
_cell_length_b   8.77267878
_cell_length_c   23.05116639
_cell_angle_alpha   90.00000000
_cell_angle_beta   90.00000000
_cell_angle_gamma   120.00000106
_symmetry_Int_Tables_number   1
_chemical_formula_structural   NaHfSn(PO4)3
_chemical_formula_sum   'Na6 Hf6 Sn6 P18 O72'
_cell_volume   1536.34234740
_cell_formula_units_Z   6
loop_
 _symmetry_equiv_pos_site_id
 _symmetry_equiv_pos_as_xyz
  1  'x, y, z'
loop_
 _atom_site_type_symbol
 _atom_site_label
 _atom_site_symmetry_multiplicity
 _atom_site_fract_x
 _atom_site_fract_y
 _atom_site_fract_z
 _atom_site_occupancy
  Na  Na0  1  0.00000000  0.00000000  0.50050866  1
  Na  Na1  1  0.00000000  0.00000000  0.00046132  1
  Na  Na2  1  0.66666700  0.33333300  0.83295360  1
  Na  Na3  1  0.66666700  0.33333300  0.33379002  1
  Na  Na4  1  0.33333300  0.66666700  0.16709756  1
  Na  Na5  1  0.33333300  0.66666700  0.66624599  1
  Hf  Hf6  1  0.00000000  0.00000000  0.35436255  1
  Hf  Hf7  1  0.00000000  0.00000000  0.85312443  1
  Hf  Hf8  1  0.66666700  0.33333300  0.18705063  1
  Hf  Hf9  1  0.66666700  0.33333300  0.98065930  1
  Hf  Hf10  1  0.33333300  0.66666700  0.02025955  1
  Hf  Hf11  1  0.33333300  0.66666700  0.81281629  1
  Sn  Sn12  1  0.00000000  0.00000000  0.64734087  1
  Sn  Sn13  1  0.00000000  0.00000000  0.14836287  1
  Sn  Sn14  1  0.66666700  0.33333300  0.68535437  1
  Sn  Sn15  1  0.66666700  0.33333300  0.48118915  1
  Sn  Sn16  1  0.33333300  0.66666700  0.51965133  1
  Sn  Sn17  1  0.33333300  0.66666700  0.31451212  1
  P  P18  1  0.28876165  0.99773958  0.25038358  1
  P  P19  1  0.70897793  0.71123835  0.25038358  1
  P  P20  1  0.00226042  0.29102207  0.25038358  1
  P  P21  1  0.29123265  0.28875108  0.74906953  1
  P  P22  1  0.99751843  0.70876735  0.74906953  1
  P  P23  1  0.71124892  0.00248157  0.74906953  1
  P  P24  1  0.95698987  0.33330311  0.58331813  1
  P  P25  1  0.37631424  0.04301013  0.58331813  1
  P  P26  1  0.66669689  0.62368576  0.58331813  1
  P  P27  1  0.95676905  0.62583355  0.08395984  1
  P  P28  1  0.66906549  0.04323095  0.08395984  1
  P  P29  1  0.37416645  0.33093451  0.08395984  1
  P  P30  1  0.62301923  0.66653770  0.91665890  1
  P  P31  1  0.04351747  0.37698077  0.91665890  1
  P  P32  1  0.33346230  0.95648253  0.91665890  1
  P  P33  1  0.62076686  0.95659984  0.41731626  1
  P  P34  1  0.33583198  0.37923314  0.41731626  1
  P  P35  1  0.04340016  0.66416802  0.41731626  1
  O  O36  1  0.20522357  0.02883704  0.30428757  1
  O  O37  1  0.82361348  0.79477643  0.30428757  1
  O  O38  1  0.97116296  0.17638652  0.30428757  1
  O  O39  1  0.20737658  0.17601609  0.80332695  1
  O  O40  1  0.96863951  0.79262342  0.80332695  1
  O  O41  1  0.82398391  0.03136049  0.80332695  1
  O  O42  1  0.78796232  0.96594880  0.69412543  1
  O  O43  1  0.17798648  0.21203768  0.69412543  1
  O  O44  1  0.03405120  0.82201352  0.69412543  1
  O  O45  1  0.78640207  0.82211861  0.19502365  1
  O  O46  1  0.03571654  0.21359793  0.19502365  1
  O  O47  1  0.17788139  0.96428346  0.19502365  1
  O  O48  1  0.87993070  0.36838768  0.63829219  1
  O  O49  1  0.48845798  0.12006930  0.63829219  1
  O  O50  1  0.63161232  0.51154202  0.63829219  1
  O  O51  1  0.87282368  0.51097949  0.13788273  1
  O  O52  1  0.63815682  0.12717632  0.13788273  1
  O  O53  1  0.48902051  0.36184318  0.13788273  1
  O  O54  1  0.45868453  0.30246514  0.02962102  1
  O  O55  1  0.84378160  0.54131547  0.02962102  1
  O  O56  1  0.69753486  0.15621840  0.02962102  1
  O  O57  1  0.45365199  0.15525329  0.52825105  1
  O  O58  1  0.70160230  0.54634801  0.52825105  1
  O  O59  1  0.84474671  0.29839770  0.52825105  1
  O  O60  1  0.53939830  0.69629180  0.97084573  1
  O  O61  1  0.15689250  0.46060170  0.97084573  1
  O  O62  1  0.30370820  0.84310750  0.97084573  1
  O  O63  1  0.54478486  0.84369795  0.47217188  1
  O  O64  1  0.29891209  0.45521514  0.47217188  1
  O  O65  1  0.15630205  0.70108791  0.47217188  1
  O  O66  1  0.12046916  0.63053168  0.36193484  1
  O  O67  1  0.51006151  0.87953084  0.36193484  1
  O  O68  1  0.36946832  0.48993849  0.36193484  1
  O  O69  1  0.12759287  0.49041734  0.86237647  1
  O  O70  1  0.36282348  0.87240713  0.86237647  1
  O  O71  1  0.50958266  0.63717652  0.86237647  1
  O  O72  1  0.02402611  0.82858741  0.40991604  1
  O  O73  1  0.80456131  0.97597389  0.40991604  1
  O  O74  1  0.17141259  0.19543869  0.40991604  1
  O  O75  1  0.02399258  0.19329844  0.90955827  1
  O  O76  1  0.16930586  0.97600742  0.90955827  1
  O  O77  1  0.80670156  0.83069414  0.90955827  1
  O  O78  1  0.97591480  0.16725070  0.58936553  1
  O  O79  1  0.19133590  0.02408520  0.58936553  1
  O  O80  1  0.83274930  0.80866410  0.58936553  1
  O  O81  1  0.97553288  0.81049091  0.08969991  1
  O  O82  1  0.83495803  0.02446712  0.08969991  1
  O  O83  1  0.18950909  0.16504197  0.08969991  1
  O  O84  1  0.69201285  0.16839052  0.74362527  1
  O  O85  1  0.47637867  0.30798715  0.74362527  1
  O  O86  1  0.83160948  0.52362133  0.74362527  1
  O  O87  1  0.69036529  0.52789161  0.24326236  1
  O  O88  1  0.83752732  0.30963471  0.24326236  1
  O  O89  1  0.47210839  0.16247268  0.24326236  1
  O  O90  1  0.64272546  0.50255349  0.92371534  1
  O  O91  1  0.85982903  0.35727454  0.92371534  1
  O  O92  1  0.49744651  0.14017097  0.92371534  1
  O  O93  1  0.64167221  0.14251238  0.42310290  1
  O  O94  1  0.50084118  0.35832779  0.42310290  1
  O  O95  1  0.85748762  0.49915882  0.42310290  1
  O  O96  1  0.35615081  0.49576471  0.07661745  1
  O  O97  1  0.13961290  0.64384919  0.07661745  1
  O  O98  1  0.50423529  0.86038710  0.07661745  1
  O  O99  1  0.35745787  0.85803956  0.57722188  1
  O  O100  1  0.50058069  0.64254213  0.57722188  1
  O  O101  1  0.14196044  0.49941931  0.57722188  1
  O  O102  1  0.30921273  0.83270422  0.25650163  1
  O  O103  1  0.52349049  0.69078727  0.25650163  1
  O  O104  1  0.16729578  0.47650951  0.25650163  1
  O  O105  1  0.31030651  0.47221505  0.75665414  1
  O  O106  1  0.16190754  0.68969349  0.75665414  1
  O  O107  1  0.52778495  0.83809246  0.75665414  1
