# generated using pymatgen
data_Ba(InS2)2
_symmetry_space_group_name_H-M   'P 1'
_cell_length_a   15.57690569
_cell_length_b   12.91379508
_cell_length_c   12.78763562
_cell_angle_alpha   74.62108549
_cell_angle_beta   53.06656716
_cell_angle_gamma   52.32563793
_symmetry_Int_Tables_number   1
_chemical_formula_structural   Ba(InS2)2
_chemical_formula_sum   'Ba8 In16 S32'
_cell_volume   1606.12439844
_cell_formula_units_Z   8
loop_
 _symmetry_equiv_pos_site_id
 _symmetry_equiv_pos_as_xyz
  1  'x, y, z'
loop_
 _atom_site_type_symbol
 _atom_site_label
 _atom_site_symmetry_multiplicity
 _atom_site_fract_x
 _atom_site_fract_y
 _atom_site_fract_z
 _atom_site_occupancy
  Ba  Ba0  1  0.49753947  0.49749814  0.00244457  1
  Ba  Ba1  1  0.00247193  0.00249216  0.49754121  1
  Ba  Ba2  1  0.75246104  0.75250156  0.24755443  1
  Ba  Ba3  1  0.24752827  0.24750707  0.75245890  1
  Ba  Ba4  1  0.24999140  0.25000951  0.25000915  1
  Ba  Ba5  1  0.00000831  0.99999012  0.99999073  1
  Ba  Ba6  1  0.74999036  0.75000704  0.75000874  1
  Ba  Ba7  1  0.50000959  0.49999242  0.49999166  1
  In  In8  1  0.23648575  0.51246255  0.48775408  1
  In  In9  1  0.76333920  0.48774094  0.51242717  1
  In  In10  1  0.48775425  0.76332293  0.23646958  1
  In  In11  1  0.51240709  0.23648498  0.76335578  1
  In  In12  1  0.01351444  0.73753765  0.76224567  1
  In  In13  1  0.48665875  0.76226078  0.73757344  1
  In  In14  1  0.76224587  0.48667670  0.01353038  1
  In  In15  1  0.73759354  0.01351452  0.48664398  1
  In  In16  1  0.58914552  0.16063678  0.26794800  1
  In  In17  1  0.98228077  0.26793597  0.16065130  1
  In  In18  1  0.26794253  0.98226715  0.58913598  1
  In  In19  1  0.16062920  0.58914211  0.98228985  1
  In  In20  1  0.66085476  0.08936259  0.98205175  1
  In  In21  1  0.26771910  0.98206449  0.08935099  1
  In  In22  1  0.98205720  0.26773275  0.66086314  1
  In  In23  1  0.08937097  0.66085788  0.26771006  1
  S  S24  1  0.30945202  0.43825939  0.77785976  1
  S  S25  1  0.47443723  0.77781693  0.43825813  1
  S  S26  1  0.77787602  0.47444469  0.30945807  1
  S  S27  1  0.43820247  0.30947568  0.47446211  1
  S  S28  1  0.94054823  0.81174039  0.47214025  1
  S  S29  1  0.77556252  0.47218205  0.81174277  1
  S  S30  1  0.47212293  0.77555611  0.94054218  1
  S  S31  1  0.81179790  0.94052422  0.77553736  1
  S  S32  1  0.97222416  0.78000064  0.96736883  1
  S  S33  1  0.28037686  0.96735954  0.78000824  1
  S  S34  1  0.96736093  0.28041698  0.97225363  1
  S  S35  1  0.77999957  0.97226354  0.28039245  1
  S  S36  1  0.27777587  0.46999953  0.28263094  1
  S  S37  1  0.96962143  0.28264115  0.46999205  1
  S  S38  1  0.28263895  0.96958280  0.27774721  1
  S  S39  1  0.47000058  0.27773571  0.96960764  1
  S  S40  1  0.20963906  0.20815438  0.04036080  1
  S  S41  1  0.54186262  0.04035995  0.20812381  1
  S  S42  1  0.04035104  0.54185506  0.20963597  1
  S  S43  1  0.20815412  0.20962056  0.54187594  1
  S  S44  1  0.04036098  0.04184592  0.20963930  1
  S  S45  1  0.70813750  0.20963943  0.04187598  1
  S  S46  1  0.20964905  0.70814491  0.04036400  1
  S  S47  1  0.04184573  0.04037934  0.70812316  1
  S  S48  1  0.54279775  0.54022221  0.70760093  1
  S  S49  1  0.20934822  0.70764393  0.54024145  1
  S  S50  1  0.70761904  0.20936184  0.54285682  1
  S  S51  1  0.54019841  0.54282116  0.20930746  1
  S  S52  1  0.70720143  0.70977857  0.54239954  1
  S  S53  1  0.04065189  0.54235627  0.70975831  1
  S  S54  1  0.54238165  0.04063755  0.70714302  1
  S  S55  1  0.70980154  0.70717877  0.04069239  1
