# generated using pymatgen
data_Na5La2SiSn2P5O24
_symmetry_space_group_name_H-M   'P 1'
_cell_length_a   9.30006317
_cell_length_b   9.31674099
_cell_length_c   23.51100728
_cell_angle_alpha   89.95708808
_cell_angle_beta   89.89172831
_cell_angle_gamma   120.51032125
_symmetry_Int_Tables_number   1
_chemical_formula_structural   Na5La2SiSn2P5O24
_chemical_formula_sum   'Na15 La6 Si3 Sn6 P15 O72'
_cell_volume   1755.06749546
_cell_formula_units_Z   3
loop_
 _symmetry_equiv_pos_site_id
 _symmetry_equiv_pos_as_xyz
  1  'x, y, z'
loop_
 _atom_site_type_symbol
 _atom_site_label
 _atom_site_symmetry_multiplicity
 _atom_site_fract_x
 _atom_site_fract_y
 _atom_site_fract_z
 _atom_site_occupancy
  Na  Na0  1  0.99903182  0.64097162  0.24898042  1
  Na  Na1  1  0.63204132  0.64091075  0.74870076  1
  Na  Na2  1  0.37554861  -0.00033215  0.74879481  1
  Na  Na3  1  0.66427455  0.97092518  0.58691749  1
  Na  Na4  1  0.30013153  0.96884244  0.08102361  1
  Na  Na5  1  0.67703640  0.69592191  0.08000159  1
  Na  Na6  1  0.02790046  0.33448230  0.08240705  1
  Na  Na7  1  0.96480899  0.30199420  0.41912283  1
  Na  Na8  1  0.33940415  0.03532128  0.42167265  1
  Na  Na9  1  0.00803173  0.99145941  0.50421681  1
  Na  Na10  1  0.00021517  0.99246343  0.99189180  1
  Na  Na11  1  0.67957142  0.32940105  0.83435358  1
  Na  Na12  1  0.65527160  0.33387881  0.33064864  1
  Na  Na13  1  0.34039775  0.66604756  0.16849023  1
  Na  Na14  1  0.31957610  0.65595277  0.66362900  1
  La  La15  1  0.99134258  0.99372944  0.34844780  1
  La  La16  1  0.00135494  0.00349758  0.15565990  1
  La  La17  1  0.66938033  0.33835459  0.97663340  1
  La  La18  1  0.66105023  0.34156082  0.49367282  1
  La  La19  1  0.34779110  0.66760833  0.31501973  1
  La  La20  1  0.32603021  0.66111885  0.81142952  1
  Si  Si21  1  0.72457100  0.01607151  0.74640120  1
  Si  Si22  1  0.35573669  0.02328006  0.58533560  1
  Si  Si23  1  0.97324996  0.62963129  0.08348669  1
  Sn  Sn24  1  0.99607128  0.00263512  0.85117552  1
  Sn  Sn25  1  0.00470112  0.00364852  0.64924373  1
  Sn  Sn26  1  0.67132164  0.32896438  0.68224709  1
  Sn  Sn27  1  0.66760474  0.33013641  0.17943450  1
  Sn  Sn28  1  0.32846896  0.66656834  0.01144905  1
  Sn  Sn29  1  0.33154102  0.66519820  0.52238054  1
  P  P30  1  0.32302951  0.01362810  0.24678626  1
  P  P31  1  0.69073694  0.67151425  0.24230853  1
  P  P32  1  0.98362837  0.31090100  0.24678696  1
  P  P33  1  0.29407037  0.27782793  0.74698434  1
  P  P34  1  0.98530395  0.71198243  0.74689116  1
  P  P35  1  0.97271774  0.33290000  0.58539672  1
  P  P36  1  0.66655261  0.64162722  0.58970124  1
  P  P37  1  0.65309157  0.02870624  0.08269540  1
  P  P38  1  0.37676408  0.34742577  0.08320633  1
  P  P39  1  0.63881643  0.68715117  0.91522343  1
  P  P40  1  0.04441262  0.35462591  0.91732303  1
  P  P41  1  0.31119814  0.95613813  0.91386694  1
  P  P42  1  0.62954583  0.96295260  0.42463622  1
  P  P43  1  0.32782277  0.37031187  0.42272090  1
  P  P44  1  0.04645863  0.66827936  0.41959723  1
  O  O45  1  0.24083337  0.03465608  0.30147554  1
  O  O46  1  0.80491220  0.76047712  0.29446632  1
  O  O47  1  0.96786554  0.20911288  0.30113753  1
  O  O48  1  0.21464893  0.16930015  0.80137941  1
  O  O49  1  0.95517224  0.78805147  0.80168352  1
  O  O50  1  0.83511725  0.03677592  0.80370215  1
  O  O51  1  0.80750841  0.98516267  0.69002009  1
  O  O52  1  0.18690854  0.19442118  0.69439073  1
  O  O53  1  0.01378400  0.82311285  0.69484065  1
  O  O54  1  0.76881854  0.76886624  0.18734292  1
  O  O55  1  0.00522031  0.23334503  0.19237151  1
  O  O56  1  0.21698820  0.98863886  0.19338729  1
  O  O57  1  0.88174007  0.36613489  0.63555964  1
  O  O58  1  0.49284844  0.12087868  0.63864313  1
  O  O59  1  0.64048506  0.52580060  0.64219751  1
  O  O60  1  0.88920627  0.50908128  0.14152522  1
  O  O61  1  0.61928307  0.10941539  0.13631134  1
  O  O62  1  0.48985154  0.37424406  0.13665510  1
  O  O63  1  0.44586756  0.30439567  0.03180080  1
  O  O64  1  0.84596186  0.54746929  0.03209892  1
  O  O65  1  0.68837547  0.13919985  0.03124827  1
  O  O66  1  0.42049147  0.12004657  0.52552535  1
  O  O67  1  0.70300896  0.57846324  0.53550760  1
  O  O68  1  0.87266455  0.29418869  0.53009222  1
  O  O69  1  0.54843010  0.70229534  0.97153294  1
  O  O70  1  0.14597768  0.44080945  0.97433621  1
  O  O71  1  0.29350496  0.85020639  0.97016895  1
  O  O72  1  0.53841284  0.85580708  0.47889174  1
  O  O73  1  0.31482649  0.46869641  0.47501247  1
  O  O74  1  0.16232084  0.68433350  0.47092888  1
  O  O75  1  0.11903495  0.65359638  0.36242278  1
  O  O76  1  0.52888089  0.88316179  0.37064552  1
  O  O77  1  0.34221678  0.46198842  0.36732969  1
  O  O78  1  0.13065584  0.46224765  0.86595588  1
  O  O79  1  0.33176015  0.87632382  0.86029047  1
  O  O80  1  0.54080863  0.67010990  0.86141594  1
  O  O81  1  0.04073118  0.83231763  0.42041271  1
  O  O82  1  0.80634952  0.98562090  0.42248990  1
  O  O83  1  0.16175173  0.19801212  0.42265987  1
  O  O84  1  0.03941602  0.18438218  0.91374884  1
  O  O85  1  0.14567520  0.96276472  0.91065255  1
  O  O86  1  0.81376279  0.85095167  0.91366602  1
  O  O87  1  0.98429139  0.17390803  0.59570609  1
  O  O88  1  0.17070483  0.00070359  0.59521864  1
  O  O89  1  0.81549465  0.82349007  0.59666276  1
  O  O90  1  0.01155351  0.82069412  0.08884776  1
  O  O91  1  0.80164632  0.00085476  0.09020223  1
  O  O92  1  0.19487116  0.20440642  0.09062424  1
  O  O93  1  0.69676268  0.18054725  0.74199060  1
  O  O94  1  0.47116723  0.29148289  0.74156016  1
  O  O95  1  0.81974582  0.53666070  0.74021221  1
  O  O96  1  0.68888274  0.50308577  0.24034975  1
  O  O97  1  0.82029265  0.31968488  0.24341615  1
  O  O98  1  0.49597753  0.17492673  0.24032425  1
  O  O99  1  0.66033567  0.53580060  0.91903132  1
  O  O100  1  0.86835543  0.32710011  0.91995851  1
  O  O101  1  0.46183617  0.13127811  0.91879024  1
  O  O102  1  0.64725039  0.13777287  0.42680356  1
  O  O103  1  0.47566903  0.33958264  0.42427089  1
  O  O104  1  0.87501323  0.50779842  0.42481303  1
  O  O105  1  0.37501422  0.51571296  0.07651175  1
  O  O106  1  0.15612947  0.63458991  0.07486407  1
  O  O107  1  0.48831857  0.85306558  0.07618735  1
  O  O108  1  0.35602774  0.84283465  0.58158186  1
  O  O109  1  0.50608111  0.65709278  0.58374999  1
  O  O110  1  0.15006539  0.49138181  0.58055384  1
  O  O111  1  0.33397015  0.85432452  0.24973694  1
  O  O112  1  0.51616632  0.64659687  0.24640957  1
  O  O113  1  0.13204635  0.49170017  0.24932370  1
  O  O114  1  0.32670257  0.45647234  0.74902591  1
  O  O115  1  0.14151226  0.69636789  0.74940308  1
  O  O116  1  0.53646403  0.84976849  0.74761843  1
