# generated using pymatgen
data_NdMgCu(WO4)2
_symmetry_space_group_name_H-M   'P 1'
_cell_length_a   5.31991260
_cell_length_b   6.00797468
_cell_length_c   6.51497449
_cell_angle_alpha   104.16316221
_cell_angle_beta   92.60874556
_cell_angle_gamma   112.98295067
_symmetry_Int_Tables_number   1
_chemical_formula_structural   NdMgCu(WO4)2
_chemical_formula_sum   'Nd1 Mg1 Cu1 W2 O8'
_cell_volume   183.53929652
_cell_formula_units_Z   1
loop_
 _symmetry_equiv_pos_site_id
 _symmetry_equiv_pos_as_xyz
  1  'x, y, z'
loop_
 _atom_site_type_symbol
 _atom_site_label
 _atom_site_symmetry_multiplicity
 _atom_site_fract_x
 _atom_site_fract_y
 _atom_site_fract_z
 _atom_site_occupancy
  Nd  Nd0  1  0.37125500  0.89863000  0.27472900  1
  Mg  Mg1  1  0.37072800  0.89838800  0.77487100  1
  Cu  Cu2  1  0.87065300  0.89827200  0.77431800  1
  W  W3  1  0.09302700  0.36456600  0.61332300  1
  W  W4  1  0.64918100  0.43224300  0.93573300  1
  O  O5  1  0.86315800  0.14043500  0.37307800  1
  O  O6  1  0.33877400  0.64505800  0.50478400  1
  O  O7  1  0.82947000  0.19299200  0.81820600  1
  O  O8  1  0.38363400  0.60955100  0.92173700  1
  O  O9  1  0.40380400  0.15222500  0.04483300  1
  O  O10  1  0.87978000  0.65656100  0.17586800  1
  O  O11  1  0.35862500  0.18749500  0.62766400  1
  O  O12  1  0.91275900  0.60401500  0.73079900  1
