# generated using pymatgen
data_PdSeO4
_symmetry_space_group_name_H-M   'P 1'
_cell_length_a   5.12259622
_cell_length_b   5.12259622
_cell_length_c   7.91040918
_cell_angle_alpha   83.32032586
_cell_angle_beta   83.32032586
_cell_angle_gamma   77.93480591
_symmetry_Int_Tables_number   1
_chemical_formula_structural   PdSeO4
_chemical_formula_sum   'Pd2 Se2 O8'
_cell_volume   200.70719339
_cell_formula_units_Z   2
loop_
 _symmetry_equiv_pos_site_id
 _symmetry_equiv_pos_as_xyz
  1  'x, y, z'
loop_
 _atom_site_type_symbol
 _atom_site_label
 _atom_site_symmetry_multiplicity
 _atom_site_fract_x
 _atom_site_fract_y
 _atom_site_fract_z
 _atom_site_occupancy
  Pd  Pd0  1  0.00000000  0.50000000  0.50000000  1
  Pd  Pd1  1  0.50000000  -0.00000000  0.00000000  1
  Se  Se2  1  0.93129272  0.06870728  0.25000000  1
  Se  Se3  1  0.06870728  0.93129272  0.75000000  1
  O  O4  1  0.11404319  0.25242284  0.71042584  1
  O  O5  1  0.79957298  0.23783460  0.42302405  1
  O  O6  1  0.20042702  0.76216540  0.57697595  1
  O  O7  1  0.25242284  0.11404319  0.21042584  1
  O  O8  1  0.74757716  0.88595681  0.78957416  1
  O  O9  1  0.76216540  0.20042702  0.07697595  1
  O  O10  1  0.23783460  0.79957298  0.92302405  1
  O  O11  1  0.88595681  0.74757716  0.28957416  1
