# generated using pymatgen
data_Na4Ti2Nb2Si5SO24
_symmetry_space_group_name_H-M   'P 1'
_cell_length_a   8.92811395
_cell_length_b   8.92495012
_cell_length_c   22.47991185
_cell_angle_alpha   89.95260244
_cell_angle_beta   90.00136286
_cell_angle_gamma   119.85038850
_symmetry_Int_Tables_number   1
_chemical_formula_structural   Na4Ti2Nb2Si5SO24
_chemical_formula_sum   'Na12 Ti6 Nb6 Si15 S3 O72'
_cell_volume   1553.61472592
_cell_formula_units_Z   3
loop_
 _symmetry_equiv_pos_site_id
 _symmetry_equiv_pos_as_xyz
  1  'x, y, z'
loop_
 _atom_site_type_symbol
 _atom_site_label
 _atom_site_symmetry_multiplicity
 _atom_site_fract_x
 _atom_site_fract_y
 _atom_site_fract_z
 _atom_site_occupancy
  Na  Na0  1  0.63847709  0.00003569  0.25074756  1
  Na  Na1  1  0.99672597  0.36390860  0.75004116  1
  Na  Na2  1  0.29881605  0.33714536  0.58052517  1
  Na  Na3  1  0.66755115  0.96907775  0.57981593  1
  Na  Na4  1  0.03194695  0.33160350  0.08465246  1
  Na  Na5  1  0.96452898  0.66828776  0.91363605  1
  Na  Na6  1  0.99930601  0.99504398  0.49084383  1
  Na  Na7  1  0.98758971  0.99592312  0.00164313  1
  Na  Na8  1  0.64604029  0.32515082  0.83641496  1
  Na  Na9  1  0.66086001  0.34178665  0.33425685  1
  Na  Na10  1  0.32924101  0.67391039  0.16365981  1
  Na  Na11  1  0.32834113  0.67903101  0.66297355  1
  Ti  Ti12  1  0.99945216  0.01079265  0.35183868  1
  Ti  Ti13  1  0.98782142  0.00583404  0.85388143  1
  Ti  Ti14  1  0.98782427  0.98400889  0.14776508  1
  Ti  Ti15  1  0.69250317  0.34740371  0.98047469  1
  Ti  Ti16  1  0.34398530  0.66941438  0.02073834  1
  Ti  Ti17  1  0.34131141  0.66237027  0.51974748  1
  Nb  Nb18  1  0.99816908  0.99430690  0.64514052  1
  Nb  Nb19  1  0.66489211  0.33569288  0.68907717  1
  Nb  Nb20  1  0.67349598  0.33122281  0.18948912  1
  Nb  Nb21  1  0.65805312  0.32470397  0.47707637  1
  Nb  Nb22  1  0.34010588  0.66643532  0.30933097  1
  Nb  Nb23  1  0.33693308  0.65779289  0.81114368  1
  Si  Si24  1  0.27768334  0.00106353  0.25025066  1
  Si  Si25  1  0.72213357  0.71338011  0.25197670  1
  Si  Si26  1  0.00838732  0.28605297  0.24694723  1
  Si  Si27  1  0.28488872  0.27610277  0.75201784  1
  Si  Si28  1  0.00028442  0.71613334  0.75462711  1
  Si  Si29  1  0.70758437  0.99731789  0.74985973  1
  Si  Si30  1  0.96000472  0.34210371  0.58308931  1
  Si  Si31  1  0.37570679  0.03852301  0.58325878  1
  Si  Si32  1  0.67039588  0.62239496  0.58093005  1
  Si  Si33  1  0.96378259  0.63192341  0.08234067  1
  Si  Si34  1  0.66471270  0.03985902  0.08162801  1
  Si  Si35  1  0.62608462  0.66441147  0.91946271  1
  Si  Si36  1  0.04925901  0.37337417  0.91935505  1
  Si  Si37  1  0.62762831  0.95172216  0.41678947  1
  Si  Si38  1  0.32778102  0.37256537  0.41729153  1
  S  S39  1  0.38082358  0.33360284  0.08123837  1
  S  S40  1  0.33530155  0.95533315  0.91821263  1
  S  S41  1  0.04866226  0.66747082  0.41787351  1
  O  O42  1  0.18976721  0.03027042  0.30906035  1
  O  O43  1  0.83586235  0.80419774  0.31031380  1
  O  O44  1  0.96274039  0.16067583  0.30537439  1
  O  O45  1  0.18570823  0.15950646  0.80907300  1
  O  O46  1  0.97370344  0.80272289  0.81370950  1
  O  O47  1  0.83484129  0.03253684  0.80682472  1
  O  O48  1  0.79460816  0.97040659  0.68948039  1
  O  O49  1  0.16797955  0.20110947  0.69124485  1
  O  O50  1  0.02573666  0.83596691  0.69517576  1
  O  O51  1  0.80074173  0.83862330  0.19313613  1
  O  O52  1  0.03088005  0.20324405  0.18602975  1
  O  O53  1  0.15707078  0.97140228  0.19194693  1
  O  O54  1  0.86925531  0.36398455  0.64375119  1
  O  O55  1  0.50445547  0.13585199  0.64015778  1
  O  O56  1  0.63487420  0.49780974  0.63930237  1
  O  O57  1  0.85551859  0.49585861  0.13752468  1
  O  O58  1  0.63721901  0.12972681  0.14245545  1
  O  O59  1  0.48365758  0.35569270  0.13624592  1
  O  O60  1  0.46851147  0.31779282  0.02814839  1
  O  O61  1  0.84532788  0.53903722  0.02195681  1
  O  O62  1  0.69035342  0.17585347  0.02711177  1
  O  O63  1  0.46570989  0.16815139  0.52565580  1
  O  O64  1  0.69747712  0.52834829  0.52397779  1
  O  O65  1  0.82707570  0.30099683  0.52750776  1
  O  O66  1  0.52369554  0.69167423  0.97513106  1
  O  O67  1  0.16592119  0.47586442  0.97704534  1
  O  O68  1  0.30925839  0.84353993  0.97075872  1
  O  O69  1  0.52349165  0.83553041  0.47578677  1
  O  O70  1  0.30959667  0.46813037  0.47765418  1
  O  O71  1  0.15207943  0.68302983  0.47146823  1
  O  O72  1  0.12983209  0.64568953  0.36324344  1
  O  O73  1  0.50661366  0.86456824  0.35752767  1
  O  O74  1  0.34960800  0.49960795  0.36076583  1
  O  O75  1  0.13373557  0.49855980  0.85963036  1
  O  O76  1  0.35991574  0.87388214  0.86337142  1
  O  O77  1  0.50170114  0.64425077  0.86113512  1
  O  O78  1  0.02990645  0.82171488  0.41433773  1
  O  O79  1  0.81530603  0.96677843  0.41263760  1
  O  O80  1  0.15954031  0.18216771  0.41183764  1
  O  O81  1  0.02868684  0.18277778  0.91257653  1
  O  O82  1  0.17618038  0.96624802  0.91381788  1
  O  O83  1  0.81999744  0.83175212  0.91283732  1
  O  O84  1  0.97579436  0.16541758  0.58902615  1
  O  O85  1  0.19083772  0.03292372  0.58913193  1
  O  O86  1  0.83475330  0.81756385  0.58705753  1
  O  O87  1  0.97919655  0.82003121  0.08859272  1
  O  O88  1  0.84579319  0.03727378  0.08621245  1
  O  O89  1  0.20599559  0.18207812  0.08497703  1
  O  O90  1  0.69932743  0.17546415  0.74504785  1
  O  O91  1  0.47830544  0.30465087  0.74581910  1
  O  O92  1  0.83321952  0.52119631  0.74512069  1
  O  O93  1  0.69017361  0.51891178  0.24209510  1
  O  O94  1  0.82809144  0.29983996  0.24265847  1
  O  O95  1  0.47619699  0.16735172  0.24178064  1
  O  O96  1  0.64187443  0.48978168  0.92401990  1
  O  O97  1  0.85724330  0.36079948  0.92391241  1
  O  O98  1  0.48995032  0.12921971  0.92358858  1
  O  O99  1  0.64610362  0.14594179  0.42271194  1
  O  O100  1  0.50847636  0.36395752  0.42086283  1
  O  O101  1  0.87433710  0.50738000  0.42141088  1
  O  O102  1  0.36138640  0.49219253  0.07845790  1
  O  O103  1  0.14677295  0.63326699  0.07742330  1
  O  O104  1  0.49274111  0.84992795  0.07427630  1
  O  O105  1  0.36361462  0.85361929  0.57647258  1
  O  O106  1  0.49717669  0.64135830  0.57683928  1
  O  O107  1  0.15320825  0.50534697  0.57675618  1
  O  O108  1  0.31008137  0.83442452  0.25712920  1
  O  O109  1  0.52923056  0.69989300  0.25688800  1
  O  O110  1  0.16979586  0.48085346  0.25641167  1
  O  O111  1  0.29860475  0.46868215  0.75805700  1
  O  O112  1  0.16859214  0.68794377  0.75793007  1
  O  O113  1  0.51664089  0.82962206  0.75720688  1
