# generated using pymatgen
data_Na3Y3TaP5SO24
_symmetry_space_group_name_H-M   'P 1'
_cell_length_a   9.11300639
_cell_length_b   9.12047336
_cell_length_c   23.73359139
_cell_angle_alpha   89.93533129
_cell_angle_beta   90.15024789
_cell_angle_gamma   120.24633117
_symmetry_Int_Tables_number   1
_chemical_formula_structural   Na3Y3TaP5SO24
_chemical_formula_sum   'Na9 Y9 Ta3 P15 S3 O72'
_cell_volume   1704.07332580
_cell_formula_units_Z   3
loop_
 _symmetry_equiv_pos_site_id
 _symmetry_equiv_pos_as_xyz
  1  'x, y, z'
loop_
 _atom_site_type_symbol
 _atom_site_label
 _atom_site_symmetry_multiplicity
 _atom_site_fract_x
 _atom_site_fract_y
 _atom_site_fract_z
 _atom_site_occupancy
  Na  Na0  1  0.64747128  0.64380954  0.74966801  1
  Na  Na1  1  0.30127597  0.96149208  0.08369421  1
  Na  Na2  1  0.33212159  0.02222658  0.41470535  1
  Na  Na3  1  0.98144073  0.99933152  0.50104013  1
  Na  Na4  1  0.98802056  0.99960948  0.99838188  1
  Na  Na5  1  0.66558406  0.32138914  0.83245514  1
  Na  Na6  1  0.66494875  0.33321059  0.32925969  1
  Na  Na7  1  0.33162697  0.66230357  0.16783516  1
  Na  Na8  1  0.31978404  0.65766444  0.66321284  1
  Y  Y9  1  0.99945621  0.00222896  0.35192707  1
  Y  Y10  1  0.00452545  0.00350958  0.85276247  1
  Y  Y11  1  0.99585514  0.00187317  0.64908517  1
  Y  Y12  1  0.99830433  0.99939681  0.14429124  1
  Y  Y13  1  0.67071204  0.33011441  0.68664533  1
  Y  Y14  1  0.66349212  0.33046634  0.18510450  1
  Y  Y15  1  0.33463990  0.65966691  0.01771663  1
  Y  Y16  1  0.33501932  0.65880785  0.51774048  1
  Y  Y17  1  0.33373142  0.67107753  0.31921240  1
  Ta  Ta18  1  0.66926859  0.33668741  0.97867809  1
  Ta  Ta19  1  0.67906424  0.34568083  0.48257364  1
  Ta  Ta20  1  0.32762170  0.66554844  0.81870573  1
  P  P21  1  0.29700163  0.99699048  0.25004826  1
  P  P22  1  0.29647917  0.30633925  0.75259663  1
  P  P23  1  0.00910425  0.70722685  0.75236643  1
  P  P24  1  0.69340729  0.98965107  0.75389264  1
  P  P25  1  0.95635533  0.33052614  0.58198072  1
  P  P26  1  0.67051107  0.62487682  0.58396080  1
  P  P27  1  0.95351366  0.62192088  0.08042866  1
  P  P28  1  0.66960980  0.05038095  0.07928085  1
  P  P29  1  0.38113609  0.33145493  0.08010971  1
  P  P30  1  0.62225039  0.65724969  0.91612767  1
  P  P31  1  0.03377573  0.37778472  0.91707767  1
  P  P32  1  0.34380894  0.96379236  0.91875875  1
  P  P33  1  0.63229017  0.97430310  0.42056109  1
  P  P34  1  0.34264203  0.36816460  0.41862539  1
  P  P35  1  0.03375926  0.66383065  0.41887619  1
  S  S36  1  0.70119871  0.70354672  0.25008348  1
  S  S37  1  0.00244123  0.29913082  0.24974469  1
  S  S38  1  0.37593406  0.04489034  0.58012657  1
  O  O39  1  0.20815500  0.01110207  0.30369351  1
  O  O40  1  0.80014289  0.78833666  0.30104077  1
  O  O41  1  0.98288213  0.19806914  0.30056013  1
  O  O42  1  0.21680520  0.19565246  0.80372888  1
  O  O43  1  0.97466886  0.78845297  0.80260813  1
  O  O44  1  0.80522334  0.01613694  0.80447722  1
  O  O45  1  0.76247983  0.94505636  0.70067698  1
  O  O46  1  0.19066141  0.23286903  0.69851370  1
  O  O47  1  0.04472516  0.81344241  0.69836954  1
  O  O48  1  0.78473553  0.80498606  0.19892993  1
  O  O49  1  0.01481954  0.21289235  0.19853606  1
  O  O50  1  0.19355982  0.98375591  0.19571837  1
  O  O51  1  0.87034785  0.34472209  0.63467782  1
  O  O52  1  0.47479555  0.12596351  0.63108897  1
  O  O53  1  0.65219268  0.52725619  0.63819096  1
  O  O54  1  0.87256033  0.52177512  0.13372660  1
  O  O55  1  0.64491360  0.12892044  0.13251643  1
  O  O56  1  0.47977921  0.34961886  0.13380807  1
  O  O57  1  0.48437182  0.31931185  0.02723238  1
  O  O58  1  0.83991578  0.51928759  0.02691936  1
  O  O59  1  0.68212422  0.16550418  0.02635348  1
  O  O60  1  0.46847347  0.14946988  0.52836108  1
  O  O61  1  0.67670026  0.51334354  0.53176035  1
  O  O62  1  0.83963666  0.32102270  0.52903497  1
  O  O63  1  0.54239613  0.68306119  0.96823883  1
  O  O64  1  0.13789638  0.45700859  0.96957227  1
  O  O65  1  0.31905021  0.86468735  0.97267087  1
  O  O66  1  0.54702764  0.86380336  0.47153502  1
  O  O67  1  0.31168709  0.44745229  0.46996201  1
  O  O68  1  0.14871845  0.69663575  0.46947415  1
  O  O69  1  0.10077865  0.62299110  0.36559351  1
  O  O70  1  0.51643867  0.90392776  0.36785879  1
  O  O71  1  0.37659901  0.47490714  0.36529216  1
  O  O72  1  0.13269006  0.49806541  0.86486792  1
  O  O73  1  0.36409613  0.86205166  0.86702397  1
  O  O74  1  0.50397796  0.63258278  0.86300995  1
  O  O75  1  0.01126594  0.81855626  0.41182837  1
  O  O76  1  0.81056516  0.00317709  0.41258860  1
  O  O77  1  0.19526767  0.18324430  0.41270134  1
  O  O78  1  0.00544497  0.20125515  0.90859070  1
  O  O79  1  0.19484856  0.99095747  0.90909470  1
  O  O80  1  0.80020137  0.80557432  0.90818059  1
  O  O81  1  0.96499021  0.16672548  0.58099714  1
  O  O82  1  0.20954431  0.03491353  0.58174008  1
  O  O83  1  0.83684622  0.79624464  0.58200682  1
  O  O84  1  0.96807885  0.79879183  0.08032994  1
  O  O85  1  0.83023095  0.03678208  0.08026567  1
  O  O86  1  0.21060002  0.16011728  0.07989410  1
  O  O87  1  0.66184741  0.13771536  0.74662376  1
  O  O88  1  0.48222278  0.34669058  0.74639977  1
  O  O89  1  0.85137655  0.52833053  0.74626705  1
  O  O90  1  0.68763669  0.53520741  0.24733678  1
  O  O91  1  0.85153370  0.31954674  0.24703295  1
  O  O92  1  0.47545788  0.15832389  0.24850520  1
  O  O93  1  0.63211302  0.48910409  0.92428455  1
  O  O94  1  0.85677916  0.36921553  0.92333097  1
  O  O95  1  0.51235387  0.14296434  0.92399137  1
  O  O96  1  0.64384537  0.15363115  0.43125421  1
  O  O97  1  0.50436717  0.34656323  0.43021192  1
  O  O98  1  0.85057992  0.50315563  0.43055979  1
  O  O99  1  0.35540488  0.48322494  0.07591992  1
  O  O100  1  0.13471752  0.65135132  0.07567377  1
  O  O101  1  0.50572295  0.87697814  0.07406333  1
  O  O102  1  0.35750194  0.87577115  0.57565272  1
  O  O103  1  0.51372242  0.64301650  0.57717056  1
  O  O104  1  0.12980427  0.49082587  0.57651193  1
  O  O105  1  0.31339300  0.83572735  0.25315640  1
  O  O106  1  0.52972386  0.68388776  0.25347557  1
  O  O107  1  0.15880244  0.46775260  0.25325932  1
  O  O108  1  0.31449732  0.48874923  0.76459709  1
  O  O109  1  0.16924580  0.68657440  0.76589299  1
  O  O110  1  0.51365607  0.82177458  0.76564555  1
