# generated using pymatgen
data_Na10Zr4Zn4Si5S7O48
_symmetry_space_group_name_H-M   'P 1'
_cell_length_a   18.15938280
_cell_length_b   9.14674151
_cell_length_c   22.97498744
_cell_angle_alpha   89.90378612
_cell_angle_beta   88.37406783
_cell_angle_gamma   120.22558459
_symmetry_Int_Tables_number   1
_chemical_formula_structural   Na10Zr4Zn4Si5S7O48
_chemical_formula_sum   'Na30 Zr12 Zn12 Si15 S21 O144'
_cell_volume   3295.43399295
_cell_formula_units_Z   3
loop_
 _symmetry_equiv_pos_site_id
 _symmetry_equiv_pos_as_xyz
  1  'x, y, z'
loop_
 _atom_site_type_symbol
 _atom_site_label
 _atom_site_symmetry_multiplicity
 _atom_site_fract_x
 _atom_site_fract_y
 _atom_site_fract_z
 _atom_site_occupancy
  Na  Na0  1  0.32390668  0.02728563  0.25018025  1
  Na  Na1  1  0.67662421  0.34779700  0.25168773  1
  Na  Na2  1  0.99706275  0.63219341  0.24237085  1
  Na  Na3  1  0.49777051  0.62371252  0.24147716  1
  Na  Na4  1  0.32196236  0.61873968  0.75247700  1
  Na  Na5  1  0.82194615  0.61833872  0.75155515  1
  Na  Na6  1  0.99634685  0.37027953  0.74081385  1
  Na  Na7  1  0.49680780  0.37034171  0.74146763  1
  Na  Na8  1  0.17715896  0.00867131  0.75054373  1
  Na  Na9  1  0.67795936  0.00937169  0.74990351  1
  Na  Na10  1  0.33335038  0.96869872  0.57555935  1
  Na  Na11  1  0.83302052  0.96853683  0.57412411  1
  Na  Na12  1  0.33378539  0.69840141  0.07552914  1
  Na  Na13  1  0.83101933  0.69703642  0.07477651  1
  Na  Na14  1  0.48257421  0.68402727  0.91181257  1
  Na  Na15  1  0.98286161  0.68438319  0.91105115  1
  Na  Na16  1  0.48521526  0.28423139  0.41006318  1
  Na  Na17  1  0.16395595  0.02908936  0.40935331  1
  Na  Na18  1  0.98994605  0.00417093  0.49370705  1
  Na  Na19  1  0.50006718  0.99857649  0.49318818  1
  Na  Na20  1  0.99752870  0.00156502  0.99179032  1
  Na  Na21  1  0.49682910  0.99782004  0.99415776  1
  Na  Na22  1  0.32720490  0.34069456  0.82883960  1
  Na  Na23  1  0.82728011  0.34058945  0.82796117  1
  Na  Na24  1  0.32891517  0.32674744  0.32372743  1
  Na  Na25  1  0.82346007  0.29960642  0.33090963  1
  Na  Na26  1  0.15662406  0.66272720  0.15728899  1
  Na  Na27  1  0.65450194  0.66975434  0.16043306  1
  Na  Na28  1  0.15113482  0.64041952  0.65857336  1
  Na  Na29  1  0.65291109  0.64277867  0.65763040  1
  Zr  Zr30  1  0.00851348  0.01478851  0.64813734  1
  Zr  Zr31  1  0.50967240  0.01645622  0.64835495  1
  Zr  Zr32  1  0.00651326  0.99202089  0.14670603  1
  Zr  Zr33  1  0.50862984  0.00148451  0.14909590  1
  Zr  Zr34  1  0.33501832  0.34835985  0.98165632  1
  Zr  Zr35  1  0.83518745  0.34790047  0.98092710  1
  Zr  Zr36  1  0.33861788  0.33034370  0.48201318  1
  Zr  Zr37  1  0.83773745  0.31835489  0.47968443  1
  Zr  Zr38  1  0.16961169  0.67798134  0.31635002  1
  Zr  Zr39  1  0.67130233  0.68864706  0.31371261  1
  Zr  Zr40  1  0.16744477  0.65476236  0.81563058  1
  Zr  Zr41  1  0.66745100  0.65490470  0.81571793  1
  Zn  Zn42  1  0.99579039  0.00750993  0.35001381  1
  Zn  Zn43  1  0.50251789  0.01678742  0.34607908  1
  Zn  Zn44  1  0.99934929  0.98469983  0.84723966  1
  Zn  Zn45  1  0.49913083  0.98466362  0.84768666  1
  Zn  Zn46  1  0.34428922  0.36236350  0.68377823  1
  Zn  Zn47  1  0.84446163  0.36358654  0.68258897  1
  Zn  Zn48  1  0.34140062  0.32797685  0.18478608  1
  Zn  Zn49  1  0.83497238  0.31819416  0.18063459  1
  Zn  Zn50  1  0.16567726  0.67340895  0.01610819  1
  Zn  Zn51  1  0.66428797  0.67144896  0.01606306  1
  Zn  Zn52  1  0.16263408  0.65152554  0.51591456  1
  Zn  Zn53  1  0.66716739  0.65870697  0.51520574  1
  Si  Si54  1  0.14710766  0.00827302  0.25492375  1
  Si  Si55  1  0.65140635  0.01226538  0.25182264  1
  Si  Si56  1  0.50043902  0.29618942  0.25238989  1
  Si  Si57  1  0.14767684  0.28808146  0.75238998  1
  Si  Si58  1  0.64787653  0.28842256  0.75274468  1
  Si  Si59  1  -0.00000839  0.70498153  0.75226007  1
  Si  Si60  1  0.50005353  0.70525483  0.75231563  1
  Si  Si61  1  0.48567727  0.34146356  0.58509797  1
  Si  Si62  1  0.98453566  0.34068677  0.58577547  1
  Si  Si63  1  0.48477196  0.62848804  0.08504572  1
  Si  Si64  1  0.98331768  0.61986222  0.08602542  1
  Si  Si65  1  0.31580641  0.67874162  0.92036302  1
  Si  Si66  1  0.81559281  0.67937271  0.92063097  1
  Si  Si67  1  0.31555990  0.95299426  0.42157228  1
  Si  Si68  1  0.81687249  0.95292196  0.42024736  1
  S  S69  1  0.35311821  0.70502821  0.25116565  1
  S  S70  1  0.85486327  0.70761474  0.25070056  1
  S  S71  1  0.99973749  0.29191329  0.25079531  1
  S  S72  1  0.35368479  0.00082936  0.75085835  1
  S  S73  1  0.85361298  0.00088985  0.75118305  1
  S  S74  1  0.18797880  0.03983605  0.58473376  1
  S  S75  1  0.68818963  0.03969176  0.58522579  1
  S  S76  1  0.33260672  0.62782629  0.58488549  1
  S  S77  1  0.83270998  0.62714877  0.58431135  1
  S  S78  1  0.33246712  0.03795975  0.08467624  1
  S  S79  1  0.83336795  0.03992935  0.08459797  1
  S  S80  1  0.18795851  0.33628561  0.08595490  1
  S  S81  1  0.68722123  0.33638492  0.08509448  1
  S  S82  1  0.01987677  0.36710220  0.91914572  1
  S  S83  1  0.51951949  0.36629727  0.91889117  1
  S  S84  1  0.16781667  0.96041773  0.91772568  1
  S  S85  1  0.66796304  0.96079983  0.91765331  1
  S  S86  1  0.16640238  0.37317154  0.41809380  1
  S  S87  1  0.66834662  0.37561268  0.41737106  1
  S  S88  1  0.01979636  0.66845379  0.41798696  1
  S  S89  1  0.52108157  0.67383679  0.41819874  1
  O  O90  1  0.09921891  0.01825483  0.31364524  1
  O  O91  1  0.60407909  0.03648741  0.30777646  1
  O  O92  1  0.40455304  0.78545097  0.30157694  1
  O  O93  1  0.90774709  0.79080647  0.30036075  1
  O  O94  1  0.47829540  0.18034879  0.31070421  1
  O  O95  1  0.98763336  0.19051318  0.30315051  1
  O  O96  1  0.10083873  0.16990299  0.80841418  1
  O  O97  1  0.60041040  0.16942746  0.80838473  1
  O  O98  1  0.47930826  0.77680911  0.81073646  1
  O  O99  1  0.97953545  0.77675658  0.81079772  1
  O  O100  1  0.40616290  0.02703300  0.80104820  1
  O  O101  1  0.90612985  0.02691911  0.80138775  1
  O  O102  1  0.39124648  0.96818423  0.69661682  1
  O  O103  1  0.89119608  0.96815493  0.69697306  1
  O  O104  1  0.08519697  0.20986132  0.69512190  1
  O  O105  1  0.58540295  0.21123851  0.69528039  1
  O  O106  1  0.01595668  0.83305142  0.69572406  1
  O  O107  1  0.51537847  0.83272189  0.69566302  1
  O  O108  1  0.39026682  0.81431018  0.19670457  1
  O  O109  1  0.89277260  0.81362555  0.19590196  1
  O  O110  1  0.01153553  0.21110132  0.19760510  1
  O  O111  1  0.51501487  0.19707788  0.19607004  1
  O  O112  1  0.08286392  0.96580366  0.19834436  1
  O  O113  1  0.58799019  0.96643924  0.19453395  1
  O  O114  1  0.43677963  0.35079654  0.64365875  1
  O  O115  1  0.93870972  0.35184677  0.64570675  1
  O  O116  1  0.23690494  0.12136800  0.63600935  1
  O  O117  1  0.73577352  0.11850033  0.63767577  1
  O  O118  1  0.31978686  0.52815056  0.63829028  1
  O  O119  1  0.82010093  0.52868910  0.63852112  1
  O  O120  1  0.43651948  0.52180191  0.14380290  1
  O  O121  1  0.93542569  0.51632349  0.14557423  1
  O  O122  1  0.32017648  0.11253336  0.13811878  1
  O  O123  1  0.82046556  0.11643566  0.13661271  1
  O  O124  1  0.23873159  0.35377245  0.13615567  1
  O  O125  1  0.73629984  0.35517711  0.13703128  1
  O  O126  1  0.22612198  0.30456662  0.03143609  1
  O  O127  1  0.72991586  0.30944405  0.03217530  1
  O  O128  1  0.42077425  0.53424339  0.02749091  1
  O  O129  1  0.91995785  0.53394628  0.02865801  1
  O  O130  1  0.34269416  0.14494441  0.03225247  1
  O  O131  1  0.84507309  0.14557080  0.03135206  1
  O  O132  1  0.22911594  0.14824168  0.53037709  1
  O  O133  1  0.73005033  0.15039477  0.53223248  1
  O  O134  1  0.34314469  0.54087196  0.53264416  1
  O  O135  1  0.84376002  0.54218085  0.53253314  1
  O  O136  1  0.42165644  0.30791349  0.52750937  1
  O  O137  1  0.91890069  0.30580753  0.53032151  1
  O  O138  1  0.26700528  0.68672425  0.97888301  1
  O  O139  1  0.76681293  0.68704360  0.97920928  1
  O  O140  1  0.07021507  0.45309168  0.96869697  1
  O  O141  1  0.57032710  0.45276994  0.96839642  1
  O  O142  1  0.15302377  0.85001327  0.96797725  1
  O  O143  1  0.65363907  0.85081111  0.96782387  1
  O  O144  1  0.26395160  0.84484791  0.47899459  1
  O  O145  1  0.77122113  0.85066002  0.48045152  1
  O  O146  1  0.15436074  0.45149553  0.46970833  1
  O  O147  1  0.65287410  0.45580759  0.46775612  1
  O  O148  1  0.07292436  0.68871777  0.46734145  1
  O  O149  1  0.57047399  0.68791773  0.46857401  1
  O  O150  1  0.05839031  0.63770242  0.36287987  1
  O  O151  1  0.55795366  0.63597360  0.36363191  1
  O  O152  1  0.25372410  0.86792179  0.36272810  1
  O  O153  1  0.75492423  0.86318446  0.36355792  1
  O  O154  1  0.17798368  0.47862026  0.36449335  1
  O  O155  1  0.67962375  0.47611643  0.36226742  1
  O  O156  1  0.05729801  0.47876415  0.86401307  1
  O  O157  1  0.55735129  0.47887699  0.86384231  1
  O  O158  1  0.17946765  0.88247954  0.86252066  1
  O  O159  1  0.68010401  0.88365668  0.86240779  1
  O  O160  1  0.25789247  0.64756787  0.86099539  1
  O  O161  1  0.75788195  0.64741806  0.86125459  1
  O  O162  1  0.01357207  0.82055529  0.41104960  1
  O  O163  1  0.50839932  0.81632720  0.41015266  1
  O  O164  1  0.41229216  0.99028985  0.41458106  1
  O  O165  1  0.91199665  0.98114151  0.41069223  1
  O  O166  1  0.09376635  0.19950844  0.41316571  1
  O  O167  1  0.59218285  0.20480536  0.41354408  1
  O  O168  1  0.00858194  0.20074267  0.91065024  1
  O  O169  1  0.50867919  0.20071216  0.91035758  1
  O  O170  1  0.09218743  0.97948249  0.91349397  1
  O  O171  1  0.59253960  0.98004224  0.91333466  1
  O  O172  1  0.41332652  0.83699343  0.91452335  1
  O  O173  1  0.91335077  0.83706029  0.91485686  1
  O  O174  1  0.48262889  0.15342333  0.58762095  1
  O  O175  1  0.98324623  0.15419600  0.58792573  1
  O  O176  1  0.10137053  0.02331717  0.58648936  1
  O  O177  1  0.60123321  0.02288590  0.58700989  1
  O  O178  1  0.41151235  0.80051623  0.58748353  1
  O  O179  1  0.91145181  0.80153827  0.58793624  1
  O  O180  1  0.48297436  0.81202417  0.08757794  1
  O  O181  1  0.98318499  0.80734438  0.08987131  1
  O  O182  1  0.41116995  0.02176652  0.08730936  1
  O  O183  1  0.91295323  0.02531489  0.08901452  1
  O  O184  1  0.09991217  0.18115771  0.09016048  1
  O  O185  1  0.60115878  0.17945820  0.08703098  1
  O  O186  1  0.33974614  0.14449766  0.74389633  1
  O  O187  1  0.83961933  0.14437692  0.74430359  1
  O  O188  1  0.24168317  0.30844553  0.74178533  1
  O  O189  1  0.74180909  0.30880270  0.74200455  1
  O  O190  1  0.41844534  0.51344295  0.74775037  1
  O  O191  1  0.91829749  0.51356181  0.74771765  1
  O  O192  1  0.34161235  0.53689624  0.24384727  1
  O  O193  1  0.84508261  0.53875600  0.24456334  1
  O  O194  1  0.41899275  0.32500721  0.24754428  1
  O  O195  1  0.92666801  0.32064309  0.24644254  1
  O  O196  1  0.24333843  0.16218638  0.24364521  1
  O  O197  1  0.74329639  0.18553308  0.24140016  1
  O  O198  1  0.32528510  0.50085724  0.92301410  1
  O  O199  1  0.82559801  0.50182224  0.92341528  1
  O  O200  1  0.43294398  0.35667842  0.92355620  1
  O  O201  1  0.93323521  0.35737117  0.92379386  1
  O  O202  1  0.24701223  0.13029206  0.92265269  1
  O  O203  1  0.74729588  0.13123121  0.92282959  1
  O  O204  1  0.31905951  0.14510846  0.42374873  1
  O  O205  1  0.82247799  0.14466509  0.42255148  1
  O  O206  1  0.24586774  0.35818310  0.42185343  1
  O  O207  1  0.74709243  0.36325891  0.42297569  1
  O  O208  1  0.43368469  0.50988716  0.42338131  1
  O  O209  1  0.93299585  0.51447247  0.42286810  1
  O  O210  1  0.18023378  0.48698234  0.07876913  1
  O  O211  1  0.68034366  0.48762255  0.07797439  1
  O  O212  1  0.07789566  0.64880643  0.07586511  1
  O  O213  1  0.57836592  0.65063728  0.07507154  1
  O  O214  1  0.25870438  0.86419847  0.08018573  1
  O  O215  1  0.76057068  0.86610282  0.08025730  1
  O  O216  1  0.18081645  0.87370841  0.57807713  1
  O  O217  1  0.68042273  0.87318921  0.57858732  1
  O  O218  1  0.25903295  0.65408740  0.57987803  1
  O  O219  1  0.75895945  0.65357221  0.58045310  1
  O  O220  1  0.07807747  0.50623762  0.57605161  1
  O  O221  1  0.57866971  0.50689248  0.57476683  1
  O  O222  1  0.15239973  0.82525478  0.25774028  1
  O  O223  1  0.65445289  0.83262331  0.25546246  1
  O  O224  1  0.26640962  0.69297485  0.25726803  1
  O  O225  1  0.76694776  0.68420130  0.25592984  1
  O  O226  1  0.07884916  0.46723584  0.25518326  1
  O  O227  1  0.59002090  0.48289753  0.25712374  1
  O  O228  1  0.15819850  0.48167735  0.75628937  1
  O  O229  1  0.65811640  0.48177861  0.75649627  1
  O  O230  1  0.08955146  0.69592507  0.75714315  1
  O  O231  1  0.58953601  0.69607566  0.75708844  1
  O  O232  1  0.26677723  0.84251117  0.75685879  1
  O  O233  1  0.76677293  0.84245097  0.75714561  1
