# generated using pymatgen
data_Na3Ca4Ta8P15(SO24)3
_symmetry_space_group_name_H-M   'P 1'
_cell_length_a   8.88493371
_cell_length_b   8.87940450
_cell_length_c   23.05487046
_cell_angle_alpha   90.15275783
_cell_angle_beta   89.91241514
_cell_angle_gamma   119.87629619
_symmetry_Int_Tables_number   1
_chemical_formula_structural   Na3Ca4Ta8P15(SO24)3
_chemical_formula_sum   'Na3 Ca4 Ta8 P15 S3 O72'
_cell_volume   1577.13839454
_cell_formula_units_Z   1
loop_
 _symmetry_equiv_pos_site_id
 _symmetry_equiv_pos_as_xyz
  1  'x, y, z'
loop_
 _atom_site_type_symbol
 _atom_site_label
 _atom_site_symmetry_multiplicity
 _atom_site_fract_x
 _atom_site_fract_y
 _atom_site_fract_z
 _atom_site_occupancy
  Na  Na0  1  0.99885769  0.99216738  0.99126663  1
  Na  Na1  1  0.65882869  0.33214133  0.84152795  1
  Na  Na2  1  0.65768127  0.33519606  0.33904525  1
  Ca  Ca3  1  0.99840568  0.99430536  0.85389386  1
  Ca  Ca4  1  0.66096431  0.33178368  0.97877689  1
  Ca  Ca5  1  0.66398218  0.33302172  0.48567538  1
  Ca  Ca6  1  0.33439066  0.66469796  0.30279536  1
  Ta  Ta7  1  0.00386516  0.00572539  0.35547698  1
  Ta  Ta8  1  0.00245427  -0.00003478  0.65023552  1
  Ta  Ta9  1  0.00035284  0.99938416  0.14672361  1
  Ta  Ta10  1  0.66480440  0.33233348  0.68221482  1
  Ta  Ta11  1  0.66660293  0.33523881  0.18610134  1
  Ta  Ta12  1  0.33973869  0.67347087  0.02521881  1
  Ta  Ta13  1  0.33130196  0.65665666  0.52349681  1
  Ta  Ta14  1  0.34021069  0.67345767  0.80813129  1
  P  P15  1  0.28991853  0.01628643  0.24907559  1
  P  P16  1  0.72787348  0.71269212  0.24953366  1
  P  P17  1  0.98265735  0.27373775  0.24902749  1
  P  P18  1  0.29701241  0.29360360  0.75028047  1
  P  P19  1  0.99536094  0.70034302  0.74958829  1
  P  P20  1  0.70935129  0.00711897  0.74973834  1
  P  P21  1  0.96070784  0.32796172  0.58359451  1
  P  P22  1  0.36794904  0.03455427  0.58313309  1
  P  P23  1  0.67158833  0.63322996  0.58378800  1
  P  P24  1  0.95953852  0.62564820  0.08362944  1
  P  P25  1  0.66999187  0.04334757  0.08402591  1
  P  P26  1  0.37200802  0.33274550  0.08416888  1
  P  P27  1  0.61275727  0.66697248  0.91660540  1
  P  P28  1  0.33330244  0.94609440  0.91675943  1
  P  P29  1  0.33034366  0.37560368  0.41415880  1
  S  S30  1  0.05826941  0.39199214  0.91656200  1
  S  S31  1  0.62642215  0.95165385  0.41571023  1
  S  S32  1  0.04804071  0.67474309  0.41570462  1
  O  O33  1  0.19986874  0.04231001  0.30463138  1
  O  O34  1  0.84237861  0.80037995  0.30457954  1
  O  O35  1  0.95722601  0.15819282  0.30446794  1
  O  O36  1  0.23917017  0.18708844  0.80416881  1
  O  O37  1  0.94502876  0.75729407  0.80357388  1
  O  O38  1  0.81310491  0.05369883  0.80412462  1
  O  O39  1  0.80268887  0.97672300  0.69765890  1
  O  O40  1  0.17419218  0.19869882  0.69782532  1
  O  O41  1  0.02570794  0.82543122  0.69767701  1
  O  O42  1  0.82774230  0.82085354  0.19603675  1
  O  O43  1  0.99421879  0.17351740  0.19618743  1
  O  O44  1  0.17994887  0.00494659  0.19604427  1
  O  O45  1  0.86728985  0.36281044  0.63507718  1
  O  O46  1  0.49538150  0.12927305  0.63511550  1
  O  O47  1  0.63488865  0.50489567  0.63523118  1
  O  O48  1  0.86406183  0.50310624  0.13735763  1
  O  O49  1  0.64001995  0.13682139  0.13750724  1
  O  O50  1  0.49636989  0.36210888  0.13756623  1
  O  O51  1  0.42943934  0.28105538  0.03074441  1
  O  O52  1  0.85147560  0.56680007  0.03020736  1
  O  O53  1  0.71712630  0.14876554  0.03030718  1
  O  O54  1  0.42563577  0.14164863  0.52975075  1
  O  O55  1  0.71813341  0.57594270  0.52961559  1
  O  O56  1  0.85923982  0.28429335  0.52918833  1
  O  O57  1  0.50418702  0.66254616  0.97245195  1
  O  O58  1  0.15566337  0.48651158  0.97073391  1
  O  O59  1  0.33221610  0.83934252  0.97265496  1
  O  O60  1  0.53987510  0.84348613  0.46938257  1
  O  O61  1  0.30884771  0.47175890  0.47144374  1
  O  O62  1  0.15695350  0.69775484  0.46961430  1
  O  O63  1  0.12825601  0.65372130  0.36427224  1
  O  O64  1  0.52382578  0.87468464  0.36434069  1
  O  O65  1  0.34953322  0.48173180  0.36256099  1
  O  O66  1  0.15316031  0.48859414  0.86257208  1
  O  O67  1  0.32838055  0.83730256  0.86087740  1
  O  O68  1  0.50629844  0.66626738  0.86065337  1
  O  O69  1  0.03956296  0.84207977  0.40948939  1
  O  O70  1  0.80012734  0.95576629  0.40899495  1
  O  O71  1  0.15180367  0.19383606  0.40742712  1
  O  O72  1  0.05056661  0.22365560  0.91771157  1
  O  O73  1  0.16698680  0.95229949  0.92068852  1
  O  O74  1  0.78110877  0.83679271  0.92052260  1
  O  O75  1  0.99589026  0.18124922  0.60300110  1
  O  O76  1  0.18688893  0.00331994  0.60308821  1
  O  O77  1  0.81879427  0.81423102  0.60333177  1
  O  O78  1  0.99684521  0.81305783  0.09921841  1
  O  O79  1  0.81804808  0.00391379  0.09927010  1
  O  O80  1  0.18593224  0.18270699  0.09984493  1
  O  O81  1  0.67445135  0.15765417  0.73233820  1
  O  O82  1  0.48191713  0.32591150  0.73225298  1
  O  O83  1  0.84251817  0.51655059  0.73146672  1
  O  O84  1  0.71644223  0.53062459  0.24089105  1
  O  O85  1  0.81144848  0.28237379  0.24100380  1
  O  O86  1  0.46939164  0.18707388  0.24099132  1
  O  O87  1  0.61905019  0.50083717  0.91253296  1
  O  O88  1  0.89097663  0.38371621  0.91554241  1
  O  O89  1  0.50272024  0.11417335  0.91272950  1
  O  O90  1  0.66418713  0.13027061  0.42276659  1
  O  O91  1  0.47541682  0.33512316  0.42160331  1
  O  O92  1  0.87179015  0.53043452  0.42258188  1
  O  O93  1  0.35435388  0.49700209  0.07635054  1
  O  O94  1  0.14126120  0.64214597  0.07607678  1
  O  O95  1  0.50380087  0.85999460  0.07703348  1
  O  O96  1  0.35168539  0.85227841  0.57254019  1
  O  O97  1  0.50324561  0.64899004  0.57395866  1
  O  O98  1  0.14448046  0.49754347  0.57434504  1
  O  O99  1  0.30742492  0.85849228  0.25212405  1
  O  O100  1  0.55313771  0.69609374  0.25061677  1
  O  O101  1  0.13881930  0.44906360  0.25124653  1
  O  O102  1  0.31423940  0.47619698  0.75751971  1
  O  O103  1  0.15978256  0.68208140  0.75716815  1
  O  O104  1  0.52516747  0.84089869  0.75652938  1
