# generated using pymatgen
data_KMgSb(PO4)2
_symmetry_space_group_name_H-M   'P 1'
_cell_length_a   8.76872045
_cell_length_b   8.76871995
_cell_length_c   8.76872006
_cell_angle_alpha   34.64864384
_cell_angle_beta   34.64864523
_cell_angle_gamma   34.64865017
_symmetry_Int_Tables_number   1
_chemical_formula_structural   KMgSb(PO4)2
_chemical_formula_sum   'K1 Mg1 Sb1 P2 O8'
_cell_volume   194.47700841
_cell_formula_units_Z   1
loop_
 _symmetry_equiv_pos_site_id
 _symmetry_equiv_pos_as_xyz
  1  'x, y, z'
loop_
 _atom_site_type_symbol
 _atom_site_label
 _atom_site_symmetry_multiplicity
 _atom_site_fract_x
 _atom_site_fract_y
 _atom_site_fract_z
 _atom_site_occupancy
  K  K0  1  0.48112600  0.48112600  0.48112600  1
  Mg  Mg1  1  0.89119600  0.89119600  0.89119600  1
  Sb  Sb2  1  0.01542900  0.01542900  0.01542900  1
  P  P3  1  0.75072800  0.75072800  0.75072800  1
  P  P4  1  0.24697300  0.24697300  0.24697300  1
  O  O5  1  0.81272900  0.81272900  0.81272900  1
  O  O6  1  0.99740100  0.43524600  0.75706600  1
  O  O7  1  0.18518600  0.18518600  0.18518600  1
  O  O8  1  0.75706600  0.99740100  0.43524600  1
  O  O9  1  0.19564400  0.02935800  0.58048900  1
  O  O10  1  0.43524600  0.75706600  0.99740100  1
  O  O11  1  0.58048900  0.19564400  0.02935800  1
  O  O12  1  0.02935800  0.58048900  0.19564400  1
