# generated using pymatgen
data_NaZr2Al2P3(SO8)3
_symmetry_space_group_name_H-M   'P 1'
_cell_length_a   8.66353770
_cell_length_b   8.67435167
_cell_length_c   22.39102910
_cell_angle_alpha   90.12232969
_cell_angle_beta   89.56973881
_cell_angle_gamma   120.04926502
_symmetry_Int_Tables_number   1
_chemical_formula_structural   NaZr2Al2P3(SO8)3
_chemical_formula_sum   'Na3 Zr6 Al6 P9 S9 O72'
_cell_volume   1456.49218914
_cell_formula_units_Z   3
loop_
 _symmetry_equiv_pos_site_id
 _symmetry_equiv_pos_as_xyz
  1  'x, y, z'
loop_
 _atom_site_type_symbol
 _atom_site_label
 _atom_site_symmetry_multiplicity
 _atom_site_fract_x
 _atom_site_fract_y
 _atom_site_fract_z
 _atom_site_occupancy
  Na  Na0  1  0.67930912  0.33529744  0.83405819  1
  Na  Na1  1  0.66196803  0.34040147  0.32977314  1
  Na  Na2  1  0.34883222  0.67664883  0.17363960  1
  Zr  Zr3  1  0.00588416  0.99243472  0.35412981  1
  Zr  Zr4  1  0.99313477  0.00186832  0.85381403  1
  Zr  Zr5  1  0.99342624  0.99179750  0.64735037  1
  Zr  Zr6  1  0.99988912  0.99860163  0.14384907  1
  Zr  Zr7  1  0.33437565  0.66290946  0.02563346  1
  Zr  Zr8  1  0.32784510  0.66280018  0.52282917  1
  Al  Al9  1  0.67076199  0.33184375  0.68906264  1
  Al  Al10  1  0.65112119  0.32746724  0.18708299  1
  Al  Al11  1  0.67051538  0.32520179  0.98168196  1
  Al  Al12  1  0.66518416  0.33847791  0.47468107  1
  Al  Al13  1  0.33264475  0.66194135  0.31470239  1
  Al  Al14  1  0.32110384  0.66784480  0.81166683  1
  P  P15  1  0.30507660  0.99467609  0.24948716  1
  P  P16  1  0.69362916  0.69326010  0.24972390  1
  P  P17  1  0.99762870  0.69405792  0.75021817  1
  P  P18  1  0.68864746  0.99570594  0.75071859  1
  P  P19  1  0.66713581  0.06350548  0.08472781  1
  P  P20  1  0.39728037  0.33099510  0.08247075  1
  P  P21  1  0.03857594  0.39150369  0.91485206  1
  P  P22  1  0.34665471  0.38639471  0.41461100  1
  P  P23  1  0.03849691  0.64804714  0.41509493  1
  S  S24  1  0.99902894  0.30317707  0.25017219  1
  S  S25  1  0.30460588  0.30515515  0.74946260  1
  S  S26  1  0.93450020  0.32913492  0.58323855  1
  S  S27  1  0.39816833  0.06735508  0.58344514  1
  S  S28  1  0.66723842  0.60292526  0.58362178  1
  S  S29  1  0.93620317  0.60377044  0.08391919  1
  S  S30  1  0.61316083  0.64948541  0.91455263  1
  S  S31  1  0.34641451  0.96261669  0.91497307  1
  S  S32  1  0.61685264  0.96434758  0.41603924  1
  O  O33  1  0.21689637  0.03183914  0.30443860  1
  O  O34  1  0.81569837  0.78465663  0.30431001  1
  O  O35  1  0.96529224  0.18801028  0.30300557  1
  O  O36  1  0.22462936  0.18357512  0.80143024  1
  O  O37  1  0.95926084  0.78468342  0.80337682  1
  O  O38  1  0.82126866  0.04164179  0.80332672  1
  O  O39  1  0.78241514  0.96363780  0.69555736  1
  O  O40  1  0.18737512  0.22067726  0.69664953  1
  O  O41  1  0.03249458  0.81960759  0.69505712  1
  O  O42  1  0.78291156  0.81676159  0.19497380  1
  O  O43  1  0.03314702  0.22099271  0.19699879  1
  O  O44  1  0.18234887  0.96278341  0.19531141  1
  O  O45  1  0.85382327  0.35292768  0.63792235  1
  O  O46  1  0.50196237  0.14895311  0.63768978  1
  O  O47  1  0.64436161  0.49893828  0.63801597  1
  O  O48  1  0.85732694  0.50105429  0.13834785  1
  O  O49  1  0.64343642  0.14881826  0.14072638  1
  O  O50  1  0.50391569  0.36261662  0.13928311  1
  O  O51  1  0.48381172  0.31638678  0.02458051  1
  O  O52  1  0.84144994  0.52532503  0.02801203  1
  O  O53  1  0.69188023  0.16358694  0.02597937  1
  O  O54  1  0.47974142  0.17063166  0.52861548  1
  O  O55  1  0.69189018  0.52417657  0.52874757  1
  O  O56  1  0.83208895  0.30693730  0.52890184  1
  O  O57  1  0.53951815  0.68482270  0.96949389  1
  O  O58  1  0.15163358  0.47128432  0.97140422  1
  O  O59  1  0.31552842  0.85606558  0.96955847  1
  O  O60  1  0.54095201  0.85614177  0.47144611  1
  O  O61  1  0.31750551  0.46857799  0.47297186  1
  O  O62  1  0.15218549  0.68528380  0.47280240  1
  O  O63  1  0.13470868  0.62621702  0.36137718  1
  O  O64  1  0.50378936  0.87923459  0.36408950  1
  O  O65  1  0.37621542  0.50863217  0.36158117  1
  O  O66  1  0.13450576  0.50843636  0.86012238  1
  O  O67  1  0.37308550  0.87550743  0.86223344  1
  O  O68  1  0.50296076  0.62820182  0.86206755  1
  O  O69  1  0.01424877  0.81129140  0.40905071  1
  O  O70  1  0.79547876  0.98763863  0.40908388  1
  O  O71  1  0.17874897  0.20398740  0.40727237  1
  O  O72  1  0.01939915  0.20533648  0.90587826  1
  O  O73  1  0.18713196  0.98147067  0.90710622  1
  O  O74  1  0.79365250  0.81018867  0.90867615  1
  O  O75  1  0.95667675  0.17126964  0.58930885  1
  O  O76  1  0.21865350  0.04824657  0.58975990  1
  O  O77  1  0.82922406  0.78308224  0.58862497  1
  O  O78  1  0.95642830  0.78292782  0.08743269  1
  O  O79  1  0.82981344  0.03743804  0.09173852  1
  O  O80  1  0.21009244  0.16617854  0.08906802  1
  O  O81  1  0.66930366  0.16035224  0.73942320  1
  O  O82  1  0.48173459  0.32288709  0.73904666  1
  O  O83  1  0.83005920  0.51165285  0.73923349  1
  O  O84  1  0.68036811  0.51111462  0.24069453  1
  O  O85  1  0.84239008  0.32435174  0.24165076  1
  O  O86  1  0.48943500  0.16170338  0.24185071  1
  O  O87  1  0.63262526  0.49137565  0.92150787  1
  O  O88  1  0.85142024  0.36961362  0.92355316  1
  O  O89  1  0.50602090  0.14173701  0.92134257  1
  O  O90  1  0.63233189  0.14123846  0.42509182  1
  O  O91  1  0.51121346  0.36422701  0.42402027  1
  O  O92  1  0.85462089  0.48075284  0.42491891  1
  O  O93  1  0.37090799  0.49801004  0.07874381  1
  O  O94  1  0.12029076  0.62824847  0.08078168  1
  O  O95  1  0.49715566  0.87347283  0.08019219  1
  O  O96  1  0.37903741  0.88828134  0.57864310  1
  O  O97  1  0.50992341  0.62614745  0.57961299  1
  O  O98  1  0.11488755  0.49037281  0.57960583  1
  O  O99  1  0.31828454  0.82705337  0.26108767  1
  O  O100  1  0.50960537  0.67568872  0.26018217  1
  O  O101  1  0.16124141  0.47935466  0.25808838  1
  O  O102  1  0.32151062  0.47837791  0.76043297  1
  O  O103  1  0.16262520  0.67955565  0.76038322  1
  O  O104  1  0.51281535  0.82943215  0.76455463  1
