# generated using pymatgen
data_Cs3In2Cl9
_symmetry_space_group_name_H-M   'P 1'
_cell_length_a   9.63296304
_cell_length_b   9.63296304
_cell_length_c   9.63296332
_cell_angle_alpha   83.58008510
_cell_angle_beta   83.58008510
_cell_angle_gamma   83.58008604
_symmetry_Int_Tables_number   1
_chemical_formula_structural   Cs3In2Cl9
_chemical_formula_sum   'Cs6 In4 Cl18'
_cell_volume   878.23001548
_cell_formula_units_Z   2
loop_
 _symmetry_equiv_pos_site_id
 _symmetry_equiv_pos_as_xyz
  1  'x, y, z'
loop_
 _atom_site_type_symbol
 _atom_site_label
 _atom_site_symmetry_multiplicity
 _atom_site_fract_x
 _atom_site_fract_y
 _atom_site_fract_z
 _atom_site_occupancy
  Cs  Cs0  1  0.75000000  0.09055371  0.40944629  1
  Cs  Cs1  1  0.40944629  0.75000000  0.09055371  1
  Cs  Cs2  1  0.09055371  0.40944629  0.75000000  1
  Cs  Cs3  1  0.25000000  0.90944629  0.59055371  1
  Cs  Cs4  1  0.59055371  0.25000000  0.90944629  1
  Cs  Cs5  1  0.90944629  0.59055371  0.25000000  1
  In  In6  1  0.65254702  0.65254702  0.65254702  1
  In  In7  1  0.84745298  0.84745298  0.84745298  1
  In  In8  1  0.34745298  0.34745298  0.34745298  1
  In  In9  1  0.15254702  0.15254702  0.15254702  1
  Cl  Cl10  1  0.08796485  0.92399417  0.26145160  1
  Cl  Cl11  1  0.26145160  0.08796485  0.92399417  1
  Cl  Cl12  1  0.92399417  0.26145160  0.08796485  1
  Cl  Cl13  1  0.41203515  0.23854840  0.57600583  1
  Cl  Cl14  1  0.57600583  0.41203515  0.23854840  1
  Cl  Cl15  1  0.23854840  0.57600583  0.41203515  1
  Cl  Cl16  1  0.91203515  0.07600583  0.73854840  1
  Cl  Cl17  1  0.73854840  0.91203515  0.07600583  1
  Cl  Cl18  1  0.07600583  0.73854840  0.91203515  1
  Cl  Cl19  1  0.58796485  0.76145160  0.42399417  1
  Cl  Cl20  1  0.90245462  0.75000000  0.59754538  1
  Cl  Cl21  1  0.75000000  0.59754538  0.90245462  1
  Cl  Cl22  1  0.59754538  0.90245462  0.75000000  1
  Cl  Cl23  1  0.09754538  0.25000000  0.40245462  1
  Cl  Cl24  1  0.25000000  0.40245462  0.09754538  1
  Cl  Cl25  1  0.40245462  0.09754538  0.25000000  1
  Cl  Cl26  1  0.76145160  0.42399417  0.58796485  1
  Cl  Cl27  1  0.42399417  0.58796485  0.76145160  1
