# generated using pymatgen
data_Bi2MoO6
_symmetry_space_group_name_H-M   'P 1'
_cell_length_a   5.52704156
_cell_length_b   5.52812834
_cell_length_c   16.29803553
_cell_angle_alpha   90.00000000
_cell_angle_beta   90.00000000
_cell_angle_gamma   90.00000000
_symmetry_Int_Tables_number   1
_chemical_formula_structural   Bi2MoO6
_chemical_formula_sum   'Bi8 Mo4 O24'
_cell_volume   497.97335707
_cell_formula_units_Z   4
loop_
 _symmetry_equiv_pos_site_id
 _symmetry_equiv_pos_as_xyz
  1  'x, y, z'
loop_
 _atom_site_type_symbol
 _atom_site_label
 _atom_site_symmetry_multiplicity
 _atom_site_fract_x
 _atom_site_fract_y
 _atom_site_fract_z
 _atom_site_occupancy
  Bi  Bi0  1  0.47589597  0.05557619  0.42268155  1
  Bi  Bi1  1  0.02301326  0.03965455  0.92277776  1
  Bi  Bi2  1  0.52410403  0.55557619  0.57731845  1
  Bi  Bi3  1  0.47698674  0.53965455  0.92277776  1
  Bi  Bi4  1  0.97698674  0.53965455  0.07722224  1
  Bi  Bi5  1  0.52301326  0.03965455  0.07722224  1
  Bi  Bi6  1  0.02410403  0.55557619  0.42268155  1
  Bi  Bi7  1  0.97589597  0.05557619  0.57731845  1
  Mo  Mo8  1  0.49292269  0.02669862  0.75042209  1
  Mo  Mo9  1  0.99292269  0.02669862  0.24957791  1
  Mo  Mo10  1  0.50707731  0.52669862  0.24957791  1
  Mo  Mo11  1  0.00707731  0.52669862  0.75042209  1
  O  O12  1  0.91383077  0.44697505  0.64478985  1
  O  O13  1  0.77595515  0.68494721  0.27294856  1
  O  O14  1  0.69723376  0.26098024  0.77358783  1
  O  O15  1  0.42271885  0.92888858  0.85660976  1
  O  O16  1  0.26134536  0.77530369  0.50119080  1
  O  O17  1  0.76182012  0.25847787  0.99886233  1
  O  O18  1  0.76134536  0.77530369  0.49880920  1
  O  O19  1  0.23865464  0.27530369  0.50119080  1
  O  O20  1  0.19723376  0.26098024  0.22641217  1
  O  O21  1  0.72404485  0.18494721  0.27294856  1
  O  O22  1  0.22404485  0.18494721  0.72705144  1
  O  O23  1  0.07728115  0.42888858  0.85660976  1
  O  O24  1  0.08616923  0.94697505  0.35521015  1
  O  O25  1  0.57728115  0.42888858  0.14339024  1
  O  O26  1  0.26182012  0.25847787  0.00113767  1
  O  O27  1  0.92271885  0.92888858  0.14339024  1
  O  O28  1  0.80276624  0.76098024  0.77358783  1
  O  O29  1  0.27595515  0.68494721  0.72705144  1
  O  O30  1  0.30276624  0.76098024  0.22641217  1
  O  O31  1  0.73817988  0.75847787  0.99886233  1
  O  O32  1  0.73865464  0.27530369  0.49880920  1
  O  O33  1  0.58616923  0.94697505  0.64478985  1
  O  O34  1  0.23817988  0.75847787  0.00113767  1
  O  O35  1  0.41383077  0.44697505  0.35521015  1
