# generated using pymatgen
data_Sr2MgZnWO6
_symmetry_space_group_name_H-M   'P 1'
_cell_length_a   6.16939725
_cell_length_b   6.15062236
_cell_length_c   7.40956962
_cell_angle_alpha   55.35498069
_cell_angle_beta   65.39798156
_cell_angle_gamma   59.89896776
_symmetry_Int_Tables_number   1
_chemical_formula_structural   Sr2MgZnWO6
_chemical_formula_sum   'Sr2 Mg1 Zn1 W1 O6'
_cell_volume   196.68519857
_cell_formula_units_Z   1
loop_
 _symmetry_equiv_pos_site_id
 _symmetry_equiv_pos_as_xyz
  1  'x, y, z'
loop_
 _atom_site_type_symbol
 _atom_site_label
 _atom_site_symmetry_multiplicity
 _atom_site_fract_x
 _atom_site_fract_y
 _atom_site_fract_z
 _atom_site_occupancy
  Sr  Sr0  1  0.36126900  0.25834944  0.01911256  1
  Sr  Sr1  1  0.71319159  0.81028557  0.76333124  1
  Mg  Mg2  1  0.09429218  0.09173007  0.71968457  1
  Zn  Zn3  1  0.46600361  0.52951256  0.53848022  1
  W  W4  1  0.92266696  0.93514939  0.21951668  1
  O  O5  1  0.27054853  0.72885997  0.73004297  1
  O  O6  1  0.24657406  0.76678614  0.27431480  1
  O  O7  1  0.74257769  0.21915093  0.72753735  1
  O  O8  1  0.31073403  0.21915093  0.72753735  1
  O  O9  1  0.79076935  0.31709585  0.10136545  1
  O  O10  1  0.71232500  0.76678614  0.27431480  1
