# generated using pymatgen
data_Na2YAlP2SO12
_symmetry_space_group_name_H-M   'P 1'
_cell_length_a   8.84664891
_cell_length_b   8.85501071
_cell_length_c   22.64366518
_cell_angle_alpha   90.69650880
_cell_angle_beta   89.50895606
_cell_angle_gamma   120.13735247
_symmetry_Int_Tables_number   1
_chemical_formula_structural   Na2YAlP2SO12
_chemical_formula_sum   'Na12 Y6 Al6 P12 S6 O72'
_cell_volume   1533.94090564
_cell_formula_units_Z   6
loop_
 _symmetry_equiv_pos_site_id
 _symmetry_equiv_pos_as_xyz
  1  'x, y, z'
loop_
 _atom_site_type_symbol
 _atom_site_label
 _atom_site_symmetry_multiplicity
 _atom_site_fract_x
 _atom_site_fract_y
 _atom_site_fract_z
 _atom_site_occupancy
  Na  Na0  1  0.99629499  0.63782301  0.25694844  1
  Na  Na1  1  0.37092444  0.01090647  0.74771036  1
  Na  Na2  1  0.66197938  0.95310556  0.58788465  1
  Na  Na3  1  0.04087807  0.33505642  0.09071862  1
  Na  Na4  1  0.32602545  0.30282107  0.92058072  1
  Na  Na5  1  0.69393822  0.67068542  0.41895770  1
  Na  Na6  1  0.03152098  0.99858728  0.49913877  1
  Na  Na7  1  0.01023489  0.97524151  0.00218804  1
  Na  Na8  1  0.69215991  0.32556859  0.82915752  1
  Na  Na9  1  0.66626450  0.30820290  0.33629486  1
  Na  Na10  1  0.35837860  0.66056495  0.17639335  1
  Na  Na11  1  0.33882932  0.64342559  0.66182597  1
  Y  Y12  1  0.99469908  0.00596651  0.84309648  1
  Y  Y13  1  0.00050585  0.99819463  0.16114750  1
  Y  Y14  1  0.66856839  0.32850270  0.98275542  1
  Y  Y15  1  0.33088223  0.67820285  0.02442741  1
  Y  Y16  1  0.32642447  0.67044196  0.51612595  1
  Y  Y17  1  0.33649348  0.66251979  0.80623747  1
  Al  Al18  1  0.97952085  0.99564749  0.34836813  1
  Al  Al19  1  0.00481204  0.99536672  0.64360365  1
  Al  Al20  1  0.65706932  0.33318755  0.67943654  1
  Al  Al21  1  0.66654960  0.35003048  0.19003919  1
  Al  Al22  1  0.66605984  0.33007883  0.48286109  1
  Al  Al23  1  0.33120248  0.66742890  0.32172934  1
  P  P24  1  0.68386424  0.69417124  0.25591761  1
  P  P25  1  0.00295044  0.30662953  0.25443261  1
  P  P26  1  0.30033502  0.28818434  0.73937528  1
  P  P27  1  0.71170392  0.01812068  0.73542853  1
  P  P28  1  0.37772529  0.06195578  0.58309659  1
  P  P29  1  0.68355192  0.62220919  0.58231758  1
  P  P30  1  0.95526958  0.62471631  0.09324267  1
  P  P31  1  0.37859426  0.33526300  0.09004920  1
  P  P32  1  0.03508401  0.36571409  0.91737229  1
  P  P33  1  0.33060968  0.96886128  0.91058221  1
  P  P34  1  0.63184793  0.96989498  0.41618059  1
  P  P35  1  0.02989792  0.67238901  0.41214232  1
  S  S36  1  0.30673427  0.99773295  0.25721965  1
  S  S37  1  0.98218387  0.69412487  0.73930395  1
  S  S38  1  0.94283882  0.32409589  0.58361613  1
  S  S39  1  0.66548015  0.04683494  0.09521753  1
  S  S40  1  0.63748255  0.67132512  0.91650238  1
  S  S41  1  0.32426330  0.35952417  0.41338259  1
  O  O42  1  0.20897999  0.02459829  0.30549179  1
  O  O43  1  0.82336522  0.79004035  0.30563298  1
  O  O44  1  0.97660073  0.16723327  0.30056203  1
  O  O45  1  0.23971585  0.19550844  0.80016719  1
  O  O46  1  0.95757926  0.75990138  0.79671100  1
  O  O47  1  0.80230721  0.03574283  0.79480982  1
  O  O48  1  0.81044043  0.99168989  0.68304451  1
  O  O49  1  0.17024405  0.16902921  0.69174498  1
  O  O50  1  0.00321704  0.81393887  0.69112759  1
  O  O51  1  0.74891793  0.80080140  0.19926064  1
  O  O52  1  0.04239775  0.25364787  0.19356568  1
  O  O53  1  0.20192196  0.95098025  0.20190321  1
  O  O54  1  0.85576811  0.34046209  0.63652162  1
  O  O55  1  0.49110030  0.14251129  0.63838365  1
  O  O56  1  0.66443398  0.50890994  0.63529828  1
  O  O57  1  0.85495685  0.51768649  0.14845028  1
  O  O58  1  0.66577419  0.15329706  0.14543300  1
  O  O59  1  0.49093527  0.33271383  0.14146461  1
  O  O60  1  0.44810578  0.32358996  0.02821680  1
  O  O61  1  0.86541550  0.53455070  0.03534973  1
  O  O62  1  0.67467533  0.12849892  0.03759160  1
  O  O63  1  0.47112508  0.17269685  0.52782728  1
  O  O64  1  0.69943581  0.53659831  0.52331275  1
  O  O65  1  0.83860747  0.30373640  0.52924787  1
  O  O66  1  0.54927303  0.67841081  0.97090772  1
  O  O67  1  0.13016636  0.44997686  0.97639416  1
  O  O68  1  0.33547231  0.87105325  0.96565635  1
  O  O69  1  0.57562241  0.85703058  0.47310114  1
  O  O70  1  0.28718391  0.42386422  0.46910501  1
  O  O71  1  0.14003920  0.71028244  0.46823441  1
  O  O72  1  0.12507431  0.64441775  0.35903629  1
  O  O73  1  0.49717650  0.86449284  0.36734934  1
  O  O74  1  0.35905775  0.48788864  0.36549134  1
  O  O75  1  0.14595485  0.47044578  0.86428613  1
  O  O76  1  0.33766816  0.88187267  0.85189400  1
  O  O77  1  0.53974091  0.66569127  0.86315088  1
  O  O78  1  0.00311214  0.83252025  0.40177204  1
  O  O79  1  0.81376093  0.99092978  0.40072803  1
  O  O80  1  0.17476088  0.18436994  0.40057360  1
  O  O81  1  0.02059700  0.18440714  0.91631747  1
  O  O82  1  0.16378517  0.98225188  0.91360726  1
  O  O83  1  0.81377931  0.82353279  0.91575165  1
  O  O84  1  0.96075313  0.16488844  0.58547230  1
  O  O85  1  0.19135436  0.03681135  0.58927208  1
  O  O86  1  0.84680037  0.81229745  0.58844169  1
  O  O87  1  0.97870924  0.80824234  0.09294555  1
  O  O88  1  0.82527236  0.03177562  0.09544459  1
  O  O89  1  0.18987258  0.17680638  0.09311310  1
  O  O90  1  0.69042379  0.18134147  0.73122430  1
  O  O91  1  0.48594497  0.31389019  0.73246825  1
  O  O92  1  0.83299673  0.51643966  0.73192475  1
  O  O93  1  0.67346475  0.51288318  0.24752456  1
  O  O94  1  0.83678115  0.32666735  0.24940561  1
  O  O95  1  0.48005255  0.15633866  0.24932687  1
  O  O96  1  0.64381868  0.50719197  0.91462284  1
  O  O97  1  0.85514427  0.34861646  0.91305986  1
  O  O98  1  0.48838774  0.15752345  0.91041026  1
  O  O99  1  0.64675215  0.15030534  0.42770247  1
  O  O100  1  0.49024955  0.35397733  0.41980277  1
  O  O101  1  0.84461674  0.50562922  0.42117190  1
  O  O102  1  0.36506505  0.50335810  0.09262266  1
  O  O103  1  0.13528816  0.63375480  0.09516216  1
  O  O104  1  0.50793810  0.87305618  0.09741487  1
  O  O105  1  0.36298250  0.87891152  0.57868556  1
  O  O106  1  0.52121438  0.64722315  0.58000466  1
  O  O107  1  0.11910117  0.48030696  0.58095821  1
  O  O108  1  0.32694570  0.84250654  0.26755660  1
  O  O109  1  0.50330548  0.66992637  0.27140649  1
  O  O110  1  0.16139161  0.49133917  0.26882903  1
  O  O111  1  0.31090621  0.46606059  0.73936717  1
  O  O112  1  0.14804746  0.68867844  0.74038906  1
  O  O113  1  0.52343929  0.85624495  0.73678715  1
