# generated using pymatgen
data_Na10Mg4In4Si3(S3O16)3
_symmetry_space_group_name_H-M   'P 1'
_cell_length_a   18.06768655
_cell_length_b   9.06527389
_cell_length_c   22.70992066
_cell_angle_alpha   89.98690335
_cell_angle_beta   88.70026838
_cell_angle_gamma   120.24680733
_symmetry_Int_Tables_number   1
_chemical_formula_structural   Na10Mg4In4Si3(S3O16)3
_chemical_formula_sum   'Na30 Mg12 In12 Si9 S27 O144'
_cell_volume   3212.12885836
_cell_formula_units_Z   3
loop_
 _symmetry_equiv_pos_site_id
 _symmetry_equiv_pos_as_xyz
  1  'x, y, z'
loop_
 _atom_site_type_symbol
 _atom_site_label
 _atom_site_symmetry_multiplicity
 _atom_site_fract_x
 _atom_site_fract_y
 _atom_site_fract_z
 _atom_site_occupancy
  Na  Na0  1  0.18993726  0.37024532  0.24351202  1
  Na  Na1  1  0.68966248  0.37366319  0.24357532  1
  Na  Na2  1  0.99175001  0.64038796  0.25459545  1
  Na  Na3  1  0.49360474  0.63490585  0.26173411  1
  Na  Na4  1  0.32347899  0.65616189  0.74442658  1
  Na  Na5  1  0.82063422  0.64958456  0.74392041  1
  Na  Na6  1  0.99350268  0.34839024  0.75179314  1
  Na  Na7  1  0.19010031  0.00354471  0.73962467  1
  Na  Na8  1  0.69044052  0.00515928  0.74043928  1
  Na  Na9  1  0.52187489  0.70476287  0.57253270  1
  Na  Na10  1  0.32698108  0.97154390  0.59011715  1
  Na  Na11  1  0.82656466  0.96629300  0.58848090  1
  Na  Na12  1  0.15399388  0.98556998  0.07896770  1
  Na  Na13  1  0.65377135  0.98506527  0.07881778  1
  Na  Na14  1  0.32859136  0.68466226  0.09299437  1
  Na  Na15  1  0.82807336  0.68482091  0.09322775  1
  Na  Na16  1  0.66037704  0.01408280  0.42651886  1
  Na  Na17  1  0.35643141  0.67166950  0.40880814  1
  Na  Na18  1  0.01820302  0.00406675  0.49963529  1
  Na  Na19  1  0.51139588  0.01171104  0.49761742  1
  Na  Na20  1  0.00971731  0.02982994  0.99887416  1
  Na  Na21  1  0.51006244  0.03107939  0.99820333  1
  Na  Na22  1  0.34453135  0.31755330  0.83067683  1
  Na  Na23  1  0.83196496  0.31496849  0.83322914  1
  Na  Na24  1  0.34000816  0.33524987  0.33399571  1
  Na  Na25  1  0.83769441  0.34858180  0.33104661  1
  Na  Na26  1  0.17352132  0.65394208  0.16462095  1
  Na  Na27  1  0.67323477  0.65421376  0.16612020  1
  Na  Na28  1  0.16772287  0.68389988  0.65854709  1
  Na  Na29  1  0.66550113  0.66538227  0.66141413  1
  Mg  Mg30  1  0.99392181  0.98720338  0.35077434  1
  Mg  Mg31  1  0.49574505  0.98707850  0.35077909  1
  Mg  Mg32  1  0.99525645  0.00400666  0.85202071  1
  Mg  Mg33  1  0.49482440  0.00518825  0.85165061  1
  Mg  Mg34  1  0.33198949  0.31038158  0.68249341  1
  Mg  Mg35  1  0.83030671  0.31753253  0.68054444  1
  Mg  Mg36  1  0.33129293  0.34182704  0.18380659  1
  Mg  Mg37  1  0.83016723  0.34203875  0.18321947  1
  Mg  Mg38  1  0.16316742  0.64697515  0.01784556  1
  Mg  Mg39  1  0.66255498  0.64610590  0.01778235  1
  Mg  Mg40  1  0.16079925  0.67337599  0.51851534  1
  Mg  Mg41  1  0.66454004  0.67209525  0.51557112  1
  In  In42  1  0.00191892  0.99945963  0.64856597  1
  In  In43  1  0.50248031  0.00833453  0.65200736  1
  In  In44  1  0.99543013  0.00639725  0.15369071  1
  In  In45  1  0.49616384  0.00578591  0.15261477  1
  In  In46  1  0.32875376  0.33044367  0.98402321  1
  In  In47  1  0.82858479  0.33076002  0.98379227  1
  In  In48  1  0.33031947  0.32713257  0.48258976  1
  In  In49  1  0.83067986  0.33392912  0.48645363  1
  In  In50  1  0.17203850  0.67331070  0.31794250  1
  In  In51  1  0.67004417  0.67041002  0.32099772  1
  In  In52  1  0.17323217  0.67675456  0.82218483  1
  In  In53  1  0.66745379  0.66872044  0.82048479  1
  Si  Si54  1  0.35080422  0.69892642  0.25064304  1
  Si  Si55  1  0.85155643  0.70202664  0.25068387  1
  Si  Si56  1  0.35383811  0.00597888  0.75166937  1
  Si  Si57  1  0.85384841  0.00364826  0.75055482  1
  Si  Si58  1  0.18297008  0.03122496  0.58521081  1
  Si  Si59  1  0.68230672  0.02952456  0.58506121  1
  Si  Si60  1  0.18195199  0.33240559  0.08683764  1
  Si  Si61  1  0.68177042  0.33298474  0.08629066  1
  Si  Si62  1  0.51708581  0.66686515  0.41809302  1
  S  S63  1  0.14778996  0.00099858  0.25086038  1
  S  S64  1  0.64981189  0.00252193  0.24985984  1
  S  S65  1  0.99800858  0.29746142  0.25354355  1
  S  S66  1  0.49842669  0.29529082  0.25234250  1
  S  S67  1  0.14776796  0.29539910  0.75286824  1
  S  S68  1  0.64913426  0.29751214  0.75279222  1
  S  S69  1  0.99927134  0.70291263  0.75347891  1
  S  S70  1  0.49967266  0.70298950  0.75226092  1
  S  S71  1  0.48330961  0.33802381  0.58289570  1
  S  S72  1  0.98288529  0.34002078  0.58392223  1
  S  S73  1  0.33118257  0.62707764  0.58491046  1
  S  S74  1  0.83145154  0.62792281  0.58466247  1
  S  S75  1  0.48335227  0.62650952  0.08300058  1
  S  S76  1  0.98339006  0.62641185  0.08287707  1
  S  S77  1  0.33276116  0.04058616  0.08232570  1
  S  S78  1  0.83310416  0.04166053  0.08217125  1
  S  S79  1  0.31912870  0.66924086  0.91791525  1
  S  S80  1  0.81795249  0.66928155  0.91690638  1
  S  S81  1  0.01750196  0.36969373  0.91688256  1
  S  S82  1  0.51730144  0.36876201  0.91805939  1
  S  S83  1  0.16461995  0.96612899  0.91836401  1
  S  S84  1  0.66505402  0.96482384  0.91769978  1
  S  S85  1  0.31527275  0.96159070  0.41794896  1
  S  S86  1  0.82018182  0.96961288  0.41912729  1
  S  S87  1  0.16143469  0.36727137  0.41726483  1
  S  S88  1  0.66802085  0.36944943  0.41703074  1
  S  S89  1  0.01808161  0.66742401  0.41679012  1
  O  O90  1  0.10565660  0.03298679  0.30114581  1
  O  O91  1  0.60768787  0.02985319  0.30191214  1
  O  O92  1  0.40906217  0.79433089  0.30639959  1
  O  O93  1  0.91900696  0.80276884  0.30107895  1
  O  O94  1  0.49137821  0.19150475  0.30362580  1
  O  O95  1  0.99067062  0.19391324  0.30450449  1
  O  O96  1  0.10796811  0.18096395  0.80444712  1
  O  O97  1  0.60697680  0.18421194  0.80389361  1
  O  O98  1  0.49057918  0.79319548  0.80317927  1
  O  O99  1  0.98922528  0.78886961  0.80544308  1
  O  O100  1  0.40993754  0.01248914  0.80570500  1
  O  O101  1  0.91817002  0.03540794  0.80305129  1
  O  O102  1  0.38798909  0.95933720  0.68892035  1
  O  O103  1  0.88937576  0.95670415  0.68890992  1
  O  O104  1  0.09565482  0.22449417  0.69961883  1
  O  O105  1  0.60167804  0.22841708  0.69787675  1
  O  O106  1  0.02080050  0.81092729  0.69959406  1
  O  O107  1  0.51920283  0.80770915  0.69662012  1
  O  O108  1  0.38901019  0.80302515  0.18691223  1
  O  O109  1  0.88631982  0.80188569  0.18532742  1
  O  O110  1  0.02135140  0.23578375  0.19854786  1
  O  O111  1  0.51786110  0.22913298  0.19707763  1
  O  O112  1  0.09798607  0.97067292  0.19547438  1
  O  O113  1  0.59848479  0.97602327  0.19566099  1
  O  O114  1  0.44181534  0.36641390  0.63543418  1
  O  O115  1  0.94394662  0.36326205  0.63905910  1
  O  O116  1  0.23840642  0.11486543  0.64435972  1
  O  O117  1  0.74040414  0.12167893  0.64170504  1
  O  O118  1  0.32586197  0.52913846  0.63884538  1
  O  O119  1  0.82672385  0.53221871  0.63925619  1
  O  O120  1  0.44403317  0.52408995  0.13703835  1
  O  O121  1  0.94425407  0.52466775  0.13718610  1
  O  O122  1  0.32531319  0.12927297  0.13423535  1
  O  O123  1  0.82578837  0.13051760  0.13405065  1
  O  O124  1  0.23982961  0.36009794  0.14422259  1
  O  O125  1  0.73959821  0.36085306  0.14361498  1
  O  O126  1  0.22106125  0.27897890  0.02919916  1
  O  O127  1  0.72106035  0.27966695  0.02864793  1
  O  O128  1  0.43035101  0.54514817  0.03063583  1
  O  O129  1  0.93039014  0.54415013  0.03061023  1
  O  O130  1  0.34953939  0.14184215  0.02712808  1
  O  O131  1  0.85004927  0.14305049  0.02689022  1
  O  O132  1  0.22704592  0.14995244  0.52615419  1
  O  O133  1  0.72122091  0.13607377  0.52223991  1
  O  O134  1  0.34794843  0.55396097  0.53096271  1
  O  O135  1  0.84756792  0.55291108  0.53131327  1
  O  O136  1  0.43208809  0.31098635  0.52980211  1
  O  O137  1  0.92863015  0.31554921  0.53237653  1
  O  O138  1  0.27132938  0.68279096  0.96922470  1
  O  O139  1  0.77116465  0.68208666  0.96891485  1
  O  O140  1  0.07107467  0.46600910  0.96623373  1
  O  O141  1  0.56933410  0.46117069  0.96874629  1
  O  O142  1  0.15753920  0.86058707  0.97015175  1
  O  O143  1  0.65824776  0.86072192  0.96996534  1
  O  O144  1  0.27168494  0.85222243  0.47031048  1
  O  O145  1  0.77820142  0.86767517  0.47303189  1
  O  O146  1  0.15383515  0.46113109  0.46738990  1
  O  O147  1  0.66286088  0.46325294  0.46759848  1
  O  O148  1  0.07123564  0.67831123  0.46604225  1
  O  O149  1  0.57617263  0.69254745  0.47409833  1
  O  O150  1  0.05457480  0.64302296  0.35911967  1
  O  O151  1  0.55822261  0.64159820  0.35534333  1
  O  O152  1  0.26379166  0.88534672  0.36412277  1
  O  O153  1  0.76533004  0.89232664  0.36681007  1
  O  O154  1  0.17476920  0.46581127  0.36009553  1
  O  O155  1  0.68098573  0.46284505  0.35995107  1
  O  O156  1  0.05505649  0.46734429  0.85939828  1
  O  O157  1  0.55512620  0.46968101  0.86205038  1
  O  O158  1  0.17365725  0.88786497  0.86197208  1
  O  O159  1  0.67537547  0.88724692  0.86174095  1
  O  O160  1  0.26913979  0.64011482  0.86241590  1
  O  O161  1  0.76852327  0.64339391  0.86170617  1
  O  O162  1  0.01176529  0.82309010  0.41316197  1
  O  O163  1  0.50987227  0.84163898  0.41345932  1
  O  O164  1  0.39992953  0.97416857  0.41176376  1
  O  O165  1  0.90538546  0.98849797  0.41154229  1
  O  O166  1  0.08576275  0.19527147  0.41284434  1
  O  O167  1  0.59054444  0.19683877  0.41411895  1
  O  O168  1  0.01114090  0.20131321  0.91378298  1
  O  O169  1  0.51116114  0.20058250  0.91402625  1
  O  O170  1  0.08769892  0.98367639  0.91491722  1
  O  O171  1  0.58850153  0.98283923  0.91408955  1
  O  O172  1  0.40393128  0.82439465  0.91330596  1
  O  O173  1  0.90318141  0.82515766  0.91228372  1
  O  O174  1  0.48692154  0.17697544  0.58827398  1
  O  O175  1  0.98463631  0.17669716  0.58706122  1
  O  O176  1  0.08629292  0.00994370  0.58718233  1
  O  O177  1  0.58332363  0.99938335  0.58861075  1
  O  O178  1  0.40854042  0.80457866  0.58641267  1
  O  O179  1  0.90556989  0.80725533  0.58532283  1
  O  O180  1  0.48937107  0.79806635  0.08613785  1
  O  O181  1  0.98948674  0.79785511  0.08593096  1
  O  O182  1  0.40443006  0.00362997  0.08492998  1
  O  O183  1  0.90510933  0.00548416  0.08483563  1
  O  O184  1  0.08627421  0.15343389  0.09041171  1
  O  O185  1  0.58639503  0.15364061  0.08931345  1
  O  O186  1  0.33832053  0.16781859  0.74740060  1
  O  O187  1  0.84318821  0.17330752  0.74496454  1
  O  O188  1  0.23628354  0.32825725  0.74480173  1
  O  O189  1  0.73759671  0.32265233  0.74651224  1
  O  O190  1  0.41916681  0.53720563  0.74604234  1
  O  O191  1  0.91899155  0.53544810  0.74670422  1
  O  O192  1  0.34370162  0.50985666  0.24743924  1
  O  O193  1  0.84275385  0.51112335  0.24651109  1
  O  O194  1  0.42079580  0.30946577  0.24629495  1
  O  O195  1  0.92025985  0.30989363  0.24612455  1
  O  O196  1  0.23540692  0.14811317  0.24395749  1
  O  O197  1  0.73630841  0.15424139  0.24357095  1
  O  O198  1  0.32932690  0.51561422  0.92137383  1
  O  O199  1  0.82848652  0.51542666  0.91996232  1
  O  O200  1  0.42946083  0.34824706  0.92218218  1
  O  O201  1  0.93013551  0.35083671  0.92102540  1
  O  O202  1  0.24477545  0.13717258  0.91864870  1
  O  O203  1  0.74548327  0.13694387  0.91811434  1
  O  O204  1  0.32590122  0.13415222  0.42060127  1
  O  O205  1  0.82726604  0.14303762  0.42174846  1
  O  O206  1  0.24235167  0.35959812  0.41939383  1
  O  O207  1  0.74504683  0.34420807  0.41890082  1
  O  O208  1  0.41731507  0.50001247  0.42077286  1
  O  O209  1  0.93015678  0.51074207  0.42154257  1
  O  O210  1  0.17954440  0.50887939  0.07749273  1
  O  O211  1  0.67953617  0.50964894  0.07741028  1
  O  O212  1  0.07173851  0.65689608  0.07526857  1
  O  O213  1  0.57183018  0.65795489  0.07533283  1
  O  O214  1  0.25070614  0.87223217  0.07807576  1
  O  O215  1  0.75121614  0.87340744  0.07788848  1
  O  O216  1  0.17872872  0.84645079  0.57786265  1
  O  O217  1  0.67507746  0.84074728  0.58066819  1
  O  O218  1  0.25375611  0.64124826  0.58018082  1
  O  O219  1  0.75207632  0.63626578  0.58004934  1
  O  O220  1  0.06958515  0.48666968  0.57623676  1
  O  O221  1  0.57004889  0.48715548  0.57691301  1
  O  O222  1  0.14947370  0.83766924  0.25764292  1
  O  O223  1  0.65451304  0.84346647  0.25448214  1
  O  O224  1  0.25104128  0.66654521  0.25223799  1
  O  O225  1  0.75246660  0.67130917  0.25588304  1
  O  O226  1  0.07308059  0.47872356  0.25753694  1
  O  O227  1  0.57515980  0.47319801  0.25476059  1
  O  O228  1  0.15200865  0.46514447  0.76015496  1
  O  O229  1  0.65971790  0.47186173  0.75870982  1
  O  O230  1  0.07255123  0.66941331  0.75868145  1
  O  O231  1  0.57574200  0.67948535  0.75710483  1
  O  O232  1  0.25393995  0.82536702  0.75377578  1
  O  O233  1  0.75552986  0.82837430  0.75545277  1
