# generated using pymatgen
data_Nb2Zn2SiS5O24
_symmetry_space_group_name_H-M   'P 1'
_cell_length_a   8.81513783
_cell_length_b   8.80892475
_cell_length_c   22.66444899
_cell_angle_alpha   89.85925751
_cell_angle_beta   89.92574505
_cell_angle_gamma   119.84584879
_symmetry_Int_Tables_number   1
_chemical_formula_structural   Nb2Zn2SiS5O24
_chemical_formula_sum   'Nb6 Zn6 Si3 S15 O72'
_cell_volume   1526.50127740
_cell_formula_units_Z   3
loop_
 _symmetry_equiv_pos_site_id
 _symmetry_equiv_pos_as_xyz
  1  'x, y, z'
loop_
 _atom_site_type_symbol
 _atom_site_label
 _atom_site_symmetry_multiplicity
 _atom_site_fract_x
 _atom_site_fract_y
 _atom_site_fract_z
 _atom_site_occupancy
  Nb  Nb0  1  0.00440927  0.00653466  0.14054790  1
  Nb  Nb1  1  0.65467631  0.32990070  0.97660570  1
  Nb  Nb2  1  0.67695127  0.32446257  0.47850803  1
  Nb  Nb3  1  0.33998649  0.66888204  0.52654927  1
  Nb  Nb4  1  0.34184035  0.67540321  0.30970527  1
  Nb  Nb5  1  0.32877630  0.66294221  0.80712022  1
  Zn  Zn6  1  0.99510366  0.00089428  0.35634285  1
  Zn  Zn7  1  0.00079273  0.00229165  0.85084515  1
  Zn  Zn8  1  0.99732880  0.00710045  0.64374174  1
  Zn  Zn9  1  0.67659747  0.33612426  0.68658079  1
  Zn  Zn10  1  0.66268726  0.33582103  0.18602111  1
  Zn  Zn11  1  0.33151366  0.66027528  0.02138839  1
  Si  Si12  1  0.95603287  0.32492693  0.58945520  1
  Si  Si13  1  0.38667844  0.34991844  0.08660811  1
  Si  Si14  1  0.62897543  0.95343497  0.41695876  1
  S  S15  1  0.28637586  0.00323629  0.25147608  1
  S  S16  1  0.71628712  0.70870531  0.25091713  1
  S  S17  1  0.99553433  0.28815979  0.25008567  1
  S  S18  1  0.29447860  0.28374069  0.75034559  1
  S  S19  1  0.99234883  0.71274257  0.75047116  1
  S  S20  1  0.71393324  0.00511233  0.75132939  1
  S  S21  1  0.37624784  0.04726926  0.58441180  1
  S  S22  1  0.67181209  0.62011510  0.58429643  1
  S  S23  1  0.95532262  0.61857003  0.08404753  1
  S  S24  1  0.66189416  0.04435338  0.08403905  1
  S  S25  1  0.62583602  0.67443280  0.91648165  1
  S  S26  1  0.04503747  0.37480064  0.91700997  1
  S  S27  1  0.32801998  0.94923340  0.91750003  1
  S  S28  1  0.33333646  0.37994359  0.41686578  1
  S  S29  1  0.04928550  0.66989643  0.41647230  1
  O  O30  1  0.20461458  0.02470776  0.30398650  1
  O  O31  1  0.81732477  0.79008187  0.30346443  1
  O  O32  1  0.97113918  0.18254838  0.30213967  1
  O  O33  1  0.21733629  0.18626872  0.80469878  1
  O  O34  1  0.97641897  0.79303010  0.80461786  1
  O  O35  1  0.81444369  0.02709037  0.80483090  1
  O  O36  1  0.77562661  0.95523516  0.69923186  1
  O  O37  1  0.18291704  0.22147216  0.69856665  1
  O  O38  1  0.03886212  0.82278034  0.69784814  1
  O  O39  1  0.78983662  0.82300226  0.19751345  1
  O  O40  1  0.02860753  0.20185265  0.19617499  1
  O  O41  1  0.17139736  0.96873011  0.19778541  1
  O  O42  1  0.87513284  0.38227827  0.64068490  1
  O  O43  1  0.48477975  0.11553522  0.63621215  1
  O  O44  1  0.62489754  0.51096752  0.63660451  1
  O  O45  1  0.88221661  0.51566296  0.13716957  1
  O  O46  1  0.64255417  0.12303745  0.13737339  1
  O  O47  1  0.49408608  0.35884300  0.14238209  1
  O  O48  1  0.47750224  0.30293691  0.02643197  1
  O  O49  1  0.83893277  0.53840804  0.03077012  1
  O  O50  1  0.70419773  0.16263285  0.03025925  1
  O  O51  1  0.46382234  0.15764627  0.52973609  1
  O  O52  1  0.68603206  0.53185880  0.52959416  1
  O  O53  1  0.83181273  0.30861063  0.52706268  1
  O  O54  1  0.54752819  0.69835470  0.96918875  1
  O  O55  1  0.15014074  0.45534588  0.96884127  1
  O  O56  1  0.30720507  0.84859175  0.97060798  1
  O  O57  1  0.51602877  0.82937912  0.47196501  1
  O  O58  1  0.30532649  0.46485935  0.46930447  1
  O  O59  1  0.15595116  0.68867971  0.46913953  1
  O  O60  1  0.12675494  0.63138352  0.36303942  1
  O  O61  1  0.49161049  0.85507334  0.35886588  1
  O  O62  1  0.36006260  0.49557024  0.36314848  1
  O  O63  1  0.12944425  0.49313189  0.86335701  1
  O  O64  1  0.36441286  0.87059214  0.86431118  1
  O  O65  1  0.50876268  0.63388480  0.86377869  1
  O  O66  1  0.03393410  0.82346259  0.40821893  1
  O  O67  1  0.81421047  0.97665257  0.40779401  1
  O  O68  1  0.18299447  0.20982501  0.40820336  1
  O  O69  1  0.02059339  0.20196622  0.90598667  1
  O  O70  1  0.18534953  0.98285327  0.90772192  1
  O  O71  1  0.80098126  0.81809760  0.90605613  1
  O  O72  1  0.97994568  0.15987194  0.58850246  1
  O  O73  1  0.20147849  0.02103108  0.58812970  1
  O  O74  1  0.82234625  0.79272459  0.58853694  1
  O  O75  1  0.96272576  0.79637414  0.09299691  1
  O  O76  1  0.82768289  0.02854556  0.09179253  1
  O  O77  1  0.18898918  0.15894674  0.09499154  1
  O  O78  1  0.67620428  0.14665450  0.74448077  1
  O  O79  1  0.47260515  0.31884834  0.74230058  1
  O  O80  1  0.84813515  0.53545726  0.74543644  1
  O  O81  1  0.68800288  0.53422738  0.24300076  1
  O  O82  1  0.84780112  0.31300458  0.23843566  1
  O  O83  1  0.46300341  0.14418537  0.24282314  1
  O  O84  1  0.64129911  0.50683202  0.92461995  1
  O  O85  1  0.86851274  0.36321358  0.92456008  1
  O  O86  1  0.49894401  0.12903122  0.92450444  1
  O  O87  1  0.62820780  0.14094162  0.42583113  1
  O  O88  1  0.49670662  0.37398051  0.42454939  1
  O  O89  1  0.87142283  0.51046165  0.42423119  1
  O  O90  1  0.34471496  0.49790504  0.07204497  1
  O  O91  1  0.13100830  0.65506820  0.07254163  1
  O  O92  1  0.51634720  0.87306463  0.07284261  1
  O  O93  1  0.36054835  0.86850015  0.57287620  1
  O  O94  1  0.50851086  0.63914343  0.57304306  1
  O  O95  1  0.14414463  0.50172002  0.56799592  1
  O  O96  1  0.29395039  0.83193837  0.25784723  1
  O  O97  1  0.53186876  0.69204074  0.25869968  1
  O  O98  1  0.15982037  0.46390620  0.25717917  1
  O  O99  1  0.31212439  0.47148679  0.76229482  1
  O  O100  1  0.16199341  0.69258156  0.76176841  1
  O  O101  1  0.52707153  0.83616703  0.76374644  1
