# generated using pymatgen
data_Na10Hf4Mg4Si5S7O48
_symmetry_space_group_name_H-M   'P 1'
_cell_length_a   18.00579146
_cell_length_b   9.05323276
_cell_length_c   22.60047561
_cell_angle_alpha   89.96130993
_cell_angle_beta   89.53483256
_cell_angle_gamma   120.15439033
_symmetry_Int_Tables_number   1
_chemical_formula_structural   Na10Hf4Mg4Si5S7O48
_chemical_formula_sum   'Na30 Hf12 Mg12 Si15 S21 O144'
_cell_volume   3185.41105438
_cell_formula_units_Z   3
loop_
 _symmetry_equiv_pos_site_id
 _symmetry_equiv_pos_as_xyz
  1  'x, y, z'
loop_
 _atom_site_type_symbol
 _atom_site_label
 _atom_site_symmetry_multiplicity
 _atom_site_fract_x
 _atom_site_fract_y
 _atom_site_fract_z
 _atom_site_occupancy
  Na  Na0  1  0.32608051  0.02573965  0.25177518  1
  Na  Na1  1  0.67319898  0.34217107  0.25366535  1
  Na  Na2  1  0.99809434  0.63593108  0.23768001  1
  Na  Na3  1  0.49926926  0.62819531  0.23607290  1
  Na  Na4  1  0.32285284  0.62136929  0.75504079  1
  Na  Na5  1  0.82255181  0.62136154  0.75353889  1
  Na  Na6  1  0.99744759  0.36831263  0.73616527  1
  Na  Na7  1  0.49789999  0.36908956  0.73626803  1
  Na  Na8  1  0.17319318  0.00648132  0.75178811  1
  Na  Na9  1  0.67433601  0.00705314  0.75076324  1
  Na  Na10  1  0.33400404  0.97066345  0.57024149  1
  Na  Na11  1  0.83394837  0.97169393  0.56914357  1
  Na  Na12  1  0.33469077  0.69763427  0.06983718  1
  Na  Na13  1  0.83280859  0.69657721  0.06898518  1
  Na  Na14  1  0.48230585  0.67997727  0.90845907  1
  Na  Na15  1  0.98231384  0.68009417  0.90710991  1
  Na  Na16  1  0.48396298  0.28730196  0.40591680  1
  Na  Na17  1  0.16571678  0.02836834  0.40476291  1
  Na  Na18  1  0.98595297  0.00838368  0.49292323  1
  Na  Na19  1  0.49997863  0.99820330  0.49315273  1
  Na  Na20  1  0.99638566  0.00261633  0.99159484  1
  Na  Na21  1  0.49521404  0.99689602  0.99421970  1
  Na  Na22  1  0.32467568  0.34380204  0.82823363  1
  Na  Na23  1  0.82485500  0.34365436  0.82729779  1
  Na  Na24  1  0.32725213  0.32603493  0.32192664  1
  Na  Na25  1  0.81743063  0.27619932  0.33029905  1
  Na  Na26  1  0.15256867  0.66352285  0.15615079  1
  Na  Na27  1  0.64965273  0.67256371  0.15927293  1
  Na  Na28  1  0.14548079  0.63080881  0.65823593  1
  Na  Na29  1  0.64801535  0.63373928  0.65683415  1
  Hf  Hf30  1  0.00610145  0.00875604  0.64753986  1
  Hf  Hf31  1  0.50718798  0.01043756  0.64779758  1
  Hf  Hf32  1  0.00408267  0.99553320  0.14683736  1
  Hf  Hf33  1  0.50679320  0.00383563  0.14830826  1
  Hf  Hf34  1  0.33474066  0.34424280  0.98112446  1
  Hf  Hf35  1  0.83492243  0.34315459  0.98069385  1
  Hf  Hf36  1  0.33824885  0.33404119  0.48123724  1
  Hf  Hf37  1  0.83724419  0.32490812  0.47990451  1
  Hf  Hf38  1  0.16862954  0.67314984  0.31602506  1
  Hf  Hf39  1  0.67109420  0.68369586  0.31347432  1
  Hf  Hf40  1  0.16798694  0.65843616  0.81534125  1
  Hf  Hf41  1  0.66794168  0.65884123  0.81551686  1
  Mg  Mg42  1  0.99737293  0.00377113  0.35272493  1
  Mg  Mg43  1  0.50062301  0.00511628  0.35094698  1
  Mg  Mg44  1  0.99895680  0.99493364  0.85107829  1
  Mg  Mg45  1  0.49912895  0.99485607  0.85154468  1
  Mg  Mg46  1  0.33917441  0.34547029  0.68458924  1
  Mg  Mg47  1  0.83908407  0.34545109  0.68443235  1
  Mg  Mg48  1  0.33668417  0.33279015  0.18545627  1
  Mg  Mg49  1  0.83455114  0.32500153  0.18439142  1
  Mg  Mg50  1  0.16550094  0.66827470  0.01846093  1
  Mg  Mg51  1  0.66448558  0.66735250  0.01883616  1
  Mg  Mg52  1  0.16308491  0.65534944  0.51891529  1
  Mg  Mg53  1  0.66724212  0.66343465  0.51811239  1
  Si  Si54  1  0.14778243  0.00555624  0.25541162  1
  Si  Si55  1  0.65036917  0.00974720  0.25219931  1
  Si  Si56  1  0.49938107  0.29544688  0.25399578  1
  Si  Si57  1  0.14727190  0.28912941  0.75226130  1
  Si  Si58  1  0.64745995  0.28975837  0.75254412  1
  Si  Si59  1  0.99917753  0.70429790  0.75408155  1
  Si  Si60  1  0.49922830  0.70442167  0.75412755  1
  Si  Si61  1  0.48546526  0.33679294  0.58563381  1
  Si  Si62  1  0.98413863  0.33600103  0.58671033  1
  Si  Si63  1  0.48443996  0.63274426  0.08617465  1
  Si  Si64  1  0.98379582  0.62495840  0.08708964  1
  Si  Si65  1  0.31700804  0.67748999  0.92185247  1
  Si  Si66  1  0.81705506  0.67810701  0.92194947  1
  Si  Si67  1  0.31618519  0.95612905  0.42267987  1
  Si  Si68  1  0.81794446  0.95833346  0.42180221  1
  S  S69  1  0.35324371  0.70855600  0.25100869  1
  S  S70  1  0.85545584  0.71169249  0.25072056  1
  S  S71  1  0.99978613  0.29036292  0.25125968  1
  S  S72  1  0.35416361  -0.00151564  0.75057874  1
  S  S73  1  0.85425213  -0.00152623  0.75102879  1
  S  S74  1  0.18744037  0.04223742  0.58459536  1
  S  S75  1  0.68793698  0.04253729  0.58530755  1
  S  S76  1  0.33234861  0.62689529  0.58548687  1
  S  S77  1  0.83258092  0.62587326  0.58506674  1
  S  S78  1  0.33232466  0.03919693  0.08529082  1
  S  S79  1  0.83315643  0.04045325  0.08463992  1
  S  S80  1  0.18807333  0.33291440  0.08602451  1
  S  S81  1  0.68716821  0.33354467  0.08519639  1
  S  S82  1  0.02060393  0.37006240  0.91864379  1
  S  S83  1  0.52021304  0.36948306  0.91856477  1
  S  S84  1  0.16850256  0.96097337  0.91756628  1
  S  S85  1  0.66878314  0.96120400  0.91755674  1
  S  S86  1  0.16635176  0.37388127  0.41855685  1
  S  S87  1  0.66907841  0.37666582  0.41724098  1
  S  S88  1  0.01992485  0.66539494  0.41820062  1
  S  S89  1  0.52220467  0.67247863  0.41766352  1
  O  O90  1  0.10283621  0.01728100  0.31524711  1
  O  O91  1  0.60228148  0.03505479  0.30750400  1
  O  O92  1  0.40628936  0.79089977  0.30236921  1
  O  O93  1  0.91007077  0.79903335  0.30061212  1
  O  O94  1  0.48123307  0.18126043  0.31280093  1
  O  O95  1  0.99044837  0.19005087  0.30369785  1
  O  O96  1  0.10058329  0.16952668  0.80792529  1
  O  O97  1  0.60025391  0.16922992  0.80786112  1
  O  O98  1  0.48189685  0.78204188  0.81311653  1
  O  O99  1  0.98254708  0.78261835  0.81317542  1
  O  O100  1  0.40808826  0.02659468  0.80169111  1
  O  O101  1  0.90806408  0.02632000  0.80219030  1
  O  O102  1  0.39122760  0.96764842  0.69535941  1
  O  O103  1  0.89147954  0.96781139  0.69594525  1
  O  O104  1  0.08408868  0.20886014  0.69307271  1
  O  O105  1  0.58425145  0.21026414  0.69314170  1
  O  O106  1  0.01496754  0.83415618  0.69700506  1
  O  O107  1  0.51451021  0.83430452  0.69707310  1
  O  O108  1  0.39043019  0.81556244  0.19603433  1
  O  O109  1  0.89154156  0.81368876  0.19425766  1
  O  O110  1  0.00986711  0.20947083  0.19638340  1
  O  O111  1  0.51313434  0.19343127  0.19712508  1
  O  O112  1  0.08048916  0.96598934  0.19845726  1
  O  O113  1  0.58706128  0.96673058  0.19257808  1
  O  O114  1  0.43699608  0.34402101  0.64474522  1
  O  O115  1  0.93861606  0.34424591  0.64718957  1
  O  O116  1  0.23830009  0.12903164  0.63700552  1
  O  O117  1  0.73661816  0.12563258  0.63896857  1
  O  O118  1  0.32308631  0.52995649  0.63980031  1
  O  O119  1  0.82404241  0.53051219  0.63988388  1
  O  O120  1  0.43594848  0.52913601  0.14517657  1
  O  O121  1  0.93702539  0.52164031  0.14682232  1
  O  O122  1  0.32340148  0.11731797  0.13967258  1
  O  O123  1  0.82309459  0.12165338  0.13730662  1
  O  O124  1  0.23958565  0.34790738  0.13726207  1
  O  O125  1  0.73721330  0.35031402  0.13824492  1
  O  O126  1  0.22617956  0.30457052  0.03066934  1
  O  O127  1  0.73012503  0.30942977  0.03159118  1
  O  O128  1  0.41849845  0.53101196  0.02786659  1
  O  O129  1  0.91830815  0.52889030  0.02923113  1
  O  O130  1  0.33962093  0.14336088  0.03190231  1
  O  O131  1  0.84312977  0.14234585  0.03000906  1
  O  O132  1  0.22946376  0.14887493  0.52978724  1
  O  O133  1  0.73044148  0.15051938  0.53192088  1
  O  O134  1  0.34035994  0.53675497  0.53223868  1
  O  O135  1  0.84094482  0.53819539  0.53204013  1
  O  O136  1  0.41988755  0.30764512  0.52706908  1
  O  O137  1  0.91712299  0.30623626  0.53046485  1
  O  O138  1  0.26778926  0.68139716  0.98076170  1
  O  O139  1  0.76792268  0.68236538  0.98079449  1
  O  O140  1  0.07233678  0.45875723  0.97012446  1
  O  O141  1  0.57205857  0.45826518  0.96976460  1
  O  O142  1  0.15599433  0.84723277  0.96749345  1
  O  O143  1  0.65671788  0.84777368  0.96731026  1
  O  O144  1  0.26529757  0.85149060  0.48055393  1
  O  O145  1  0.77286715  0.85811768  0.48232433  1
  O  O146  1  0.15685436  0.45641291  0.47042453  1
  O  O147  1  0.65619542  0.46514519  0.46687860  1
  O  O148  1  0.07411293  0.68325407  0.46802717  1
  O  O149  1  0.57307183  0.68743599  0.46926066  1
  O  O150  1  0.05773035  0.63535434  0.36186068  1
  O  O151  1  0.55890580  0.63613354  0.36277678  1
  O  O152  1  0.25315530  0.86381845  0.36259975  1
  O  O153  1  0.75413859  0.85658256  0.36484082  1
  O  O154  1  0.17599310  0.47542284  0.36333009  1
  O  O155  1  0.67877265  0.47202489  0.36035909  1
  O  O156  1  0.05878143  0.48129817  0.86363750  1
  O  O157  1  0.55821974  0.48105799  0.86341506  1
  O  O158  1  0.17857137  0.88355282  0.86094657  1
  O  O159  1  0.67951519  0.88524724  0.86084877  1
  O  O160  1  0.25896088  0.65361091  0.86133761  1
  O  O161  1  0.75874453  0.65391487  0.86166569  1
  O  O162  1  0.01333444  0.81991785  0.41209500  1
  O  O163  1  0.50930359  0.81755516  0.41048182  1
  O  O164  1  0.41244240  0.98949639  0.41597203  1
  O  O165  1  0.91245619  0.98520478  0.41145928  1
  O  O166  1  0.09323079  0.19785623  0.41355700  1
  O  O167  1  0.59330992  0.20278101  0.41415593  1
  O  O168  1  0.00912791  0.20120608  0.91139955  1
  O  O169  1  0.50890532  0.20061415  0.91106685  1
  O  O170  1  0.09313300  0.98324443  0.91401255  1
  O  O171  1  0.59341355  0.98335543  0.91398309  1
  O  O172  1  0.41345161  0.83935668  0.91617931  1
  O  O173  1  0.91356374  0.83990733  0.91608448  1
  O  O174  1  0.48434994  0.14915351  0.58580279  1
  O  O175  1  0.98397653  0.14910219  0.58641345  1
  O  O176  1  0.10018917  0.02328103  0.58629652  1
  O  O177  1  0.60003835  0.02294961  0.58670912  1
  O  O178  1  0.41263913  0.79967564  0.58644141  1
  O  O179  1  0.91249234  0.80078493  0.58685147  1
  O  O180  1  0.48413340  0.81921019  0.08615941  1
  O  O181  1  0.98513325  0.81566020  0.08897430  1
  O  O182  1  0.41239810  0.02572730  0.08630416  1
  O  O183  1  0.91427575  0.02811795  0.08790589  1
  O  O184  1  0.09903770  0.17925319  0.08999823  1
  O  O185  1  0.59986530  0.17808739  0.08663626  1
  O  O186  1  0.33855562  0.14246377  0.74356083  1
  O  O187  1  0.83846812  0.14224453  0.74429838  1
  O  O188  1  0.24220876  0.31294773  0.74209429  1
  O  O189  1  0.74226624  0.31356431  0.74234943  1
  O  O190  1  0.41946789  0.51176337  0.74523655  1
  O  O191  1  0.91909984  0.51214924  0.74553713  1
  O  O192  1  0.34013745  0.53634924  0.24417571  1
  O  O193  1  0.84605444  0.54018894  0.24497802  1
  O  O194  1  0.42042341  0.33078664  0.24484789  1
  O  O195  1  0.92587132  0.31905967  0.24655231  1
  O  O196  1  0.24399521  0.16026781  0.24434882  1
  O  O197  1  0.74353653  0.17959332  0.24238644  1
  O  O198  1  0.32600262  0.49672117  0.92191906  1
  O  O199  1  0.82696010  0.49800054  0.92229780  1
  O  O200  1  0.43266717  0.35584580  0.92273003  1
  O  O201  1  0.93332069  0.35742136  0.92265031  1
  O  O202  1  0.24870173  0.13071287  0.92279137  1
  O  O203  1  0.74891451  0.13172704  0.92300759  1
  O  O204  1  0.32060314  0.15138029  0.42262849  1
  O  O205  1  0.82355537  0.15213690  0.42259489  1
  O  O206  1  0.24730088  0.36146536  0.42109026  1
  O  O207  1  0.74893300  0.36617284  0.42322743  1
  O  O208  1  0.43372644  0.50969134  0.42204757  1
  O  O209  1  0.93191945  0.51315192  0.42254421  1
  O  O210  1  0.18061867  0.48713287  0.08027059  1
  O  O211  1  0.67943334  0.48677078  0.07894376  1
  O  O212  1  0.07793403  0.65308421  0.07627756  1
  O  O213  1  0.57827429  0.65742045  0.07594536  1
  O  O214  1  0.25809759  0.86312043  0.08072840  1
  O  O215  1  0.76038842  0.86393351  0.08005317  1
  O  O216  1  0.18001294  0.87354298  0.57944606  1
  O  O217  1  0.67982042  0.87304239  0.57990957  1
  O  O218  1  0.25855875  0.65432145  0.58018540  1
  O  O219  1  0.75827733  0.65299701  0.58086483  1
  O  O220  1  0.07754165  0.49888580  0.57601390  1
  O  O221  1  0.57871531  0.49968276  0.57508102  1
  O  O222  1  0.15217415  0.81964029  0.25731935  1
  O  O223  1  0.65655742  0.83194549  0.25629226  1
  O  O224  1  0.26604223  0.69587370  0.25667421  1
  O  O225  1  0.76696451  0.68641604  0.25561258  1
  O  O226  1  0.08011231  0.46648681  0.25425497  1
  O  O227  1  0.59074821  0.48262488  0.25702606  1
  O  O228  1  0.15859774  0.48468329  0.75721769  1
  O  O229  1  0.65879435  0.48517913  0.75752916  1
  O  O230  1  0.09036589  0.69716997  0.75720238  1
  O  O231  1  0.59052915  0.69804461  0.75721477  1
  O  O232  1  0.26739929  0.83869559  0.75633013  1
  O  O233  1  0.76754431  0.83844766  0.75658624  1
