# generated using pymatgen
data_Na15Ca8Ta4P15(SO24)3
_symmetry_space_group_name_H-M   'P 1'
_cell_length_a   9.20414657
_cell_length_b   9.21983640
_cell_length_c   22.76859914
_cell_angle_alpha   90.00228908
_cell_angle_beta   89.99951243
_cell_angle_gamma   119.81714544
_symmetry_Int_Tables_number   1
_chemical_formula_structural   Na15Ca8Ta4P15(SO24)3
_chemical_formula_sum   'Na15 Ca8 Ta4 P15 S3 O72'
_cell_volume   1676.37414306
_cell_formula_units_Z   1
loop_
 _symmetry_equiv_pos_site_id
 _symmetry_equiv_pos_as_xyz
  1  'x, y, z'
loop_
 _atom_site_type_symbol
 _atom_site_label
 _atom_site_symmetry_multiplicity
 _atom_site_fract_x
 _atom_site_fract_y
 _atom_site_fract_z
 _atom_site_occupancy
  Na  Na0  1  0.99718232  0.65301714  0.24585105  1
  Na  Na1  1  0.65927575  0.64564864  0.74989750  1
  Na  Na2  1  0.34779641  0.01198080  0.75022629  1
  Na  Na3  1  0.30594040  0.33775253  0.58446824  1
  Na  Na4  1  0.04411949  0.71549599  0.58115221  1
  Na  Na5  1  0.65695696  0.95097022  0.58272837  1
  Na  Na6  1  0.29647925  0.95223613  0.08346842  1
  Na  Na7  1  0.67091700  0.71373178  0.07654340  1
  Na  Na8  1  0.03175884  0.33899569  0.08493076  1
  Na  Na9  1  -0.00002498  0.99239868  0.48916274  1
  Na  Na10  1  0.99224105  0.99156699  0.98855330  1
  Na  Na11  1  0.68042938  0.33250067  0.82697005  1
  Na  Na12  1  0.65428210  0.30411001  0.32690571  1
  Na  Na13  1  0.34099258  0.67599833  0.16968332  1
  Na  Na14  1  0.32934019  0.66222751  0.66850368  1
  Ca  Ca15  1  0.00132129  0.00764855  0.35117391  1
  Ca  Ca16  1  0.00028749  0.00306002  0.85126643  1
  Ca  Ca17  1  0.00278990  0.00276702  0.65716284  1
  Ca  Ca18  1  0.00452577  0.01088360  0.15692396  1
  Ca  Ca19  1  0.67029400  0.33121497  0.68650399  1
  Ca  Ca20  1  0.66436174  0.32203315  0.18832607  1
  Ca  Ca21  1  0.33099224  0.66825460  0.01129212  1
  Ca  Ca22  1  0.33684147  0.67041949  0.51066711  1
  Ta  Ta23  1  0.67555216  0.33314547  0.97430173  1
  Ta  Ta24  1  0.65805966  0.33331930  0.47453641  1
  Ta  Ta25  1  0.32923777  0.66601755  0.32317866  1
  Ta  Ta26  1  0.33180197  0.66336628  0.82262574  1
  P  P27  1  0.30168233  0.98669899  0.25237398  1
  P  P28  1  0.01245808  0.31871973  0.25145292  1
  P  P29  1  0.30447048  0.31484687  0.75037786  1
  P  P30  1  0.01205322  0.69787347  0.75151828  1
  P  P31  1  0.68254314  0.98628783  0.75201250  1
  P  P32  1  0.37441990  0.04422740  0.58062885  1
  P  P33  1  0.67074682  0.62570021  0.58097564  1
  P  P34  1  0.95298135  0.62520931  0.08180756  1
  P  P35  1  0.66929213  0.04372658  0.07885479  1
  P  P36  1  0.62936889  0.65598057  0.92090263  1
  P  P37  1  0.03285028  0.37045244  0.92114562  1
  P  P38  1  0.34442628  0.97361307  0.91984353  1
  P  P39  1  0.62826949  0.97173913  0.42063183  1
  P  P40  1  0.33820088  0.37164976  0.42080117  1
  P  P41  1  0.02461307  0.65599977  0.42066929  1
  S  S42  1  0.68357872  0.69790456  0.25208136  1
  S  S43  1  0.95405100  0.33004618  0.57844069  1
  S  S44  1  0.37978949  0.33077084  0.07981542  1
  O  O45  1  0.19530625  0.99400282  0.30082085  1
  O  O46  1  0.79939934  0.78746899  0.29960864  1
  O  O47  1  0.98510191  0.19706763  0.29921993  1
  O  O48  1  0.21236967  0.18468327  0.79669289  1
  O  O49  1  0.98285063  0.79455044  0.79869664  1
  O  O50  1  0.79910033  0.00794217  0.80096271  1
  O  O51  1  0.73831920  0.94675860  0.69216392  1
  O  O52  1  0.21695664  0.26389846  0.68966002  1
  O  O53  1  0.06131948  0.79653600  0.69224625  1
  O  O54  1  0.74355630  0.78845053  0.19484286  1
  O  O55  1  0.04514432  0.26612199  0.19034595  1
  O  O56  1  0.20553992  0.94208865  0.19242481  1
  O  O57  1  0.87879107  0.34866882  0.63223825  1
  O  O58  1  0.46945795  0.12149643  0.63721959  1
  O  O59  1  0.65993207  0.53402005  0.63772175  1
  O  O60  1  0.87193288  0.53419629  0.13857224  1
  O  O61  1  0.64479137  0.12515313  0.13245049  1
  O  O62  1  0.47503155  0.35064023  0.13321848  1
  O  O63  1  0.47366629  0.31992706  0.02682977  1
  O  O64  1  0.83519562  0.51100467  0.02799387  1
  O  O65  1  0.67557487  0.15770622  0.02368348  1
  O  O66  1  0.48871116  0.16116369  0.52707621  1
  O  O67  1  0.67595141  0.51221959  0.52734584  1
  O  O68  1  0.84912725  0.32122433  0.52599977  1
  O  O69  1  0.55733568  0.67124301  0.97905758  1
  O  O70  1  0.11394771  0.43754411  0.98042047  1
  O  O71  1  0.32664405  0.88682709  0.97822626  1
  O  O72  1  0.56345381  0.88893620  0.47983700  1
  O  O73  1  0.32336423  0.43883036  0.47982221  1
  O  O74  1  0.11398724  0.67513176  0.47855606  1
  O  O75  1  0.13308251  0.63562013  0.36877831  1
  O  O76  1  0.49699323  0.86019053  0.37078814  1
  O  O77  1  0.36129549  0.50061462  0.37058379  1
  O  O78  1  0.14078954  0.49963457  0.87110605  1
  O  O79  1  0.36449400  0.86534229  0.86836943  1
  O  O80  1  0.50300525  0.63611598  0.86900432  1
  O  O81  1  0.99115040  0.79627215  0.40861737  1
  O  O82  1  0.80125219  0.00215842  0.40915591  1
  O  O83  1  0.19867900  0.19725103  0.41043208  1
  O  O84  1  0.99900164  0.19697362  0.91053222  1
  O  O85  1  0.20232663  0.00576562  0.90926408  1
  O  O86  1  0.80283309  0.79827765  0.91049163  1
  O  O87  1  0.96227191  0.17242397  0.57878020  1
  O  O88  1  0.20590164  0.04264811  0.57672789  1
  O  O89  1  0.83338051  0.79700379  0.57640189  1
  O  O90  1  0.96164155  0.79678918  0.07686347  1
  O  O91  1  0.83684052  0.04230045  0.07756706  1
  O  O92  1  0.21376982  0.17313759  0.08047037  1
  O  O93  1  0.63735481  0.12586535  0.74992722  1
  O  O94  1  0.48833727  0.35296435  0.74902922  1
  O  O95  1  0.86058506  0.52166765  0.74797994  1
  O  O96  1  0.66232157  0.52816564  0.24836122  1
  O  O97  1  0.87430007  0.36743195  0.25130338  1
  O  O98  1  0.47856866  0.13492030  0.25119706  1
  O  O99  1  0.63316339  0.48417467  0.92266563  1
  O  O100  1  0.85693902  0.36929371  0.92081551  1
  O  O101  1  0.51620219  0.14854810  0.92092676  1
  O  O102  1  0.63097055  0.14683054  0.42135972  1
  O  O103  1  0.51168696  0.36736507  0.42151689  1
  O  O104  1  0.85147768  0.48312881  0.42274212  1
  O  O105  1  0.35333822  0.47721501  0.07567334  1
  O  O106  1  0.12904042  0.64326462  0.07796093  1
  O  O107  1  0.51855351  0.86405865  0.07547407  1
  O  O108  1  0.34912973  0.86597703  0.57654875  1
  O  O109  1  0.51273126  0.64344659  0.57720016  1
  O  O110  1  0.12590988  0.47707666  0.57485646  1
  O  O111  1  0.31652503  0.82026761  0.26607096  1
  O  O112  1  0.51397225  0.68263560  0.26353763  1
  O  O113  1  0.18077382  0.49613994  0.26622061  1
  O  O114  1  0.31809638  0.49055691  0.76677705  1
  O  O115  1  0.17502033  0.68508794  0.76776100  1
  O  O116  1  0.50488705  0.81708520  0.76486549  1
