# generated using pymatgen
data_Na30Nb16Zn8Si27(SO16)9
_symmetry_space_group_name_H-M   'P 1'
_cell_length_a   18.11668343
_cell_length_b   9.06438333
_cell_length_c   22.65247143
_cell_angle_alpha   90.04491045
_cell_angle_beta   90.15393702
_cell_angle_gamma   120.13990754
_symmetry_Int_Tables_number   1
_chemical_formula_structural   Na30Nb16Zn8Si27(SO16)9
_chemical_formula_sum   'Na30 Nb16 Zn8 Si27 S9 O144'
_cell_volume   3216.96471132
_cell_formula_units_Z   1
loop_
 _symmetry_equiv_pos_site_id
 _symmetry_equiv_pos_as_xyz
  1  'x, y, z'
loop_
 _atom_site_type_symbol
 _atom_site_label
 _atom_site_symmetry_multiplicity
 _atom_site_fract_x
 _atom_site_fract_y
 _atom_site_fract_z
 _atom_site_occupancy
  Na  Na0  1  0.18432775  0.00780175  0.74314450  1
  Na  Na1  1  0.65543160  0.33757186  0.58743958  1
  Na  Na2  1  0.01351203  0.68332736  0.58708568  1
  Na  Na3  1  0.51217878  0.68014729  0.58696443  1
  Na  Na4  1  0.65498814  0.97249428  0.08655253  1
  Na  Na5  1  0.51106854  0.34428938  0.08667989  1
  Na  Na6  1  0.48169442  0.67972868  0.91052940  1
  Na  Na7  1  0.98368878  0.68224275  0.91130361  1
  Na  Na8  1  0.35570034  0.03301236  0.91561311  1
  Na  Na9  1  0.85594153  0.03368668  0.91336236  1
  Na  Na10  1  0.16037006  0.28850583  0.91549442  1
  Na  Na11  1  0.66066078  0.28788928  0.91344031  1
  Na  Na12  1  0.48269047  0.28499418  0.40923706  1
  Na  Na13  1  0.98336780  0.28830036  0.41505923  1
  Na  Na14  1  0.16095969  0.03430043  0.41479595  1
  Na  Na15  1  0.66029450  0.03287630  0.41307124  1
  Na  Na16  1  0.35693596  0.67836816  0.41404672  1
  Na  Na17  1  0.85549057  0.67775167  0.41374408  1
  Na  Na18  1  0.99988365  0.00890605  0.49560624  1
  Na  Na19  1  0.49635066  0.00169115  0.49357613  1
  Na  Na20  1  0.00072112  0.99983776  0.99277324  1
  Na  Na21  1  0.49548664  0.98980112  0.99302625  1
  Na  Na22  1  0.34271010  0.35545009  0.82606782  1
  Na  Na23  1  0.83698926  0.34251556  0.82261152  1
  Na  Na24  1  0.33812092  0.33178054  0.32209897  1
  Na  Na25  1  0.83255994  0.33296289  0.32524971  1
  Na  Na26  1  0.16676303  0.66687761  0.16246195  1
  Na  Na27  1  0.67037175  0.66563404  0.16765107  1
  Na  Na28  1  0.16888059  0.65523865  0.66592533  1
  Na  Na29  1  0.67091418  0.67582296  0.66890721  1
  Nb  Nb30  1  0.00133502  0.99560620  0.64365492  1
  Nb  Nb31  1  0.49970421  0.98854272  0.64477288  1
  Nb  Nb32  1  0.00179117  0.99872258  0.13995239  1
  Nb  Nb33  1  0.49754107  0.00949290  0.14388083  1
  Nb  Nb34  1  0.33282973  0.33574436  0.98213077  1
  Nb  Nb35  1  0.83475116  0.33579938  0.98174958  1
  Nb  Nb36  1  0.33394813  0.33216582  0.48203057  1
  Nb  Nb37  1  0.83429665  0.33185246  0.48169787  1
  Nb  Nb38  1  0.16625042  0.66248464  0.02251257  1
  Nb  Nb39  1  0.66917496  0.66753962  0.02045387  1
  Nb  Nb40  1  0.16778863  0.66707640  0.52193889  1
  Nb  Nb41  1  0.66903749  0.67264711  0.51998091  1
  Nb  Nb42  1  0.16672470  0.66714443  0.31459533  1
  Nb  Nb43  1  0.66209092  0.65575386  0.31283582  1
  Nb  Nb44  1  0.16137176  0.66467007  0.81536790  1
  Nb  Nb45  1  0.66233748  0.66816770  0.81351370  1
  Zn  Zn46  1  0.99912952  0.99910437  0.35392966  1
  Zn  Zn47  1  0.49973956  0.01010041  0.35219415  1
  Zn  Zn48  1  0.99670221  0.98587650  0.85349948  1
  Zn  Zn49  1  0.49907015  0.98776130  0.85361811  1
  Zn  Zn50  1  0.34259578  0.35345111  0.67933345  1
  Zn  Zn51  1  0.84043300  0.34760116  0.68052450  1
  Zn  Zn52  1  0.34024184  0.33274605  0.17940654  1
  Zn  Zn53  1  0.83406326  0.33457781  0.17341179  1
  Si  Si54  1  0.49390403  0.29013342  0.25355746  1
  Si  Si55  1  0.99493102  0.69889322  0.75286963  1
  Si  Si56  1  0.49518547  0.69814046  0.75385849  1
  Si  Si57  1  0.47916194  0.33008178  0.58461141  1
  Si  Si58  1  0.97849479  0.33071458  0.58543261  1
  Si  Si59  1  0.19224497  0.04747803  0.58812997  1
  Si  Si60  1  0.69318101  0.04623555  0.58741348  1
  Si  Si61  1  0.32948902  0.61775352  0.58533258  1
  Si  Si62  1  0.83147177  0.62120283  0.58502475  1
  Si  Si63  1  0.47874940  0.62679249  0.08512856  1
  Si  Si64  1  0.97874472  0.61696354  0.08664201  1
  Si  Si65  1  0.32812102  0.04083818  0.08513736  1
  Si  Si66  1  0.83369294  0.04601428  0.08588840  1
  Si  Si67  1  0.19391404  0.33953875  0.08804505  1
  Si  Si68  1  0.69092691  0.33946176  0.08604802  1
  Si  Si69  1  0.31012111  0.66536930  0.91643236  1
  Si  Si70  1  0.81061402  0.66429156  0.91502760  1
  Si  Si71  1  0.02003537  0.37262552  0.91744951  1
  Si  Si72  1  0.52022847  0.37442805  0.91682261  1
  Si  Si73  1  0.16778460  0.95881496  0.91823417  1
  Si  Si74  1  0.66800377  0.95981206  0.91769322  1
  Si  Si75  1  0.31155768  0.95769899  0.41718859  1
  Si  Si76  1  0.81098839  0.95722035  0.41407395  1
  Si  Si77  1  0.16734269  0.37717044  0.41659717  1
  Si  Si78  1  0.66787844  0.37631729  0.41756164  1
  Si  Si79  1  0.02099982  0.66610804  0.41697418  1
  Si  Si80  1  0.52040005  0.66637717  0.41634567  1
  S  S81  1  0.14366960  0.99763033  0.25190924  1
  S  S82  1  0.64731860  0.00115581  0.25115145  1
  S  S83  1  0.35364989  0.70984271  0.25169105  1
  S  S84  1  0.85574089  0.71074373  0.25143667  1
  S  S85  1  0.00005403  0.29028869  0.25143648  1
  S  S86  1  0.14457392  0.29218024  0.75143025  1
  S  S87  1  0.64552771  0.29198112  0.75125750  1
  S  S88  1  0.35465344  0.99855868  0.75145989  1
  S  S89  1  0.85490972  0.99860603  0.75132080  1
  O  O90  1  0.10308662  0.01162989  0.30648319  1
  O  O91  1  0.60563707  0.01423781  0.30508879  1
  O  O92  1  0.40136069  0.78715439  0.30648049  1
  O  O93  1  0.90417316  0.79055557  0.30633900  1
  O  O94  1  0.48975967  0.18830119  0.31235519  1
  O  O95  1  0.99261431  0.19615601  0.30650967  1
  O  O96  1  0.10424894  0.19466261  0.80542475  1
  O  O97  1  0.60311519  0.19551818  0.80486330  1
  O  O98  1  0.48983246  0.79212108  0.81200939  1
  O  O99  1  0.99309865  0.79526908  0.81163883  1
  O  O100  1  0.40310635  0.01885884  0.80587326  1
  O  O101  1  0.90312710  0.01903597  0.80616503  1
  O  O102  1  0.40018176  0.98089334  0.69843427  1
  O  O103  1  0.90086861  0.97815928  0.69878239  1
  O  O104  1  0.08935665  0.20557628  0.69795744  1
  O  O105  1  0.59064836  0.20669545  0.69651290  1
  O  O106  1  0.01338884  0.83420704  0.69416901  1
  O  O107  1  0.50987897  0.82903162  0.69395307  1
  O  O108  1  0.39841653  0.82141242  0.19906710  1
  O  O109  1  0.90031156  0.82127654  0.19902402  1
  O  O110  1  0.01193722  0.20339917  0.19923893  1
  O  O111  1  0.50963325  0.19023359  0.19414783  1
  O  O112  1  0.08775936  0.97334929  0.19928297  1
  O  O113  1  0.59341883  0.97696379  0.19683023  1
  O  O114  1  0.44451956  0.38749934  0.63830651  1
  O  O115  1  0.94446303  0.39088978  0.63873995  1
  O  O116  1  0.24351802  0.12014357  0.64780626  1
  O  O117  1  0.74843822  0.12959956  0.64386326  1
  O  O118  1  0.31116719  0.50786310  0.64229769  1
  O  O119  1  0.80463134  0.49701281  0.63931628  1
  O  O120  1  0.44530547  0.50090733  0.13906446  1
  O  O121  1  0.94190809  0.51039748  0.14462932  1
  O  O122  1  0.31346893  0.11610043  0.14299320  1
  O  O123  1  0.80604399  0.11273011  0.14128911  1
  O  O124  1  0.24922939  0.36971165  0.14486173  1
  O  O125  1  0.74387222  0.36970235  0.14414321  1
  O  O126  1  0.23350746  0.30151139  0.02591198  1
  O  O127  1  0.73225171  0.29876385  0.02611273  1
  O  O128  1  0.41902057  0.53686979  0.02432909  1
  O  O129  1  0.91782738  0.53357810  0.02598491  1
  O  O130  1  0.35157179  0.16641613  0.02517131  1
  O  O131  1  0.84947046  0.16404274  0.02533168  1
  O  O132  1  0.23575109  0.16610715  0.52738928  1
  O  O133  1  0.73327468  0.16667926  0.52598483  1
  O  O134  1  0.35145139  0.53717683  0.52514035  1
  O  O135  1  0.85183619  0.53775243  0.52475990  1
  O  O136  1  0.41895678  0.30172582  0.52399488  1
  O  O137  1  0.91862629  0.30127280  0.52410091  1
  O  O138  1  0.26001402  0.68804544  0.97184576  1
  O  O139  1  0.75987992  0.68618062  0.97166604  1
  O  O140  1  0.08315692  0.47030431  0.97215624  1
  O  O141  1  0.58063844  0.46962380  0.97432898  1
  O  O142  1  0.15390099  0.82853222  0.97140770  1
  O  O143  1  0.65533084  0.83740148  0.97427401  1
  O  O144  1  0.25941299  0.83209543  0.47169737  1
  O  O145  1  0.76207532  0.83423446  0.47124567  1
  O  O146  1  0.15294497  0.47615097  0.47139085  1
  O  O147  1  0.65534595  0.47399419  0.47418745  1
  O  O148  1  0.08083818  0.69381246  0.47412968  1
  O  O149  1  0.58071036  0.69261556  0.47406006  1
  O  O150  1  0.07027648  0.63292968  0.35988649  1
  O  O151  1  0.56874055  0.63053534  0.36015896  1
  O  O152  1  0.24690820  0.86092599  0.35901387  1
  O  O153  1  0.74657553  0.86358917  0.35806775  1
  O  O154  1  0.18403265  0.50762404  0.35897637  1
  O  O155  1  0.68463508  0.50699875  0.36091863  1
  O  O156  1  0.06673877  0.50440174  0.85945307  1
  O  O157  1  0.56897291  0.50670849  0.86021737  1
  O  O158  1  0.18423891  0.86712565  0.85815009  1
  O  O159  1  0.68453611  0.86234922  0.86082570  1
  O  O160  1  0.24595588  0.63227705  0.85862543  1
  O  O161  1  0.74651537  0.63028898  0.85848057  1
  O  O162  1  0.01109292  0.83193793  0.41129394  1
  O  O163  1  0.51104211  0.83260400  0.41067340  1
  O  O164  1  0.40317436  0.97246588  0.41502533  1
  O  O165  1  0.90471533  0.97859820  0.41208643  1
  O  O166  1  0.08405102  0.19125959  0.41107205  1
  O  O167  1  0.58577838  0.18872560  0.41555521  1
  O  O168  1  0.01008436  0.18779832  0.91005679  1
  O  O169  1  0.51146169  0.18986148  0.91080823  1
  O  O170  1  0.08650881  0.98437711  0.91461214  1
  O  O171  1  0.58589537  0.98251041  0.91562389  1
  O  O172  1  0.40301812  0.83340737  0.91468044  1
  O  O173  1  0.90305598  0.83320455  0.91548801  1
  O  O174  1  0.49408852  0.16609315  0.59180136  1
  O  O175  1  0.98901138  0.16162066  0.59275737  1
  O  O176  1  0.09303781  0.02251157  0.59198326  1
  O  O177  1  0.59454814  0.02633574  0.59193700  1
  O  O178  1  0.41940506  0.81134135  0.59125641  1
  O  O179  1  0.91975049  0.81093416  0.59140381  1
  O  O180  1  0.49373941  0.82114937  0.09287601  1
  O  O181  1  0.98890794  0.81321119  0.09377742  1
  O  O182  1  0.41875282  0.02659487  0.09120951  1
  O  O183  1  0.91890630  0.02355027  0.09428222  1
  O  O184  1  0.09459525  0.16333789  0.09526788  1
  O  O185  1  0.59306750  0.16117808  0.09132741  1
  O  O186  1  0.33918361  0.14175259  0.74569039  1
  O  O187  1  0.84179524  0.14350912  0.74438193  1
  O  O188  1  0.22824450  0.30517872  0.74554726  1
  O  O189  1  0.72959278  0.31042831  0.74548951  1
  O  O190  1  0.41533523  0.51036746  0.74662264  1
  O  O191  1  0.91511532  0.51157752  0.74618814  1
  O  O192  1  0.33983022  0.53798310  0.24492805  1
  O  O193  1  0.84379848  0.53907077  0.24633209  1
  O  O194  1  0.41514457  0.32069469  0.24666722  1
  O  O195  1  0.92599532  0.31339997  0.24604559  1
  O  O196  1  0.22876890  0.14497313  0.24648716  1
  O  O197  1  0.73282500  0.15109744  0.24633922  1
  O  O198  1  0.31574096  0.48909103  0.92193563  1
  O  O199  1  0.81628010  0.48919059  0.92320553  1
  O  O200  1  0.42788223  0.36662645  0.92190241  1
  O  O201  1  0.92777646  0.36607898  0.92259577  1
  O  O202  1  0.25692477  0.14432879  0.92238218  1
  O  O203  1  0.75677562  0.14483283  0.92241865  1
  O  O204  1  0.31499544  0.14218864  0.42198641  1
  O  O205  1  0.81655399  0.14381992  0.42250717  1
  O  O206  1  0.25515913  0.36751608  0.42257548  1
  O  O207  1  0.75674014  0.36868612  0.42232528  1
  O  O208  1  0.42756008  0.48940898  0.42235470  1
  O  O209  1  0.92815246  0.48829452  0.42097563  1
  O  O210  1  0.17446563  0.49395137  0.07397251  1
  O  O211  1  0.66891744  0.49218171  0.07511102  1
  O  O212  1  0.07416607  0.65116549  0.07303721  1
  O  O213  1  0.57564565  0.65598113  0.07238418  1
  O  O214  1  0.25112363  0.84794333  0.07295253  1
  O  O215  1  0.75104819  0.85463246  0.07290912  1
  O  O216  1  0.17041351  0.85020387  0.57488378  1
  O  O217  1  0.66998803  0.84846360  0.57512171  1
  O  O218  1  0.25154244  0.65477818  0.57294548  1
  O  O219  1  0.75005287  0.64907393  0.57248332  1
  O  O220  1  0.07304091  0.49840194  0.57138123  1
  O  O221  1  0.57556588  0.49659302  0.57206097  1
  O  O222  1  0.14901525  0.83364475  0.25488648  1
  O  O223  1  0.65302535  0.83883230  0.25384140  1
  O  O224  1  0.26657753  0.70139008  0.25452726  1
  O  O225  1  0.76944028  0.70095728  0.25411615  1
  O  O226  1  0.08197060  0.46607875  0.25492797  1
  O  O227  1  0.58890960  0.48307627  0.25628460  1
  O  O228  1  0.15267076  0.46602340  0.75356317  1
  O  O229  1  0.65142601  0.46545081  0.75316247  1
  O  O230  1  0.09143645  0.70092383  0.75492055  1
  O  O231  1  0.58910984  0.69466089  0.75599932  1
  O  O232  1  0.26773373  0.83547636  0.75261817  1
  O  O233  1  0.76910938  0.83358307  0.75340103  1
