# generated using pymatgen
data_Na6MgSn7(PO4)12
_symmetry_space_group_name_H-M   'P 1'
_cell_length_a   17.52955436
_cell_length_b   8.77443428
_cell_length_c   22.79969854
_cell_angle_alpha   90.03650220
_cell_angle_beta   89.94805941
_cell_angle_gamma   120.02291814
_symmetry_Int_Tables_number   1
_chemical_formula_structural   Na6MgSn7(PO4)12
_chemical_formula_sum   'Na18 Mg3 Sn21 P36 O144'
_cell_volume   3036.33165707
_cell_formula_units_Z   3
loop_
 _symmetry_equiv_pos_site_id
 _symmetry_equiv_pos_as_xyz
  1  'x, y, z'
loop_
 _atom_site_type_symbol
 _atom_site_label
 _atom_site_symmetry_multiplicity
 _atom_site_fract_x
 _atom_site_fract_y
 _atom_site_fract_z
 _atom_site_occupancy
  Na  Na0  1  0.68594141  0.36409447  0.24766935  1
  Na  Na1  1  0.99604381  0.62680414  0.24749964  1
  Na  Na2  1  0.99583679  0.36328138  0.74588999  1
  Na  Na3  1  0.49598342  0.36348567  0.74583394  1
  Na  Na4  1  0.18516643  0.00613249  0.74593837  1
  Na  Na5  1  0.68526989  0.00622899  0.74608759  1
  Na  Na6  1  0.99982525  0.99977690  0.50070877  1
  Na  Na7  1  0.49977670  0.99953371  0.50073735  1
  Na  Na8  1  0.99851368  0.99800616  0.00144080  1
  Na  Na9  1  0.50116818  0.00176871  0.00105062  1
  Na  Na10  1  0.33308864  0.33985511  0.83192687  1
  Na  Na11  1  0.83297624  0.33976259  0.83265859  1
  Na  Na12  1  0.33328109  0.33407552  0.33487390  1
  Na  Na13  1  0.83311816  0.32524435  0.33276174  1
  Na  Na14  1  0.16822852  0.66498655  0.16589302  1
  Na  Na15  1  0.66816775  0.67524896  0.16524950  1
  Na  Na16  1  0.16972464  0.66589824  0.66215278  1
  Na  Na17  1  0.66976761  0.66594578  0.66222380  1
  Mg  Mg18  1  0.33300463  0.33898337  0.68189984  1
  Mg  Mg19  1  0.83300906  0.33900175  0.68195504  1
  Mg  Mg20  1  0.83306802  0.32552965  0.18383706  1
  Sn  Sn21  1  0.00046068  0.00291891  0.35353062  1
  Sn  Sn22  1  0.49903110  0.99750489  0.35342471  1
  Sn  Sn23  1  0.99931759  0.99855533  0.85337722  1
  Sn  Sn24  1  0.49972174  0.99874553  0.85342215  1
  Sn  Sn25  1  0.99918707  0.99813508  0.64469952  1
  Sn  Sn26  1  0.49923492  0.99819581  0.64472604  1
  Sn  Sn27  1  0.99797713  0.00057586  0.14658960  1
  Sn  Sn28  1  0.50117309  0.99994437  0.14700332  1
  Sn  Sn29  1  0.33333399  0.33492619  0.18538050  1
  Sn  Sn30  1  0.33345791  0.33298335  0.98139183  1
  Sn  Sn31  1  0.83335723  0.33299340  0.98359013  1
  Sn  Sn32  1  0.33336142  0.33358341  0.48301095  1
  Sn  Sn33  1  0.83345055  0.33417838  0.48276500  1
  Sn  Sn34  1  0.16558839  0.66632970  0.02014392  1
  Sn  Sn35  1  0.66803160  0.66730751  0.02030864  1
  Sn  Sn36  1  0.16684743  0.66674090  0.51974970  1
  Sn  Sn37  1  0.66676244  0.66672721  0.51984087  1
  Sn  Sn38  1  0.16931268  0.66551141  0.31563273  1
  Sn  Sn39  1  0.66631066  0.67258215  0.31620047  1
  Sn  Sn40  1  0.16869506  0.66582863  0.81652989  1
  Sn  Sn41  1  0.66900587  0.66627754  0.81669920  1
  P  P42  1  0.14621219  0.00228532  0.25000774  1
  P  P43  1  0.64648969  0.00010707  0.25016233  1
  P  P44  1  0.35480758  0.70945920  0.24957848  1
  P  P45  1  0.85378677  0.70898556  0.25044801  1
  P  P46  1  0.99902606  0.29046493  0.25021577  1
  P  P47  1  0.49867533  0.29034555  0.25042424  1
  P  P48  1  0.14702637  0.29140581  0.75011561  1
  P  P49  1  0.64723098  0.29171017  0.75005056  1
  P  P50  1  0.99720731  0.70538279  0.75043366  1
  P  P51  1  0.49730350  0.70553548  0.75044802  1
  P  P52  1  0.35441478  0.99903670  0.75000953  1
  P  P53  1  0.85434902  0.99922986  0.74990717  1
  P  P54  1  0.47885398  0.33445779  0.58495148  1
  P  P55  1  0.97887315  0.33460047  0.58498359  1
  P  P56  1  0.18856299  0.04224680  0.58499538  1
  P  P57  1  0.68862641  0.04245077  0.58503308  1
  P  P58  1  0.33250878  0.62215143  0.58429248  1
  P  P59  1  0.83244992  0.62194298  0.58429974  1
  P  P60  1  0.47908818  0.62455122  0.08319840  1
  P  P61  1  0.97862939  0.62429141  0.08535687  1
  P  P62  1  0.33352930  0.04221236  0.08353692  1
  P  P63  1  0.83290677  0.04380310  0.08450213  1
  P  P64  1  0.18751441  0.33319763  0.08322444  1
  P  P65  1  0.68813297  0.33359231  0.08532548  1
  P  P66  1  0.31267425  0.66617016  0.91789435  1
  P  P67  1  0.81316332  0.66490330  0.91755196  1
  P  P68  1  0.01983580  0.37406975  0.91688519  1
  P  P69  1  0.52050490  0.37488114  0.91700587  1
  P  P70  1  0.16699865  0.95959241  0.91683504  1
  P  P71  1  0.66722538  0.95973273  0.91715931  1
  P  P72  1  0.31238652  0.95953158  0.41698613  1
  P  P73  1  0.81281607  0.96027034  0.41750667  1
  P  P74  1  0.16745369  0.37474773  0.41741045  1
  P  P75  1  0.66697474  0.37497862  0.41629959  1
  P  P76  1  0.02047870  0.66610591  0.41638531  1
  P  P77  1  0.51998228  0.66501882  0.41737761  1
  O  O78  1  0.10644922  0.03409057  0.30559515  1
  O  O79  1  0.60447915  0.03647716  0.30500616  1
  O  O80  1  0.41072259  0.78694277  0.30524856  1
  O  O81  1  0.91357907  0.79070215  0.30514213  1
  O  O82  1  0.48266846  0.17756363  0.30553755  1
  O  O83  1  0.98441306  0.17831765  0.30576120  1
  O  O84  1  0.10526739  0.17501722  0.80581943  1
  O  O85  1  0.60532483  0.17525915  0.80579477  1
  O  O86  1  0.48410831  0.78956314  0.80651758  1
  O  O87  1  0.98438708  0.78987599  0.80649103  1
  O  O88  1  0.41265119  0.03604814  0.80575006  1
  O  O89  1  0.91264069  0.03636081  0.80557300  1
  O  O90  1  0.39472544  0.96249664  0.69582632  1
  O  O91  1  0.89474386  0.96245893  0.69573858  1
  O  O92  1  0.08456198  0.21188728  0.69653289  1
  O  O93  1  0.58450713  0.21195259  0.69651565  1
  O  O94  1  0.02151377  0.83052648  0.69678724  1
  O  O95  1  0.52145342  0.83041950  0.69684526  1
  O  O96  1  0.39405734  0.82314448  0.19410132  1
  O  O97  1  0.89353713  0.82472167  0.19545491  1
  O  O98  1  0.01965191  0.21289675  0.19535346  1
  O  O99  1  0.51928401  0.21371153  0.19525693  1
  O  O100  1  0.08689653  0.96110413  0.19513759  1
  O  O101  1  0.58705969  0.96144087  0.19519370  1
  O  O102  1  0.44076044  0.36356240  0.64112422  1
  O  O103  1  0.94077328  0.36353226  0.64110398  1
  O  O104  1  0.24127172  0.11798649  0.64118120  1
  O  O105  1  0.74127896  0.11820708  0.64114829  1
  O  O106  1  0.31744105  0.51327894  0.63869602  1
  O  O107  1  0.81740803  0.51330980  0.63858429  1
  O  O108  1  0.43976490  0.51094702  0.13856814  1
  O  O109  1  0.94040770  0.51751940  0.14045242  1
  O  O110  1  0.31621598  0.12178847  0.13882699  1
  O  O111  1  0.81752166  0.12230291  0.13792810  1
  O  O112  1  0.24449177  0.36857222  0.13859268  1
  O  O113  1  0.74138346  0.36391824  0.14054372  1
  O  O114  1  0.22707297  0.29850460  0.02756645  1
  O  O115  1  0.72561284  0.29895281  0.02790041  1
  O  O116  1  0.42202622  0.54571306  0.02760139  1
  O  O117  1  0.92415720  0.54877332  0.02785682  1
  O  O118  1  0.35073047  0.15515853  0.02770176  1
  O  O119  1  0.85049638  0.15108994  0.02633225  1
  O  O120  1  0.22661282  0.15325542  0.52847373  1
  O  O121  1  0.72661361  0.15345909  0.52838948  1
  O  O122  1  0.35032696  0.54889048  0.52697160  1
  O  O123  1  0.85029864  0.54880861  0.52686690  1
  O  O124  1  0.42332785  0.29987455  0.52842048  1
  O  O125  1  0.92332842  0.29990599  0.52838145  1
  O  O126  1  0.27195376  0.70078667  0.97218593  1
  O  O127  1  0.77265349  0.70105244  0.97143547  1
  O  O128  1  0.07897256  0.45634511  0.97075537  1
  O  O129  1  0.57853195  0.45793704  0.97097780  1
  O  O130  1  0.15043103  0.84374561  0.97089106  1
  O  O131  1  0.64939279  0.84154254  0.97084108  1
  O  O132  1  0.27244899  0.84380949  0.47143365  1
  O  O133  1  0.77230191  0.84396169  0.47169500  1
  O  O134  1  0.14954932  0.45521144  0.47172729  1
  O  O135  1  0.64975877  0.45693345  0.47055179  1
  O  O136  1  0.07868972  0.70058330  0.47066801  1
  O  O137  1  0.57819835  0.70080070  0.47166799  1
  O  O138  1  0.05895090  0.63352243  0.35889361  1
  O  O139  1  0.55847254  0.62989890  0.36102047  1
  O  O140  1  0.25627503  0.88181499  0.36070796  1
  O  O141  1  0.75711760  0.88322921  0.36108997  1
  O  O142  1  0.18467211  0.48589094  0.36104837  1
  O  O143  1  0.68321260  0.48439971  0.35878200  1
  O  O144  1  0.05816503  0.48397980  0.85944299  1
  O  O145  1  0.55801438  0.48371706  0.85937893  1
  O  O146  1  0.18382698  0.88398248  0.85933885  1
  O  O147  1  0.68348872  0.88381121  0.85935100  1
  O  O148  1  0.25698397  0.63062316  0.86147473  1
  O  O149  1  0.75731593  0.63002942  0.86114061  1
  O  O150  1  0.01189833  0.83293349  0.41035132  1
  O  O151  1  0.51175977  0.83207592  0.41113246  1
  O  O152  1  0.40434629  0.97611600  0.41073535  1
  O  O153  1  0.90452521  0.97633603  0.41129335  1
  O  O154  1  0.08387179  0.19095148  0.41138854  1
  O  O155  1  0.58334210  0.19108366  0.41032321  1
  O  O156  1  0.01193821  0.19079572  0.91079508  1
  O  O157  1  0.51161142  0.19066120  0.91100938  1
  O  O158  1  0.08369018  0.97679701  0.91104764  1
  O  O159  1  0.58338140  0.97608283  0.91119072  1
  O  O160  1  0.40452902  0.83321814  0.91164886  1
  O  O161  1  0.90474125  0.83273402  0.91128222  1
  O  O162  1  0.48916798  0.16777349  0.58826634  1
  O  O163  1  0.98921652  0.16781697  0.58828581  1
  O  O164  1  0.09491171  0.02242156  0.58838034  1
  O  O165  1  0.59489282  0.02248806  0.58838054  1
  O  O166  1  0.41618308  0.80985557  0.58787982  1
  O  O167  1  0.91613419  0.80976380  0.58781592  1
  O  O168  1  0.48731081  0.80809918  0.08869816  1
  O  O169  1  0.99015015  0.81287564  0.08853006  1
  O  O170  1  0.41663364  0.02422585  0.08939576  1
  O  O171  1  0.91650432  0.02219448  0.08735538  1
  O  O172  1  0.09581625  0.16714121  0.08901916  1
  O  O173  1  0.59375503  0.16600422  0.08818931  1
  O  O174  1  0.34399971  0.16204671  0.74487811  1
  O  O175  1  0.84397085  0.16204377  0.74474333  1
  O  O176  1  0.23645109  0.30606083  0.74445303  1
  O  O177  1  0.73634793  0.30615441  0.74437408  1
  O  O178  1  0.41976620  0.52138780  0.74482908  1
  O  O179  1  0.91986765  0.52163170  0.74480304  1
  O  O180  1  0.34524633  0.52440711  0.24380759  1
  O  O181  1  0.84409273  0.52613214  0.24459147  1
  O  O182  1  0.41660211  0.31039186  0.24399290  1
  O  O183  1  0.92003885  0.31723071  0.24449997  1
  O  O184  1  0.23853432  0.16647897  0.24383004  1
  O  O185  1  0.73556692  0.16646780  0.24433298  1
  O  O186  1  0.32172452  0.49993687  0.92289737  1
  O  O187  1  0.82208563  0.49896216  0.92296483  1
  O  O188  1  0.42829175  0.35717787  0.92220668  1
  O  O189  1  0.92822151  0.35745159  0.92240652  1
  O  O190  1  0.25048027  0.14360176  0.92222492  1
  O  O191  1  0.75032065  0.14360283  0.92253290  1
  O  O192  1  0.32180724  0.14387236  0.42263186  1
  O  O193  1  0.82182895  0.14441372  0.42295671  1
  O  O194  1  0.25036982  0.35624959  0.42273603  1
  O  O195  1  0.75018077  0.35721768  0.42203314  1
  O  O196  1  0.42797222  0.49892538  0.42260846  1
  O  O197  1  0.92848771  0.49960298  0.42212659  1
  O  O198  1  0.17920781  0.50001121  0.07738264  1
  O  O199  1  0.67692651  0.49817209  0.07743153  1
  O  O200  1  0.07216681  0.64450216  0.07753371  1
  O  O201  1  0.57080788  0.64230841  0.07727483  1
  O  O202  1  0.25046808  0.85832560  0.07755813  1
  O  O203  1  0.75003977  0.85634389  0.07719357  1
  O  O204  1  0.17779909  0.85606777  0.57750709  1
  O  O205  1  0.67784793  0.85618752  0.57763090  1
  O  O206  1  0.25016484  0.64452211  0.57733662  1
  O  O207  1  0.75006960  0.64423094  0.57721615  1
  O  O208  1  0.07193290  0.50004951  0.57754529  1
  O  O209  1  0.57192167  0.49974636  0.57752011  1
  O  O210  1  0.15227396  0.83085675  0.25600834  1
  O  O211  1  0.65298172  0.83038910  0.25600204  1
  O  O212  1  0.26239466  0.69137063  0.25516566  1
  O  O213  1  0.75972124  0.68634188  0.25648413  1
  O  O214  1  0.08369750  0.47953702  0.25592521  1
  O  O215  1  0.58475993  0.47320529  0.25634939  1
  O  O216  1  0.15048333  0.47319593  0.75666256  1
  O  O217  1  0.65039773  0.47335308  0.75668267  1
  O  O218  1  0.08505511  0.69410368  0.75670805  1
  O  O219  1  0.58498461  0.69394818  0.75676794  1
  O  O220  1  0.26033078  0.83319399  0.75628626  1
  O  O221  1  0.76028577  0.83320392  0.75617352  1
