# generated using pymatgen
data_Na5Y3Hf(PO4)6
_symmetry_space_group_name_H-M   'P 1'
_cell_length_a   9.21824800
_cell_length_b   9.20740191
_cell_length_c   23.57713000
_cell_angle_alpha   89.90414063
_cell_angle_beta   89.94960516
_cell_angle_gamma   120.01809247
_symmetry_Int_Tables_number   1
_chemical_formula_structural   Na5Y3Hf(PO4)6
_chemical_formula_sum   'Na15 Y9 Hf3 P18 O72'
_cell_volume   1732.71203320
_cell_formula_units_Z   3
loop_
 _symmetry_equiv_pos_site_id
 _symmetry_equiv_pos_as_xyz
  1  'x, y, z'
loop_
 _atom_site_type_symbol
 _atom_site_label
 _atom_site_symmetry_multiplicity
 _atom_site_fract_x
 _atom_site_fract_y
 _atom_site_fract_z
 _atom_site_occupancy
  Na  Na0  1  0.63753836  0.99943907  0.25336987  1
  Na  Na1  1  0.36235111  0.36331078  0.25428486  1
  Na  Na2  1  -0.00000157  0.63759044  0.25354204  1
  Na  Na3  1  0.64294566  0.63938472  0.74985160  1
  Na  Na4  1  0.99716964  0.35895687  0.75013164  1
  Na  Na5  1  0.03267600  0.69923720  0.58073538  1
  Na  Na6  1  0.66398099  0.96606442  0.58055116  1
  Na  Na7  1  0.66371069  0.69857964  0.08065029  1
  Na  Na8  1  0.03353095  0.33335129  0.08062797  1
  Na  Na9  1  0.01017505  0.01058869  0.49550283  1
  Na  Na10  1  0.01016209  0.99956996  0.99478373  1
  Na  Na11  1  0.65643425  0.32266803  0.83480139  1
  Na  Na12  1  0.66654171  0.33336269  0.34079109  1
  Na  Na13  1  0.33313814  0.67695484  0.16612602  1
  Na  Na14  1  0.33356935  0.66599209  0.66445310  1
  Y  Y15  1  0.99839628  0.99867638  0.35483218  1
  Y  Y16  1  0.00158766  0.99962417  0.85312798  1
  Y  Y17  1  0.01165780  0.00862910  0.64991536  1
  Y  Y18  1  0.00802532  0.99938466  0.14693443  1
  Y  Y19  1  0.65536110  0.32530245  0.68369989  1
  Y  Y20  1  0.66276765  0.32950256  0.18125753  1
  Y  Y21  1  0.33298693  0.67360826  0.01431669  1
  Y  Y22  1  0.33260899  0.65774624  0.51400555  1
  Y  Y23  1  0.33333159  0.66617679  0.32536852  1
  Hf  Hf24  1  0.66476623  0.33173906  0.97799982  1
  Hf  Hf25  1  0.66406359  0.33355172  0.48135368  1
  Hf  Hf26  1  0.33343968  0.67270791  0.82071589  1
  P  P27  1  0.29691272  0.99734153  0.25066175  1
  P  P28  1  0.70104268  0.70318507  0.24830240  1
  P  P29  1  0.00212184  0.29896516  0.24836451  1
  P  P30  1  0.29819821  0.30777724  0.75322686  1
  P  P31  1  0.00610116  0.70143242  0.75046658  1
  P  P32  1  0.69847028  0.99340071  0.75087936  1
  P  P33  1  0.95436436  0.33297590  0.58321236  1
  P  P34  1  0.37367462  0.03867013  0.58042686  1
  P  P35  1  0.66859367  0.62758139  0.58343958  1
  P  P36  1  0.95458680  0.62082225  0.08117190  1
  P  P37  1  0.66784773  0.04128710  0.08164291  1
  P  P38  1  0.37539968  0.33489644  0.08055328  1
  P  P39  1  0.62517380  0.65958622  0.91751383  1
  P  P40  1  0.03394679  0.37441859  0.91789491  1
  P  P41  1  0.34040463  0.96764909  0.91699328  1
  P  P42  1  0.63464823  0.97553190  0.41901316  1
  P  P43  1  0.34044726  0.36373602  0.41670857  1
  P  P44  1  0.02489604  0.65943024  0.41917399  1
  O  O45  1  0.21305136  0.02649820  0.30188421  1
  O  O46  1  0.81641388  0.79058082  0.29879185  1
  O  O47  1  0.97445887  0.18337501  0.29895169  1
  O  O48  1  0.21324441  0.19541857  0.80412462  1
  O  O49  1  0.97332170  0.78815713  0.79990511  1
  O  O50  1  0.81656318  0.02277962  0.80050552  1
  O  O51  1  0.76958510  0.95878288  0.69570373  1
  O  O52  1  0.18908395  0.23308135  0.69951052  1
  O  O53  1  0.03453151  0.80184859  0.69479071  1
  O  O54  1  0.77910337  0.80617463  0.19317510  1
  O  O55  1  0.02773396  0.22141906  0.19335209  1
  O  O56  1  0.18950471  0.96997617  0.19715503  1
  O  O57  1  0.87981961  0.35657205  0.63875499  1
  O  O58  1  0.47699788  0.11564804  0.63424047  1
  O  O59  1  0.64776060  0.53200891  0.63912477  1
  O  O60  1  0.88186059  0.52495600  0.13735763  1
  O  O61  1  0.64741029  0.11384124  0.13786740  1
  O  O62  1  0.47159478  0.35844017  0.13650701  1
  O  O63  1  0.47682149  0.32061823  0.03038979  1
  O  O64  1  0.83694403  0.52018633  0.03101842  1
  O  O65  1  0.68331260  0.15875053  0.03147432  1
  O  O66  1  0.47024997  0.15178261  0.52925539  1
  O  O67  1  0.68444602  0.52723278  0.53303571  1
  O  O68  1  0.83758263  0.31490526  0.53269936  1
  O  O69  1  0.54729463  0.68203256  0.97165924  1
  O  O70  1  0.13454736  0.45219484  0.97196313  1
  O  O71  1  0.31564894  0.86452455  0.97001023  1
  O  O72  1  0.54700172  0.86608437  0.47105482  1
  O  O73  1  0.31759033  0.45536850  0.46657800  1
  O  O74  1  0.13380496  0.68076186  0.47114714  1
  O  O75  1  0.10111676  0.63246880  0.36393533  1
  O  O76  1  0.53180556  0.89853236  0.36385099  1
  O  O77  1  0.36829984  0.46400712  0.36064687  1
  O  O78  1  0.12840986  0.49014494  0.86525614  1
  O  O79  1  0.36179852  0.87324256  0.86488048  1
  O  O80  1  0.51086915  0.64033378  0.86487164  1
  O  O81  1  0.00436564  0.81421108  0.41408362  1
  O  O82  1  0.80975838  0.99570709  0.41397981  1
  O  O83  1  0.18563743  0.18840280  0.41307056  1
  O  O84  1  0.01088474  0.19938811  0.91021122  1
  O  O85  1  0.18864290  0.99039922  0.90972242  1
  O  O86  1  0.80044141  0.81157331  0.91005233  1
  O  O87  1  0.96140889  0.16817604  0.58571693  1
  O  O88  1  0.19572240  0.01594437  0.58393568  1
  O  O89  1  0.83419875  0.80163739  0.58515809  1
  O  O90  1  0.96071413  0.79196530  0.08288335  1
  O  O91  1  0.83345452  0.03350278  0.08293797  1
  O  O92  1  0.19696554  0.18037259  0.08232483  1
  O  O93  1  0.68355633  0.15236432  0.74556334  1
  O  O94  1  0.47924724  0.34147409  0.74698447  1
  O  O95  1  0.84985957  0.52200062  0.74563352  1
  O  O96  1  0.68012893  0.52493323  0.24430449  1
  O  O97  1  0.84467235  0.31945313  0.24438434  1
  O  O98  1  0.47426232  0.15483391  0.24517207  1
  O  O99  1  0.63663320  0.49554078  0.92300312  1
  O  O100  1  0.85849003  0.36269344  0.92354826  1
  O  O101  1  0.50447661  0.14218447  0.92267173  1
  O  O102  1  0.64987962  0.15128636  0.42660639  1
  O  O103  1  0.50143603  0.35104498  0.42601272  1
  O  O104  1  0.84936893  0.49881635  0.42708821  1
  O  O105  1  0.35953368  0.49462658  0.07574766  1
  O  O106  1  0.12682785  0.63344570  0.07583110  1
  O  O107  1  0.51961104  0.86083767  0.07690641  1
  O  O108  1  0.35641393  0.86233877  0.57552355  1
  O  O109  1  0.51973484  0.65887692  0.57762889  1
  O  O110  1  0.12694464  0.49290014  0.57682910  1
  O  O111  1  0.31641317  0.83955405  0.25619258  1
  O  O112  1  0.52502707  0.68582078  0.25499318  1
  O  O113  1  0.16015967  0.47584751  0.25490323  1
  O  O114  1  0.31300619  0.48551170  0.76171220  1
  O  O115  1  0.16075068  0.67648680  0.76139138  1
  O  O116  1  0.52400950  0.83136177  0.76181725  1
