# generated using pymatgen
data_Na4Y3TaSi3(SO8)3
_symmetry_space_group_name_H-M   'P 1'
_cell_length_a   9.24147269
_cell_length_b   9.24696517
_cell_length_c   23.54466961
_cell_angle_alpha   89.98062760
_cell_angle_beta   90.04104709
_cell_angle_gamma   119.89027919
_symmetry_Int_Tables_number   1
_chemical_formula_structural   Na4Y3TaSi3(SO8)3
_chemical_formula_sum   'Na12 Y9 Ta3 Si9 S9 O72'
_cell_volume   1744.38615374
_cell_formula_units_Z   3
loop_
 _symmetry_equiv_pos_site_id
 _symmetry_equiv_pos_as_xyz
  1  'x, y, z'
loop_
 _atom_site_type_symbol
 _atom_site_label
 _atom_site_symmetry_multiplicity
 _atom_site_fract_x
 _atom_site_fract_y
 _atom_site_fract_z
 _atom_site_occupancy
  Na  Na0  1  0.64867282  0.00398916  0.25360329  1
  Na  Na1  1  0.35380610  0.34902883  0.25361495  1
  Na  Na2  1  0.99717401  0.64402921  0.25502936  1
  Na  Na3  1  0.31145282  0.34666360  0.58699598  1
  Na  Na4  1  0.65919718  0.96091674  0.58628379  1
  Na  Na5  1  0.28885991  0.95299209  0.08305757  1
  Na  Na6  1  0.00005274  0.98648336  0.50605293  1
  Na  Na7  1  0.98260834  0.99928239  0.98558994  1
  Na  Na8  1  0.66569033  0.33233431  0.82905769  1
  Na  Na9  1  0.66762822  0.33365057  0.32607838  1
  Na  Na10  1  0.33246818  0.65202439  0.18307751  1
  Na  Na11  1  0.31026684  0.66582009  0.66053927  1
  Y  Y12  1  0.00170397  0.00131938  0.34841744  1
  Y  Y13  1  0.00253118  0.00087712  0.85443348  1
  Y  Y14  1  0.00172314  0.99115221  0.64540927  1
  Y  Y15  1  0.99223860  0.00150326  0.14976546  1
  Y  Y16  1  0.67048986  0.33773855  0.68408156  1
  Y  Y17  1  0.67126122  0.33839368  0.18527676  1
  Y  Y18  1  0.33437326  0.66081224  0.01416660  1
  Y  Y19  1  0.32386886  0.66558235  0.51882892  1
  Y  Y20  1  0.33323654  0.66903401  0.31962006  1
  Ta  Ta21  1  0.66878580  0.33493251  0.96997079  1
  Ta  Ta22  1  0.67166482  0.33647301  0.48818324  1
  Ta  Ta23  1  0.33455254  0.66730202  0.82525179  1
  Si  Si24  1  0.29465440  0.99641075  0.24478389  1
  Si  Si25  1  0.70153158  0.70549376  0.25106038  1
  Si  Si26  1  0.00369919  0.29839693  0.25069437  1
  Si  Si27  1  0.95940194  0.32921052  0.58485976  1
  Si  Si28  1  0.37719465  0.04566598  0.58366700  1
  Si  Si29  1  0.66840108  0.62691089  0.58230034  1
  Si  Si30  1  0.62722497  0.66348798  0.91833003  1
  Si  Si31  1  0.03678945  0.37389994  0.91790473  1
  Si  Si32  1  0.33682523  0.96216118  0.92213641  1
  S  S33  1  0.30024399  0.31707439  0.75189192  1
  S  S34  1  0.01726917  0.70066150  0.75392998  1
  S  S35  1  0.68347135  0.98323292  0.75227119  1
  S  S36  1  0.95388148  0.62627385  0.07752707  1
  S  S37  1  0.67079384  0.05110311  0.07754039  1
  S  S38  1  0.37910095  0.32731495  0.07778229  1
  S  S39  1  0.64031336  0.98619566  0.42015171  1
  S  S40  1  0.34729946  0.36050164  0.41980123  1
  S  S41  1  0.01154378  0.65341921  0.41774962  1
  O  O42  1  0.20606759  0.03873581  0.29685274  1
  O  O43  1  0.82364448  0.78345275  0.30555774  1
  O  O44  1  0.95686905  0.17520163  0.30507395  1
  O  O45  1  0.20532780  0.20604495  0.79878019  1
  O  O46  1  0.00117070  0.79006845  0.80246210  1
  O  O47  1  0.79439363  0.99798044  0.79903249  1
  O  O48  1  0.75080659  0.96287943  0.69706915  1
  O  O49  1  0.21344809  0.24722172  0.69666805  1
  O  O50  1  0.03471923  0.79261350  0.70017805  1
  O  O51  1  0.77982461  0.82529554  0.19517990  1
  O  O52  1  0.04511588  0.22097133  0.19452697  1
  O  O53  1  0.18928589  0.96164393  0.18472631  1
  O  O54  1  0.87945505  0.36052203  0.64029273  1
  O  O55  1  0.49071482  0.12515190  0.63898051  1
  O  O56  1  0.62802464  0.50900207  0.63682117  1
  O  O57  1  0.87534414  0.54337089  0.13147477  1
  O  O58  1  0.66402111  0.13079650  0.13126277  1
  O  O59  1  0.46283755  0.33329953  0.13201462  1
  O  O60  1  0.48604657  0.32658359  0.02937605  1
  O  O61  1  0.85032306  0.52226115  0.02856745  1
  O  O62  1  0.67575362  0.15828303  0.02852910  1
  O  O63  1  0.48639990  0.17017447  0.52735164  1
  O  O64  1  0.68730499  0.52197719  0.52582271  1
  O  O65  1  0.83911153  0.31918239  0.52756446  1
  O  O66  1  0.55123073  0.69325527  0.97453604  1
  O  O67  1  0.14131798  0.45227671  0.97406735  1
  O  O68  1  0.31147700  0.86751297  0.98129198  1
  O  O69  1  0.54833427  0.88229694  0.46965736  1
  O  O70  1  0.33378521  0.45088382  0.46950642  1
  O  O71  1  0.11957919  0.66464638  0.46555405  1
  O  O72  1  0.08416966  0.63740364  0.36333992  1
  O  O73  1  0.54552330  0.90980017  0.36692675  1
  O  O74  1  0.36237387  0.45452710  0.36675260  1
  O  O75  1  0.14015987  0.50499143  0.86281894  1
  O  O76  1  0.36534176  0.85386864  0.86830140  1
  O  O77  1  0.49394255  0.63150499  0.86330209  1
  O  O78  1  0.99122038  0.80173801  0.41852088  1
  O  O79  1  0.80852927  0.00580424  0.41904289  1
  O  O80  1  0.20030112  0.19089935  0.41854624  1
  O  O81  1  0.99388760  0.18689700  0.90679227  1
  O  O82  1  0.19217154  0.00255455  0.90819280  1
  O  O83  1  0.81303605  0.80801927  0.90628469  1
  O  O84  1  0.95299619  0.14913649  0.58636813  1
  O  O85  1  0.20362898  0.05096306  0.58498378  1
  O  O86  1  0.83502185  0.80881989  0.58523358  1
  O  O87  1  0.96922315  0.79427959  0.07409157  1
  O  O88  1  0.82009075  0.03306701  0.07505490  1
  O  O89  1  0.21712112  0.16733898  0.07429727  1
  O  O90  1  0.66114659  0.13169131  0.75199173  1
  O  O91  1  0.47158355  0.34047647  0.75200929  1
  O  O92  1  0.87006691  0.52971521  0.75236976  1
  O  O93  1  0.67339470  0.51706048  0.24378611  1
  O  O94  1  0.84454063  0.32856789  0.24336464  1
  O  O95  1  0.48502700  0.15581150  0.24148295  1
  O  O96  1  0.63014508  0.48242489  0.92574937  1
  O  O97  1  0.85247678  0.37102928  0.92485818  1
  O  O98  1  0.51826486  0.14756536  0.92669620  1
  O  O99  1  0.65408441  0.15576045  0.42478450  1
  O  O100  1  0.50392792  0.34835197  0.42419176  1
  O  O101  1  0.84364635  0.49725527  0.42327055  1
  O  O102  1  0.35550809  0.47252561  0.07623845  1
  O  O103  1  0.12449933  0.64755424  0.07732741  1
  O  O104  1  0.51409327  0.88695885  0.07646102  1
  O  O105  1  0.35868531  0.86394483  0.57426125  1
  O  O106  1  0.50743117  0.65097742  0.57196845  1
  O  O107  1  0.15077725  0.47724246  0.57620388  1
  O  O108  1  0.31048405  0.82995628  0.25732329  1
  O  O109  1  0.51623893  0.68480006  0.26018513  1
  O  O110  1  0.16895385  0.48213056  0.26049054  1
  O  O111  1  0.31156724  0.48527751  0.75961695  1
  O  O112  1  0.17489872  0.68915338  0.76018216  1
  O  O113  1  0.51353790  0.82821779  0.76078758  1
