# generated using pymatgen
data_Na4Sc2Si3Sn2(SO8)3
_symmetry_space_group_name_H-M   'P 1'
_cell_length_a   8.99551597
_cell_length_b   8.97361293
_cell_length_c   22.89728645
_cell_angle_alpha   90.06316836
_cell_angle_beta   89.13886951
_cell_angle_gamma   119.78935382
_symmetry_Int_Tables_number   1
_chemical_formula_structural   Na4Sc2Si3Sn2(SO8)3
_chemical_formula_sum   'Na12 Sc6 Si9 Sn6 S9 O72'
_cell_volume   1603.85557492
_cell_formula_units_Z   3
loop_
 _symmetry_equiv_pos_site_id
 _symmetry_equiv_pos_as_xyz
  1  'x, y, z'
loop_
 _atom_site_type_symbol
 _atom_site_label
 _atom_site_symmetry_multiplicity
 _atom_site_fract_x
 _atom_site_fract_y
 _atom_site_fract_z
 _atom_site_occupancy
  Na  Na0  1  0.99612301  0.64555320  0.25270776  1
  Na  Na1  1  0.99741470  0.35541778  0.73807580  1
  Na  Na2  1  0.66409127  0.97980515  0.58938022  1
  Na  Na3  1  0.67123853  0.69588009  0.08130145  1
  Na  Na4  1  0.33821821  0.30850613  0.90150843  1
  Na  Na5  1  0.32120443  0.02202293  0.42212904  1
  Na  Na6  1  0.00916383  0.00084824  0.50482357  1
  Na  Na7  1  0.98249149  0.97149506  0.99536973  1
  Na  Na8  1  0.65245678  0.32803104  0.82046476  1
  Na  Na9  1  0.66031399  0.34292657  0.33314805  1
  Na  Na10  1  0.32854498  0.67937044  0.17112386  1
  Na  Na11  1  0.32774553  0.66417989  0.66150264  1
  Sc  Sc12  1  0.99976432  0.98315483  0.35141840  1
  Sc  Sc13  1  0.98603117  0.99423002  0.84921244  1
  Sc  Sc14  1  0.65330063  0.31830746  0.68553633  1
  Sc  Sc15  1  0.66691157  0.33893910  0.19023544  1
  Sc  Sc16  1  0.33092287  0.67044671  0.01916663  1
  Sc  Sc17  1  0.31033916  0.66045956  0.52272915  1
  Si  Si18  1  0.30104024  0.00104571  0.25304695  1
  Si  Si19  1  0.69626200  0.70521694  0.25029663  1
  Si  Si20  1  0.29563416  0.29364902  0.75597966  1
  Si  Si21  1  0.71026692  0.00148630  0.74732516  1
  Si  Si22  1  0.96057207  0.33144552  0.58699251  1
  Si  Si23  1  0.37152069  0.04235078  0.58064851  1
  Si  Si24  1  0.96770820  0.63306760  0.08677781  1
  Si  Si25  1  0.63130866  0.66732523  0.92210827  1
  Si  Si26  1  0.03042051  0.65728823  0.41663114  1
  Sn  Sn27  1  0.01576835  0.01904492  0.64837088  1
  Sn  Sn28  1  0.99687367  0.98030206  0.15508823  1
  Sn  Sn29  1  0.67820929  0.34935347  0.98388987  1
  Sn  Sn30  1  0.67688999  0.33785835  0.48685785  1
  Sn  Sn31  1  0.33059741  0.66809595  0.31632211  1
  Sn  Sn32  1  0.36241322  0.67431491  0.81095993  1
  S  S33  1  0.00248777  0.28709444  0.24904219  1
  S  S34  1  0.00609969  0.70936875  0.75165682  1
  S  S35  1  0.67110186  0.63090541  0.58375686  1
  S  S36  1  0.67226661  0.04745269  0.08245039  1
  S  S37  1  0.36622902  0.32566831  0.08383603  1
  S  S38  1  0.03996621  0.37756265  0.91753798  1
  S  S39  1  0.33939920  0.96338158  0.91828988  1
  S  S40  1  0.62804725  0.96280206  0.41758813  1
  S  S41  1  0.33643877  0.37697862  0.41664272  1
  O  O42  1  0.21526207  0.02897068  0.31137907  1
  O  O43  1  0.83166747  0.80772259  0.30081366  1
  O  O44  1  0.98465167  0.18560004  0.30057374  1
  O  O45  1  0.21157376  0.18682496  0.81647457  1
  O  O46  1  0.98613859  0.79333004  0.80397628  1
  O  O47  1  0.82503427  0.01864515  0.80381918  1
  O  O48  1  0.79029153  0.96258284  0.68797526  1
  O  O49  1  0.16840921  0.20941308  0.70009323  1
  O  O50  1  0.03642461  0.81276824  0.69771019  1
  O  O51  1  0.76205458  0.81519229  0.18671678  1
  O  O52  1  0.02739509  0.20914371  0.19368735  1
  O  O53  1  0.17424831  0.95515613  0.19513488  1
  O  O54  1  0.87538894  0.35855756  0.64543113  1
  O  O55  1  0.49706229  0.13995422  0.63393593  1
  O  O56  1  0.64655465  0.52334733  0.63432837  1
  O  O57  1  0.87348554  0.52046536  0.14397352  1
  O  O58  1  0.64872059  0.13073241  0.13313315  1
  O  O59  1  0.47958715  0.34866493  0.13234007  1
  O  O60  1  0.43613392  0.29223549  0.02773006  1
  O  O61  1  0.83723897  0.55193009  0.02937274  1
  O  O62  1  0.68925201  0.14570219  0.02670064  1
  O  O63  1  0.44649496  0.15645966  0.51796716  1
  O  O64  1  0.69908867  0.55757487  0.52793663  1
  O  O65  1  0.83519604  0.28872645  0.52931669  1
  O  O66  1  0.53930906  0.68099110  0.98204271  1
  O  O67  1  0.14458437  0.46923020  0.96842779  1
  O  O68  1  0.31845122  0.85800321  0.97016991  1
  O  O69  1  0.55168661  0.86037824  0.47019886  1
  O  O70  1  0.32723271  0.46779720  0.46787199  1
  O  O71  1  0.16469866  0.69201871  0.46770321  1
  O  O72  1  0.10793947  0.62173530  0.35398236  1
  O  O73  1  0.51781177  0.87966518  0.36476452  1
  O  O74  1  0.36405216  0.48018567  0.36158099  1
  O  O75  1  0.11124999  0.47919844  0.86318970  1
  O  O76  1  0.35984419  0.88401112  0.86407667  1
  O  O77  1  0.49605345  0.61973839  0.86729794  1
  O  O78  1  0.02070515  0.83486675  0.41264144  1
  O  O79  1  0.80160194  0.99277591  0.40832697  1
  O  O80  1  0.17937505  0.20720806  0.41276749  1
  O  O81  1  0.03269421  0.20947218  0.91533819  1
  O  O82  1  0.19108898  0.99069463  0.91574974  1
  O  O83  1  0.82014328  0.83055290  0.91431758  1
  O  O84  1  0.96280669  0.14748489  0.58681744  1
  O  O85  1  0.17602717  0.00893386  0.58805584  1
  O  O86  1  0.82662445  0.80353695  0.58763867  1
  O  O87  1  0.97395890  0.82417310  0.08741554  1
  O  O88  1  0.83042702  0.03285443  0.08459932  1
  O  O89  1  0.19062835  0.17843954  0.09103198  1
  O  O90  1  0.70342249  0.17861464  0.74590316  1
  O  O91  1  0.48829084  0.33105933  0.74740605  1
  O  O92  1  0.85462309  0.53774161  0.74730413  1
  O  O93  1  0.69421951  0.52258433  0.24524015  1
  O  O94  1  0.85050249  0.30849517  0.24414238  1
  O  O95  1  0.49070068  0.16049495  0.24258031  1
  O  O96  1  0.63154475  0.47834565  0.92295664  1
  O  O97  1  0.86069700  0.34750338  0.92404281  1
  O  O98  1  0.49877406  0.13759234  0.92338364  1
  O  O99  1  0.62996382  0.13176508  0.41990938  1
  O  O100  1  0.48777464  0.34917327  0.41801562  1
  O  O101  1  0.83727041  0.48726478  0.42291846  1
  O  O102  1  0.35918631  0.48698784  0.07830005  1
  O  O103  1  0.15641866  0.65584835  0.07734379  1
  O  O104  1  0.52244750  0.87089874  0.07795699  1
  O  O105  1  0.37228484  0.86158117  0.57474280  1
  O  O106  1  0.52138365  0.65540208  0.57732660  1
  O  O107  1  0.15312559  0.49184078  0.57942110  1
  O  O108  1  0.29857520  0.81492314  0.25601830  1
  O  O109  1  0.50248290  0.67412810  0.25881494  1
  O  O110  1  0.15666227  0.46250817  0.25085709  1
  O  O111  1  0.28674950  0.47654699  0.75781922  1
  O  O112  1  0.15962119  0.68569550  0.75810435  1
  O  O113  1  0.51313060  0.83672462  0.75103471  1
