# generated using pymatgen
data_Na4Mg(Mo2O5)2
_symmetry_space_group_name_H-M   'P 1'
_cell_length_a   5.63515797
_cell_length_b   5.92252164
_cell_length_c   8.68132007
_cell_angle_alpha   108.58593367
_cell_angle_beta   109.20925059
_cell_angle_gamma   91.04023848
_symmetry_Int_Tables_number   1
_chemical_formula_structural   Na4Mg(Mo2O5)2
_chemical_formula_sum   'Na4 Mg1 Mo4 O10'
_cell_volume   256.87155747
_cell_formula_units_Z   1
loop_
 _symmetry_equiv_pos_site_id
 _symmetry_equiv_pos_as_xyz
  1  'x, y, z'
loop_
 _atom_site_type_symbol
 _atom_site_label
 _atom_site_symmetry_multiplicity
 _atom_site_fract_x
 _atom_site_fract_y
 _atom_site_fract_z
 _atom_site_occupancy
  Na  Na0  1  0.38897418  0.93041903  0.82736329  1
  Na  Na1  1  0.63243547  0.08125577  0.23106198  1
  Na  Na2  1  0.60176956  0.05518685  0.62491340  1
  Na  Na3  1  0.11089151  0.71169755  0.23014166  1
  Mg  Mg4  1  0.92962511  0.52314186  0.82413081  1
  Mo  Mo5  1  0.02204050  0.03885654  0.00693970  1
  Mo  Mo6  1  0.51078136  0.50360046  0.99175731  1
  Mo  Mo7  1  0.85183571  0.64382833  0.49458766  1
  Mo  Mo8  1  0.25576011  0.40738783  0.50995727  1
  O  O9  1  0.77832632  0.28951555  0.91755953  1
  O  O10  1  0.72230056  0.76112495  0.95705060  1
  O  O11  1  0.34825784  0.25791313  0.04739314  1
  O  O12  1  0.25503996  0.74163636  0.02590438  1
  O  O13  1  0.94811257  0.83490486  0.73637075  1
  O  O14  1  0.10171004  0.14858379  0.28772853  1
  O  O15  1  0.24800386  0.36566049  0.72538221  1
  O  O16  1  0.72477538  0.62842931  0.26518993  1
  O  O17  1  0.24510234  0.74418186  0.52009508  1
  O  O18  1  0.64936263  0.39517447  0.54210076  1
