# generated using pymatgen
data_Na2AlSn(PO4)3
_symmetry_space_group_name_H-M   'P 1'
_cell_length_a   8.68870699
_cell_length_b   8.68870671
_cell_length_c   22.14733148
_cell_angle_alpha   90.08830714
_cell_angle_beta   89.91169286
_cell_angle_gamma   120.36259790
_symmetry_Int_Tables_number   1
_chemical_formula_structural   Na2AlSn(PO4)3
_chemical_formula_sum   'Na12 Al6 Sn6 P18 O72'
_cell_volume   1442.65738317
_cell_formula_units_Z   6
loop_
 _symmetry_equiv_pos_site_id
 _symmetry_equiv_pos_as_xyz
  1  'x, y, z'
loop_
 _atom_site_type_symbol
 _atom_site_label
 _atom_site_symmetry_multiplicity
 _atom_site_fract_x
 _atom_site_fract_y
 _atom_site_fract_z
 _atom_site_occupancy
  Na  Na0  1  0.36427530  0.36283069  0.24909070  1
  Na  Na1  1  0.63716931  0.63572470  0.74909070  1
  Na  Na2  1  0.03094230  0.69616369  0.58242370  1
  Na  Na3  1  0.30383631  0.96905770  0.08242370  1
  Na  Na4  1  0.69760830  0.02949769  0.91575770  1
  Na  Na5  1  0.97050231  0.30239170  0.41575770  1
  Na  Na6  1  0.00009777  0.99945666  0.49772417  1
  Na  Na7  1  0.00054334  0.99990223  0.99772417  1
  Na  Na8  1  0.66676477  0.33278966  0.83105717  1
  Na  Na9  1  0.66721034  0.33323523  0.33105717  1
  Na  Na10  1  0.33343077  0.66612366  0.16439117  1
  Na  Na11  1  0.33387634  0.66656923  0.66439117  1
  Al  Al12  1  0.99857465  0.99343625  0.35289354  1
  Al  Al13  1  0.00656375  0.00142535  0.85289354  1
  Al  Al14  1  0.66524165  0.32676925  0.68622654  1
  Al  Al15  1  0.67323075  0.33475835  0.18622654  1
  Al  Al16  1  0.33190765  0.66010325  0.01956054  1
  Al  Al17  1  0.33989675  0.66809235  0.51956054  1
  Sn  Sn18  1  0.00130702  0.00591717  0.64845600  1
  Sn  Sn19  1  0.99408283  0.99869298  0.14845600  1
  Sn  Sn20  1  0.66797402  0.33925017  0.98178900  1
  Sn  Sn21  1  0.66074983  0.33202598  0.48178900  1
  Sn  Sn22  1  0.33464002  0.67258417  0.31512300  1
  Sn  Sn23  1  0.32741583  0.66535998  0.81512300  1
  P  P24  1  0.29235546  0.00322822  0.25059036  1
  P  P25  1  0.71408758  0.70658336  0.25207589  1
  P  P26  1  0.99017234  0.28642467  0.25235664  1
  P  P27  1  0.29341664  0.28591242  0.75207589  1
  P  P28  1  0.99677178  0.70764454  0.75059036  1
  P  P29  1  0.71357533  0.00982766  0.75235664  1
  P  P30  1  0.95902246  0.33656122  0.58392336  1
  P  P31  1  0.38075458  0.03991636  0.58540889  1
  P  P32  1  0.65683934  0.61975767  0.58568964  1
  P  P33  1  0.96008364  0.61924542  0.08540889  1
  P  P34  1  0.66343878  0.04097754  0.08392336  1
  P  P35  1  0.38024233  0.34316066  0.08568964  1
  P  P36  1  0.62568846  0.66989522  0.91725736  1
  P  P37  1  0.04742058  0.37325036  0.91874289  1
  P  P38  1  0.32350534  0.95309167  0.91902364  1
  P  P39  1  0.62674964  0.95257942  0.41874289  1
  P  P40  1  0.33010478  0.37431154  0.41725736  1
  P  P41  1  0.04690833  0.67649466  0.41902364  1
  O  O42  1  0.19997168  0.03585735  0.30465330  1
  O  O43  1  0.83124607  0.80005492  0.30675939  1
  O  O44  1  0.96780046  0.17336684  0.30879519  1
  O  O45  1  0.19994508  0.16875393  0.80675939  1
  O  O46  1  0.96414265  0.80002832  0.80465330  1
  O  O47  1  0.82663316  0.03219954  0.80879519  1
  O  O48  1  0.78414734  0.95839510  0.69576937  1
  O  O49  1  0.18210114  0.21914520  0.69380138  1
  O  O50  1  0.03330769  0.81700168  0.69109058  1
  O  O51  1  0.78085480  0.81789886  0.19380138  1
  O  O52  1  0.04160490  0.21585266  0.19576937  1
  O  O53  1  0.18299832  0.96669231  0.19109058  1
  O  O54  1  0.86663868  0.36919035  0.63798630  1
  O  O55  1  0.49791307  0.13338792  0.64009239  1
  O  O56  1  0.63446746  0.50669984  0.64212819  1
  O  O57  1  0.86661208  0.50208693  0.14009239  1
  O  O58  1  0.63080965  0.13336132  0.13798630  1
  O  O59  1  0.49330016  0.36553254  0.14212819  1
  O  O60  1  0.45081434  0.29172810  0.02910237  1
  O  O61  1  0.84876814  0.55247820  0.02713438  1
  O  O62  1  0.69997469  0.15033468  0.02442358  1
  O  O63  1  0.44752180  0.15123186  0.52713438  1
  O  O64  1  0.70827190  0.54918566  0.52910237  1
  O  O65  1  0.84966532  0.30002531  0.52442358  1
  O  O66  1  0.53330468  0.70252435  0.97132030  1
  O  O67  1  0.16457907  0.46672192  0.97342639  1
  O  O68  1  0.30113346  0.84003384  0.97546219  1
  O  O69  1  0.53327808  0.83542093  0.47342639  1
  O  O70  1  0.29747565  0.46669532  0.47132030  1
  O  O71  1  0.15996616  0.69886654  0.47546219  1
  O  O72  1  0.11748034  0.62506210  0.36243637  1
  O  O73  1  0.51543414  0.88581220  0.36046838  1
  O  O74  1  0.36664069  0.48366868  0.35775758  1
  O  O75  1  0.11418780  0.48456586  0.86046838  1
  O  O76  1  0.37493790  0.88251966  0.86243637  1
  O  O77  1  0.51633132  0.63335931  0.85775758  1
  O  O78  1  0.02857264  0.84106997  0.40896499  1
  O  O79  1  0.81464334  0.97696754  0.41008333  1
  O  O80  1  0.15868474  0.18854493  0.40916579  1
  O  O81  1  0.02303246  0.18535666  0.91008333  1
  O  O82  1  0.15893003  0.97142736  0.90896499  1
  O  O83  1  0.81145507  0.84131526  0.90916579  1
  O  O84  1  0.97814204  0.16924539  0.58839369  1
  O  O85  1  0.18716948  0.01244720  0.58950348  1
  O  O86  1  0.83241080  0.80909440  0.58983222  1
  O  O87  1  0.98755280  0.81283052  0.08950348  1
  O  O88  1  0.83075461  0.02185796  0.08839369  1
  O  O89  1  0.19090560  0.16758920  0.08983222  1
  O  O90  1  0.69523964  0.17440297  0.74229799  1
  O  O91  1  0.48131034  0.31030054  0.74341633  1
  O  O92  1  0.82535174  0.52187793  0.74249879  1
  O  O93  1  0.68969946  0.51868966  0.24341633  1
  O  O94  1  0.82559703  0.30476036  0.24229799  1
  O  O95  1  0.47812207  0.17464826  0.24249879  1
  O  O96  1  0.64480904  0.50257839  0.92172669  1
  O  O97  1  0.85383648  0.34578020  0.92283648  1
  O  O98  1  0.49907780  0.14242740  0.92316522  1
  O  O99  1  0.65421980  0.14616352  0.42283648  1
  O  O100  1  0.49742161  0.35519096  0.42172669  1
  O  O101  1  0.85757260  0.50092220  0.42316522  1
  O  O102  1  0.36190564  0.50773697  0.07563199  1
  O  O103  1  0.14797634  0.64363454  0.07675033  1
  O  O104  1  0.49201774  0.85521193  0.07583279  1
  O  O105  1  0.35636546  0.85202366  0.57675033  1
  O  O106  1  0.49226303  0.63809436  0.57563199  1
  O  O107  1  0.14478807  0.50798226  0.57583279  1
  O  O108  1  0.31147504  0.83591239  0.25506069  1
  O  O109  1  0.52050248  0.67911420  0.25617048  1
  O  O110  1  0.16574380  0.47576140  0.25649922  1
  O  O111  1  0.32088580  0.47949752  0.75617048  1
  O  O112  1  0.16408761  0.68852496  0.75506069  1
  O  O113  1  0.52423860  0.83425620  0.75649922  1
