# generated using pymatgen
data_Na3TaZnSi(PO6)2
_symmetry_space_group_name_H-M   'P 1'
_cell_length_a   9.01147900
_cell_length_b   9.05976963
_cell_length_c   22.13303933
_cell_angle_alpha   89.63233148
_cell_angle_beta   90.00000000
_cell_angle_gamma   119.82383360
_symmetry_Int_Tables_number   1
_chemical_formula_structural   Na3TaZnSi(PO6)2
_chemical_formula_sum   'Na18 Ta6 Zn6 Si6 P12 O72'
_cell_volume   1567.62163594
_cell_formula_units_Z   6
loop_
 _symmetry_equiv_pos_site_id
 _symmetry_equiv_pos_as_xyz
  1  'x, y, z'
loop_
 _atom_site_type_symbol
 _atom_site_label
 _atom_site_symmetry_multiplicity
 _atom_site_fract_x
 _atom_site_fract_y
 _atom_site_fract_z
 _atom_site_occupancy
  Na  Na0  1  0.99694170  0.00617592  0.48883747  1
  Na  Na1  1  0.00923422  0.00617592  0.98883747  1
  Na  Na2  1  0.67181639  0.32864718  0.82249303  1
  Na  Na3  1  0.65683179  0.32864718  0.32249303  1
  Na  Na4  1  0.34967513  0.65573060  0.15519770  1
  Na  Na5  1  0.30605447  0.65573060  0.65519770  1
  Na  Na6  1  0.65459856  0.02228635  0.24431669  1
  Na  Na7  1  0.98551239  0.62392202  0.23981407  1
  Na  Na8  1  0.63840963  0.62392202  0.73981407  1
  Na  Na9  1  0.36768779  0.02228635  0.74431669  1
  Na  Na10  1  0.31873328  0.35586648  0.58062787  1
  Na  Na11  1  0.64497914  0.95282116  0.57519136  1
  Na  Na12  1  0.30784301  0.95282116  0.07519136  1
  Na  Na13  1  0.03713420  0.35586648  0.08062787  1
  Na  Na14  1  0.97967090  0.68762353  0.91363936  1
  Na  Na15  1  0.70057433  0.01807794  0.90861685  1
  Na  Na16  1  0.31750261  0.01807794  0.40861685  1
  Na  Na17  1  0.70795163  0.68762353  0.41363936  1
  Ta  Ta18  1  0.99543759  0.99687812  0.64678064  1
  Ta  Ta19  1  0.00144053  0.99687812  0.14678064  1
  Ta  Ta20  1  0.66170537  0.33540198  0.97993973  1
  Ta  Ta21  1  0.67369761  0.33540198  0.47993973  1
  Ta  Ta22  1  0.33265401  0.66767457  0.31336981  1
  Ta  Ta23  1  0.33501956  0.66767457  0.81336981  1
  Zn  Zn24  1  0.00331556  0.00943631  0.34931798  1
  Zn  Zn25  1  0.00612075  0.00943631  0.84931798  1
  Zn  Zn26  1  0.67544229  0.33129140  0.68264618  1
  Zn  Zn27  1  0.65585012  0.33129140  0.18264618  1
  Zn  Zn28  1  0.32675381  0.66936170  0.01521470  1
  Zn  Zn29  1  0.34260689  0.66936170  0.51521470  1
  Si  Si30  1  0.29672138  0.00355993  0.25504105  1
  Si  Si31  1  0.70683855  0.00355993  0.75504105  1
  Si  Si32  1  0.66935189  0.62541391  0.58724559  1
  Si  Si33  1  0.95606302  0.62541391  0.08724559  1
  Si  Si34  1  0.33135509  0.96633145  0.91883410  1
  Si  Si35  1  0.63497536  0.96633145  0.41883410  1
  P  P36  1  0.70562964  0.70840157  0.25397942  1
  P  P37  1  0.00778677  0.29496096  0.25041250  1
  P  P38  1  0.28717419  0.29496096  0.75041250  1
  P  P39  1  0.00277193  0.70840157  0.75397942  1
  P  P40  1  0.95939309  0.33113365  0.58599708  1
  P  P41  1  0.36970210  0.04163105  0.58547256  1
  P  P42  1  0.67192995  0.04163105  0.08547256  1
  P  P43  1  0.37174157  0.33113365  0.08599708  1
  P  P44  1  0.61576726  0.65786548  0.91912558  1
  P  P45  1  0.03783659  0.37521476  0.92143918  1
  P  P46  1  0.33737717  0.37521476  0.42143918  1
  P  P47  1  0.04209722  0.65786548  0.41912558  1
  O  O48  1  0.20655450  0.01097169  0.31560473  1
  O  O49  1  0.80261135  0.78526233  0.31160577  1
  O  O50  1  0.97404907  0.17912835  0.30357218  1
  O  O51  1  0.20507927  0.17912835  0.80357218  1
  O  O52  1  0.98265098  0.78526233  0.81160577  1
  O  O53  1  0.80441719  0.01097169  0.81560473  1
  O  O54  1  0.81235499  0.97740563  0.69569981  1
  O  O55  1  0.18196979  0.20797250  0.69043257  1
  O  O56  1  0.03390976  0.83776123  0.69876991  1
  O  O57  1  0.80385148  0.83776123  0.19876991  1
  O  O58  1  0.02600271  0.20797250  0.19043257  1
  O  O59  1  0.16505064  0.97740563  0.19569981  1
  O  O60  1  0.87841718  0.34549247  0.64275117  1
  O  O61  1  0.47120886  0.11824922  0.64279172  1
  O  O62  1  0.64355041  0.51277401  0.64591662  1
  O  O63  1  0.86922460  0.51277401  0.14591662  1
  O  O64  1  0.64704136  0.11824922  0.14279172  1
  O  O65  1  0.46707629  0.34549247  0.14275117  1
  O  O66  1  0.46574443  0.30319228  0.02930297  1
  O  O67  1  0.83358928  0.52515824  0.02631985  1
  O  O68  1  0.69230409  0.16342577  0.02921411  1
  O  O69  1  0.47112268  0.16342577  0.52921411  1
  O  O70  1  0.69156996  0.52515824  0.52631985  1
  O  O71  1  0.83744885  0.30319228  0.52930297  1
  O  O72  1  0.52518976  0.67930672  0.97231805  1
  O  O73  1  0.12757792  0.45175895  0.98044174  1
  O  O74  1  0.30533234  0.85795344  0.97916065  1
  O  O75  1  0.55262010  0.85795344  0.47916065  1
  O  O76  1  0.32418004  0.45175895  0.48044174  1
  O  O77  1  0.15411596  0.67930672  0.47231805  1
  O  O78  1  0.12702180  0.63634145  0.35886911  1
  O  O79  1  0.49574168  0.85668009  0.36075115  1
  O  O80  1  0.35522854  0.49668378  0.36645678  1
  O  O81  1  0.14145424  0.49668378  0.86645678  1
  O  O82  1  0.36093740  0.85668009  0.86075115  1
  O  O83  1  0.50931864  0.63634145  0.85886911  1
  O  O84  1  0.00842170  0.80660397  0.41445706  1
  O  O85  1  0.82046104  0.98763296  0.40913718  1
  O  O86  1  0.19530948  0.19267734  0.41497595  1
  O  O87  1  0.99736786  0.19267734  0.91497595  1
  O  O88  1  0.16717192  0.98763296  0.90913718  1
  O  O89  1  0.79818226  0.80660397  0.91445706  1
  O  O90  1  0.96354635  0.15583133  0.58690072  1
  O  O91  1  0.19699673  0.04678129  0.58700857  1
  O  O92  1  0.84841568  0.81851088  0.59108417  1
  O  O93  1  0.97009520  0.81851088  0.09108417  1
  O  O94  1  0.84978456  0.04678129  0.08700857  1
  O  O95  1  0.19228498  0.15583133  0.08690072  1
  O  O96  1  0.66103992  0.15198108  0.74619132  1
  O  O97  1  0.47154211  0.32997574  0.74558697  1
  O  O98  1  0.85003992  0.53312893  0.74458673  1
  O  O99  1  0.68309001  0.53312893  0.24458673  1
  O  O100  1  0.85843463  0.32997574  0.24558697  1
  O  O101  1  0.49094216  0.15198108  0.24619132  1
  O  O102  1  0.62891426  0.48980799  0.92260291  1
  O  O103  1  0.85987643  0.37634687  0.92035483  1
  O  O104  1  0.51946394  0.14852011  0.92169394  1
  O  O105  1  0.62905717  0.14852011  0.42169394  1
  O  O106  1  0.51647144  0.37634687  0.42035483  1
  O  O107  1  0.86089473  0.48980799  0.42260291  1
  O  O108  1  0.33494157  0.47573014  0.07679914  1
  O  O109  1  0.14977497  0.65830150  0.08214262  1
  O  O110  1  0.52421575  0.86268846  0.07708977  1
  O  O111  1  0.33847170  0.86268846  0.57708977  1
  O  O112  1  0.50852553  0.65830150  0.58214262  1
  O  O113  1  0.14078758  0.47573014  0.57679914  1
  O  O114  1  0.29653885  0.81368893  0.25534256  1
  O  O115  1  0.52713454  0.70322413  0.25494323  1
  O  O116  1  0.17857460  0.47204215  0.25557298  1
  O  O117  1  0.29346655  0.47204215  0.75557298  1
  O  O118  1  0.17608859  0.70322413  0.75494323  1
  O  O119  1  0.51714908  0.81368893  0.75534256  1
