# generated using pymatgen
data_Na3HfZn(PO4)3
_symmetry_space_group_name_H-M   'P 1'
_cell_length_a   9.04507754
_cell_length_b   9.02851529
_cell_length_c   22.29785344
_cell_angle_alpha   89.99999999
_cell_angle_beta   90.11024633
_cell_angle_gamma   119.93944915
_symmetry_Int_Tables_number   1
_chemical_formula_structural   Na3HfZn(PO4)3
_chemical_formula_sum   'Na18 Hf6 Zn6 P18 O72'
_cell_volume   1577.92338050
_cell_formula_units_Z   6
loop_
 _symmetry_equiv_pos_site_id
 _symmetry_equiv_pos_as_xyz
  1  'x, y, z'
loop_
 _atom_site_type_symbol
 _atom_site_label
 _atom_site_symmetry_multiplicity
 _atom_site_fract_x
 _atom_site_fract_y
 _atom_site_fract_z
 _atom_site_occupancy
  Na  Na0  1  0.98178709  0.96570271  0.49023597  1
  Na  Na1  1  0.98178709  0.01608439  0.99023597  1
  Na  Na2  1  0.66652166  0.33829153  0.82337314  1
  Na  Na3  1  0.66652166  0.32822913  0.32337314  1
  Na  Na4  1  0.32815551  0.66138845  0.15671364  1
  Na  Na5  1  0.32815551  0.66676806  0.65671364  1
  Na  Na6  1  0.37340040  0.35908840  0.24459707  1
  Na  Na7  1  0.98316947  0.63090770  0.24480558  1
  Na  Na8  1  0.98316947  0.35226177  0.74480558  1
  Na  Na9  1  0.37340040  0.01431200  0.74459707  1
  Na  Na10  1  0.31237068  0.34998058  0.57809969  1
  Na  Na11  1  0.65321624  0.96213897  0.57826127  1
  Na  Na12  1  0.31237068  0.96238909  0.07809969  1
  Na  Na13  1  0.65321624  0.69107628  0.07826127  1
  Na  Na14  1  0.98054884  0.68556907  0.91099875  1
  Na  Na15  1  0.31919696  0.29418783  0.91187800  1
  Na  Na16  1  0.98054884  0.29498077  0.41099875  1
  Na  Na17  1  0.31919696  0.02501013  0.41187800  1
  Hf  Hf18  1  0.99753650  0.99254424  0.64846084  1
  Hf  Hf19  1  0.99753650  0.00499226  0.14846084  1
  Hf  Hf20  1  0.67154806  0.32785286  0.98169436  1
  Hf  Hf21  1  0.67154806  0.34369419  0.48169436  1
  Hf  Hf22  1  0.34226996  0.67293285  0.31510857  1
  Hf  Hf23  1  0.34226996  0.66933811  0.81510857  1
  Zn  Zn24  1  0.98933488  0.99308138  0.34716440  1
  Zn  Zn25  1  0.98933488  0.99625350  0.84716440  1
  Zn  Zn26  1  0.67063699  0.34382698  0.68052300  1
  Zn  Zn27  1  0.67063699  0.32680901  0.18052300  1
  Zn  Zn28  1  0.32948447  0.66043028  0.01402544  1
  Zn  Zn29  1  0.32948447  0.66905519  0.51402544  1
  P  P30  1  0.29581332  0.00142835  0.25229794  1
  P  P31  1  0.70445418  0.70346026  0.24967242  1
  P  P32  1  0.00056974  0.29851593  0.25517951  1
  P  P33  1  0.29581332  0.29438497  0.75229794  1
  P  P34  1  0.00056974  0.70205380  0.75517951  1
  P  P35  1  0.70445418  0.00099392  0.74967242  1
  P  P36  1  0.96473913  0.33373495  0.58640066  1
  P  P37  1  0.37228705  0.03852573  0.58563782  1
  P  P38  1  0.66413814  0.62905880  0.58547057  1
  P  P39  1  0.96473913  0.63100318  0.08640066  1
  P  P40  1  0.66413814  0.03507833  0.08547057  1
  P  P41  1  0.37228705  0.33376032  0.08563782  1
  P  P42  1  0.63208571  0.66800135  0.92212227  1
  P  P43  1  0.04068568  0.37243311  0.91624020  1
  P  P44  1  0.33453377  0.96391947  0.91909987  1
  P  P45  1  0.63208571  0.96408536  0.42212227  1
  P  P46  1  0.33453377  0.37061530  0.41909987  1
  P  P47  1  0.04068568  0.66825356  0.41624020  1
  O  O48  1  0.21411554  0.02468331  0.30898236  1
  O  O49  1  0.81819762  0.78854175  0.30338671  1
  O  O50  1  0.98504976  0.20468871  0.31368454  1
  O  O51  1  0.21411554  0.18943223  0.80898236  1
  O  O52  1  0.98504976  0.78036105  0.81368454  1
  O  O53  1  0.81819762  0.02965587  0.80338671  1
  O  O54  1  0.78828438  0.97861275  0.69139256  1
  O  O55  1  0.17701956  0.20254683  0.69658298  1
  O  O56  1  0.02202035  0.82344680  0.70128539  1
  O  O57  1  0.78828438  0.80967163  0.19139256  1
  O  O58  1  0.02202035  0.19857355  0.20128539  1
  O  O59  1  0.17701956  0.97447273  0.19658298  1
  O  O60  1  0.88242148  0.34854739  0.64399918  1
  O  O61  1  0.47623141  0.11965856  0.64254588  1
  O  O62  1  0.63537374  0.51914623  0.64025795  1
  O  O63  1  0.88242148  0.53387309  0.14399918  1
  O  O64  1  0.63537374  0.11622651  0.14025795  1
  O  O65  1  0.47623141  0.35657186  0.14254588  1
  O  O66  1  0.46504372  0.30693288  0.03026294  1
  O  O67  1  0.84882422  0.53656563  0.03054559  1
  O  O68  1  0.68723096  0.14634534  0.02853192  1
  O  O69  1  0.46504372  0.15810984  0.53026294  1
  O  O70  1  0.68723096  0.54088463  0.52853192  1
  O  O71  1  0.84882422  0.31225759  0.53054559  1
  O  O72  1  0.55559344  0.68532111  0.98030564  1
  O  O73  1  0.15273922  0.45665450  0.97034227  1
  O  O74  1  0.31376946  0.86016640  0.97550159  1
  O  O75  1  0.55559344  0.87027333  0.48030564  1
  O  O76  1  0.31376946  0.45360406  0.47550159  1
  O  O77  1  0.15273922  0.69608572  0.47034227  1
  O  O78  1  0.12538162  0.64047031  0.35872402  1
  O  O79  1  0.50978664  0.86671641  0.36804653  1
  O  O80  1  0.35232967  0.48126492  0.36244607  1
  O  O81  1  0.12538162  0.48491231  0.85872402  1
  O  O82  1  0.35232967  0.87106575  0.86244607  1
  O  O83  1  0.50978664  0.64307123  0.86804653  1
  O  O84  1  0.01607461  0.82335942  0.40940839  1
  O  O85  1  0.81470424  0.99796022  0.41383170  1
  O  O86  1  0.17858959  0.18889215  0.41398808  1
  O  O87  1  0.01607461  0.19271519  0.90940839  1
  O  O88  1  0.17858959  0.98969744  0.91398808  1
  O  O89  1  0.81470424  0.81674403  0.91383170  1
  O  O90  1  0.97125666  0.16090903  0.58727201  1
  O  O91  1  0.19504966  0.03192184  0.58870313  1
  O  O92  1  0.82959443  0.80977591  0.58857455  1
  O  O93  1  0.97125666  0.81034763  0.08727201  1
  O  O94  1  0.82959443  0.01981852  0.08857455  1
  O  O95  1  0.19504966  0.16312781  0.08870313  1
  O  O96  1  0.67577849  0.15531883  0.74491722  1
  O  O97  1  0.47254571  0.31426900  0.74495000  1
  O  O98  1  0.85299198  0.51893796  0.74753349  1
  O  O99  1  0.67577849  0.52045866  0.24491722  1
  O  O100  1  0.85299198  0.33405302  0.24753349  1
  O  O101  1  0.47254571  0.15827571  0.24495000  1
  O  O102  1  0.63930285  0.49564513  0.92215938  1
  O  O103  1  0.86495662  0.36859590  0.92114867  1
  O  O104  1  0.49793001  0.14663333  0.92082310  1
  O  O105  1  0.63930285  0.14365673  0.42215938  1
  O  O106  1  0.49793001  0.35129568  0.42082310  1
  O  O107  1  0.86495662  0.49635972  0.42114867  1
  O  O108  1  0.35056813  0.48975158  0.07830779  1
  O  O109  1  0.14767351  0.66633198  0.08001133  1
  O  O110  1  0.51014916  0.85330058  0.07919843  1
  O  O111  1  0.35056813  0.86081755  0.57830779  1
  O  O112  1  0.51014916  0.65684958  0.57919843  1
  O  O113  1  0.14767351  0.48134253  0.58001133  1
  O  O114  1  0.30253181  0.83085495  0.25512320  1
  O  O115  1  0.52336119  0.68680124  0.25456474  1
  O  O116  1  0.17374416  0.47669751  0.25459970  1
  O  O117  1  0.30253181  0.47167785  0.75512320  1
  O  O118  1  0.17374416  0.69704765  0.75459970  1
  O  O119  1  0.52336119  0.83656095  0.75456474  1
