# generated using pymatgen
data_MgCo2(AgO3)2
_symmetry_space_group_name_H-M   'P 1'
_cell_length_a   6.46079825
_cell_length_b   6.46173444
_cell_length_c   6.46259919
_cell_angle_alpha   45.95815928
_cell_angle_beta   45.85989495
_cell_angle_gamma   45.94513385
_symmetry_Int_Tables_number   1
_chemical_formula_structural   MgCo2(AgO3)2
_chemical_formula_sum   'Mg1 Co2 Ag2 O6'
_cell_volume   126.97936655
_cell_formula_units_Z   1
loop_
 _symmetry_equiv_pos_site_id
 _symmetry_equiv_pos_as_xyz
  1  'x, y, z'
loop_
 _atom_site_type_symbol
 _atom_site_label
 _atom_site_symmetry_multiplicity
 _atom_site_fract_x
 _atom_site_fract_y
 _atom_site_fract_z
 _atom_site_occupancy
  Mg  Mg0  1  0.50000000  0.50000000  0.50000000  1
  Co  Co1  1  0.16264000  0.16354700  0.16286800  1
  Co  Co2  1  0.83736000  0.83645300  0.83713200  1
  Ag  Ag3  1  0.33518700  0.33434300  0.33515700  1
  Ag  Ag4  1  0.66481300  0.66565700  0.66484300  1
  O  O5  1  0.08387200  0.79244800  0.44773500  1
  O  O6  1  0.55360700  0.91480900  0.20715200  1
  O  O7  1  0.20653400  0.55376200  0.91616000  1
  O  O8  1  0.79346600  0.44623800  0.08384000  1
  O  O9  1  0.44639300  0.08519100  0.79284800  1
  O  O10  1  0.91612800  0.20755200  0.55226500  1
