# generated using pymatgen
data_Na14Ta5Ga3(SiO4)12
_symmetry_space_group_name_H-M   'P 1'
_cell_length_a   18.03986988
_cell_length_b   9.02109658
_cell_length_c   22.25259731
_cell_angle_alpha   90.02989482
_cell_angle_beta   89.90194624
_cell_angle_gamma   120.06083434
_symmetry_Int_Tables_number   1
_chemical_formula_structural   Na14Ta5Ga3(SiO4)12
_chemical_formula_sum   'Na42 Ta15 Ga9 Si36 O144'
_cell_volume   3134.27322720
_cell_formula_units_Z   3
loop_
 _symmetry_equiv_pos_site_id
 _symmetry_equiv_pos_as_xyz
  1  'x, y, z'
loop_
 _atom_site_type_symbol
 _atom_site_label
 _atom_site_symmetry_multiplicity
 _atom_site_fract_x
 _atom_site_fract_y
 _atom_site_fract_z
 _atom_site_occupancy
  Na  Na0  1  0.31974946  0.01176451  0.24745576  1
  Na  Na1  1  0.81618880  0.01024411  0.24582891  1
  Na  Na2  1  0.18932137  0.36822882  0.24566605  1
  Na  Na3  1  0.68604707  0.36037172  0.24754189  1
  Na  Na4  1  0.99490989  0.62293359  0.24633882  1
  Na  Na5  1  0.49366849  0.62615190  0.24714568  1
  Na  Na6  1  0.31728875  0.62449907  0.74685995  1
  Na  Na7  1  0.81715202  0.62431859  0.74709426  1
  Na  Na8  1  0.99473048  0.36579206  0.74715982  1
  Na  Na9  1  0.49460164  0.36551670  0.74704169  1
  Na  Na10  1  0.18839702  0.01032978  0.74685706  1
  Na  Na11  1  0.68808273  0.01014839  0.74687546  1
  Na  Na12  1  0.15273309  0.34652195  0.57993763  1
  Na  Na13  1  0.65210880  0.34490589  0.58001684  1
  Na  Na14  1  0.02069840  0.69528937  0.57986964  1
  Na  Na15  1  0.51992049  0.69499152  0.57998797  1
  Na  Na16  1  0.32720921  0.95847979  0.57977305  1
  Na  Na17  1  0.82732071  0.95943613  0.58060901  1
  Na  Na18  1  0.15331072  0.96015960  0.08007903  1
  Na  Na19  1  0.65233285  0.95950178  0.08047732  1
  Na  Na20  1  0.32774366  0.69610178  0.08100758  1
  Na  Na21  1  0.82704262  0.69457908  0.08047042  1
  Na  Na22  1  0.02016768  0.34572781  0.07982636  1
  Na  Na23  1  0.51989953  0.34487255  0.08044390  1
  Na  Na24  1  0.34825208  0.02942409  0.91948661  1
  Na  Na25  1  0.84815417  0.02938726  0.91941410  1
  Na  Na26  1  0.48444915  0.29169807  0.41462013  1
  Na  Na27  1  0.66040059  0.03080904  0.41446971  1
  Na  Na28  1  0.35399541  0.67902329  0.41489245  1
  Na  Na29  1  0.84779013  0.66650915  0.41777112  1
  Na  Na30  1  0.00397347  0.00750870  0.49730026  1
  Na  Na31  1  0.49939046  0.99976334  0.49350362  1
  Na  Na32  1  0.00364793  0.99976447  0.99785715  1
  Na  Na33  1  0.50354909  0.99981948  0.99860708  1
  Na  Na34  1  0.33314864  0.33908797  0.83213058  1
  Na  Na35  1  0.83310977  0.33908073  0.83210942  1
  Na  Na36  1  0.33126204  0.32911343  0.32916552  1
  Na  Na37  1  0.83519156  0.33135062  0.32922501  1
  Na  Na38  1  0.16744937  0.66714938  0.16063902  1
  Na  Na39  1  0.66605503  0.66640923  0.16039973  1
  Na  Na40  1  0.16699507  0.66695166  0.66082930  1
  Na  Na41  1  0.66653428  0.66667108  0.66109717  1
  Ta  Ta42  1  0.00279036  0.00427173  0.35507626  1
  Ta  Ta43  1  0.00189339  0.00004151  0.85584295  1
  Ta  Ta44  1  0.50186149  0.99997505  0.85584389  1
  Ta  Ta45  1  -0.00002395  0.99968768  0.64543772  1
  Ta  Ta46  1  0.49996166  0.99982827  0.64484529  1
  Ta  Ta47  1  0.99993967  0.00028227  0.14489987  1
  Ta  Ta48  1  0.49985393  0.00004227  0.14628109  1
  Ta  Ta49  1  0.33334710  0.33743923  0.97831597  1
  Ta  Ta50  1  0.83321668  0.33751260  0.97824911  1
  Ta  Ta51  1  0.33035574  0.32853691  0.47839988  1
  Ta  Ta52  1  0.83624485  0.33385954  0.47874416  1
  Ta  Ta53  1  0.16757813  0.66845939  0.31415279  1
  Ta  Ta54  1  0.66554350  0.66542758  0.31321580  1
  Ta  Ta55  1  0.16641823  0.66578724  0.81475915  1
  Ta  Ta56  1  0.66624308  0.66556630  0.81475437  1
  Ga  Ga57  1  0.49926744  0.99972893  0.35123613  1
  Ga  Ga58  1  0.33339684  0.33332730  0.68382475  1
  Ga  Ga59  1  0.83322795  0.33300096  0.68392676  1
  Ga  Ga60  1  0.33425333  0.33504293  0.18360068  1
  Ga  Ga61  1  0.83213856  0.33178415  0.18345624  1
  Ga  Ga62  1  0.16637450  0.66625037  0.01840335  1
  Ga  Ga63  1  0.66605993  0.66579096  0.01839544  1
  Ga  Ga64  1  0.16634256  0.66696970  0.51769686  1
  Ga  Ga65  1  0.66633358  0.66613540  0.51796234  1
  Si  Si66  1  0.14760006  0.00286463  0.24899374  1
  Si  Si67  1  0.64603518  0.00457695  0.25197296  1
  Si  Si68  1  0.35575786  0.70732102  0.25201610  1
  Si  Si69  1  0.85466355  0.70559031  0.25027528  1
  Si  Si70  1  0.99845462  0.29110838  0.24978413  1
  Si  Si71  1  0.49758862  0.28794457  0.25191595  1
  Si  Si72  1  0.14734561  0.29173191  0.74944973  1
  Si  Si73  1  0.64722946  0.29145437  0.74933693  1
  Si  Si74  1  0.99837898  0.70551637  0.74980149  1
  Si  Si75  1  0.49839243  0.70581008  0.74968461  1
  Si  Si76  1  0.35449689  0.00328954  0.75024024  1
  Si  Si77  1  0.85434855  0.00317967  0.75032573  1
  Si  Si78  1  0.47883067  0.33808366  0.58469687  1
  Si  Si79  1  0.97978498  0.33823629  0.58572061  1
  Si  Si80  1  0.18952208  0.04078737  0.58577324  1
  Si  Si81  1  0.69024707  0.04240205  0.58458637  1
  Si  Si82  1  0.33092002  0.61960636  0.58472796  1
  Si  Si83  1  0.83092476  0.62020181  0.58502031  1
  Si  Si84  1  0.47940350  0.62103937  0.08500326  1
  Si  Si85  1  0.97897332  0.61959274  0.08542972  1
  Si  Si86  1  0.33118621  0.04258714  0.08464873  1
  Si  Si87  1  0.83105393  0.04243148  0.08424706  1
  Si  Si88  1  0.19026245  0.33802231  0.08496538  1
  Si  Si89  1  0.68978880  0.33767651  0.08504908  1
  Si  Si90  1  0.31013551  0.66390301  0.91900596  1
  Si  Si91  1  0.81008130  0.66406413  0.91899804  1
  Si  Si92  1  0.02303349  0.37973400  0.91977508  1
  Si  Si93  1  0.52298034  0.37952030  0.91975594  1
  Si  Si94  1  0.16558155  0.95380388  0.91989490  1
  Si  Si95  1  0.66553889  0.95371080  0.91987888  1
  Si  Si96  1  0.31232383  0.95544600  0.41896207  1
  Si  Si97  1  0.81114338  0.95501939  0.41871466  1
  Si  Si98  1  0.16524010  0.37857492  0.41970369  1
  Si  Si99  1  0.66448777  0.37334713  0.41874859  1
  Si  Si100  1  0.02424618  0.66804986  0.41918274  1
  Si  Si101  1  0.52197001  0.67086545  0.41913061  1
  O  O102  1  0.09669319  0.02872394  0.30561342  1
  O  O103  1  0.60311827  0.03688427  0.31035948  1
  O  O104  1  0.41493814  0.79310639  0.31028790  1
  O  O105  1  0.91588266  0.80184984  0.30832318  1
  O  O106  1  0.48187807  0.17039336  0.31031636  1
  O  O107  1  0.98493674  0.16244698  0.30603301  1
  O  O108  1  0.09642315  0.16340857  0.80552060  1
  O  O109  1  0.59654555  0.16350705  0.80554935  1
  O  O110  1  0.48465446  0.80672682  0.80579606  1
  O  O111  1  0.98457762  0.80674442  0.80575899  1
  O  O112  1  0.41592026  0.03025120  0.80797452  1
  O  O113  1  0.91595244  0.03029017  0.80792527  1
  O  O114  1  0.39995840  0.96499486  0.69180016  1
  O  O115  1  0.89977188  0.96489250  0.69178232  1
  O  O116  1  0.08312571  0.20169225  0.69085642  1
  O  O117  1  0.58323689  0.20178455  0.69075232  1
  O  O118  1  0.01774997  0.83394312  0.69105455  1
  O  O119  1  0.51791903  0.83425648  0.69101962  1
  O  O120  1  0.39967789  0.83485269  0.19230871  1
  O  O121  1  0.89995464  0.83478799  0.19197818  1
  O  O122  1  0.01771644  0.20113150  0.19123712  1
  O  O123  1  0.51773298  0.20065968  0.19225721  1
  O  O124  1  0.08291069  0.96443704  0.19093926  1
  O  O125  1  0.58265331  0.96491556  0.19224326  1
  O  O126  1  0.43711091  0.37073798  0.64412901  1
  O  O127  1  0.93740803  0.37064027  0.64475212  1
  O  O128  1  0.24770205  0.12450820  0.64494374  1
  O  O129  1  0.74844654  0.12578213  0.64388310  1
  O  O130  1  0.31482178  0.50327230  0.64405576  1
  O  O131  1  0.81483697  0.50360037  0.64412760  1
  O  O132  1  0.43785770  0.50530441  0.14442018  1
  O  O133  1  0.93716974  0.50392888  0.14504898  1
  O  O134  1  0.31451948  0.12605338  0.14400872  1
  O  O135  1  0.81553475  0.12631470  0.14384596  1
  O  O136  1  0.24752214  0.36980025  0.14456899  1
  O  O137  1  0.74788588  0.37220609  0.14460826  1
  O  O138  1  0.23484053  0.29634159  0.02712784  1
  O  O139  1  0.73519408  0.29682358  0.02738610  1
  O  O140  1  0.41388000  0.52958834  0.02728607  1
  O  O141  1  0.91374516  0.52948884  0.02755504  1
  O  O142  1  0.35121964  0.16777543  0.02511504  1
  O  O143  1  0.85167387  0.16795989  0.02492058  1
  O  O144  1  0.23449441  0.17213631  0.52779871  1
  O  O145  1  0.73361256  0.16960883  0.52532276  1
  O  O146  1  0.35141611  0.53373531  0.52545167  1
  O  O147  1  0.85111430  0.53412758  0.52550126  1
  O  O148  1  0.41538970  0.29791253  0.52560149  1
  O  O149  1  0.91413556  0.29788401  0.52765235  1
  O  O150  1  0.27137652  0.70880152  0.97677434  1
  O  O151  1  0.77143395  0.70893516  0.97683072  1
  O  O152  1  0.08011100  0.45976501  0.97849216  1
  O  O153  1  0.58017650  0.45962162  0.97838814  1
  O  O154  1  0.15040122  0.84057377  0.97871128  1
  O  O155  1  0.65068340  0.84072357  0.97868126  1
  O  O156  1  0.26980953  0.83500924  0.47708366  1
  O  O157  1  0.77168662  0.83595883  0.47719447  1
  O  O158  1  0.15019113  0.45924118  0.47918375  1
  O  O159  1  0.64880886  0.46079393  0.47702016  1
  O  O160  1  0.07909288  0.69933688  0.47886809  1
  O  O161  1  0.58254387  0.70498571  0.47687544  1
  O  O162  1  0.06744659  0.63783956  0.35804177  1
  O  O163  1  0.56705007  0.63291115  0.35933949  1
  O  O164  1  0.25111675  0.86469837  0.35848308  1
  O  O165  1  0.75010099  0.86699969  0.35845204  1
  O  O166  1  0.18241482  0.49943734  0.35895276  1
  O  O167  1  0.68431346  0.50200708  0.35913246  1
  O  O168  1  0.06773132  0.49664465  0.85830443  1
  O  O169  1  0.56773300  0.49668545  0.85830558  1
  O  O170  1  0.18222749  0.86514877  0.85889793  1
  O  O171  1  0.68237904  0.86533451  0.85885896  1
  O  O172  1  0.25165084  0.63853828  0.85777528  1
  O  O173  1  0.75169716  0.63862987  0.85775486  1
  O  O174  1  0.00753440  0.83093155  0.40953123  1
  O  O175  1  0.51040319  0.83657374  0.41173916  1
  O  O176  1  0.40726677  0.97853605  0.41163840  1
  O  O177  1  0.90519794  0.97141565  0.40921059  1
  O  O178  1  0.08263257  0.18630106  0.40962581  1
  O  O179  1  0.58146113  0.18462318  0.41167842  1
  O  O180  1  0.00790302  0.18436466  0.90938615  1
  O  O181  1  0.50790994  0.18433611  0.90932498  1
  O  O182  1  0.08222218  0.97780143  0.90938558  1
  O  O183  1  0.58226210  0.97779495  0.90939008  1
  O  O184  1  0.40437229  0.83808192  0.90851814  1
  O  O185  1  0.90439986  0.83817122  0.90854739  1
  O  O186  1  0.48562964  0.15991836  0.58934267  1
  O  O187  1  0.98562558  0.15920095  0.58921818  1
  O  O188  1  0.09398366  0.02854753  0.58938901  1
  O  O189  1  0.59450571  0.02897586  0.58930837  1
  O  O190  1  0.42020601  0.81151618  0.58946250  1
  O  O191  1  0.92024454  0.81197907  0.58922976  1
  O  O192  1  0.48592807  0.81250839  0.08903206  1
  O  O193  1  0.98554075  0.81141198  0.08933320  1
  O  O194  1  0.42030862  0.02853508  0.08939105  1
  O  O195  1  0.92023671  0.02819823  0.08925683  1
  O  O196  1  0.09409344  0.15959687  0.08925809  1
  O  O197  1  0.59405542  0.15944543  0.08930064  1
  O  O198  1  0.34513596  0.17133421  0.74573497  1
  O  O199  1  0.84508933  0.17127400  0.74568737  1
  O  O200  1  0.24049354  0.30986222  0.74562647  1
  O  O201  1  0.74051423  0.30974932  0.74554602  1
  O  O202  1  0.41428019  0.51922615  0.74565868  1
  O  O203  1  0.91417448  0.51922050  0.74563850  1
  O  O204  1  0.34326430  0.51757025  0.24484231  1
  O  O205  1  0.84533688  0.51903873  0.24623419  1
  O  O206  1  0.41515492  0.31263730  0.24494225  1
  O  O207  1  0.91440205  0.30895754  0.24610515  1
  O  O208  1  0.24058804  0.17091215  0.24592936  1
  O  O209  1  0.74114310  0.16992399  0.24476240  1
  O  O210  1  0.32067117  0.49454102  0.92204478  1
  O  O211  1  0.82075544  0.49478474  0.92206969  1
  O  O212  1  0.42525466  0.35111902  0.92227100  1
  O  O213  1  0.92527362  0.35127488  0.92232164  1
  O  O214  1  0.25421337  0.14193281  0.92228689  1
  O  O215  1  0.75421222  0.14201824  0.92237535  1
  O  O216  1  0.32242874  0.14848264  0.42264198  1
  O  O217  1  0.81702845  0.14300923  0.42239703  1
  O  O218  1  0.25421416  0.36735477  0.42276549  1
  O  O219  1  0.75341932  0.36103795  0.42256886  1
  O  O220  1  0.42718236  0.49305271  0.42260769  1
  O  O221  1  0.92582860  0.49898450  0.42259933  1
  O  O222  1  0.17738417  0.50262201  0.07814628  1
  O  O223  1  0.67744675  0.50289180  0.07805720  1
  O  O224  1  0.07431718  0.64614156  0.07899008  1
  O  O225  1  0.57460483  0.64649535  0.07861732  1
  O  O226  1  0.24888520  0.85110740  0.07865428  1
  O  O227  1  0.74894135  0.85105801  0.07865316  1
  O  O228  1  0.17685279  0.85111398  0.57868560  1
  O  O229  1  0.67730153  0.85190162  0.57798546  1
  O  O230  1  0.24899619  0.64659491  0.57876238  1
  O  O231  1  0.74874439  0.64614024  0.57850691  1
  O  O232  1  0.07465623  0.50269879  0.57894898  1
  O  O233  1  0.57433557  0.50277736  0.57834069  1
  O  O234  1  0.15232736  0.82570273  0.25543973  1
  O  O235  1  0.65291091  0.82679435  0.25610621  1
  O  O236  1  0.26012636  0.69417455  0.25575410  1
  O  O237  1  0.76081342  0.69520829  0.25598599  1
  O  O238  1  0.08682581  0.47833612  0.25608707  1
  O  O239  1  0.58705410  0.47906829  0.25601043  1
  O  O240  1  0.15268774  0.47919438  0.75537687  1
  O  O241  1  0.65285426  0.47927812  0.75538338  1
  O  O242  1  0.08674285  0.69477200  0.75585637  1
  O  O243  1  0.58674412  0.69471359  0.75587904  1
  O  O244  1  0.26012369  0.82640077  0.75544872  1
  O  O245  1  0.76010699  0.82628427  0.75534581  1
