# generated using pymatgen
data_NaSc2Sn2P3(SO8)3
_symmetry_space_group_name_H-M   'P 1'
_cell_length_a   8.77231331
_cell_length_b   8.77602641
_cell_length_c   22.96191296
_cell_angle_alpha   90.13845040
_cell_angle_beta   90.02633789
_cell_angle_gamma   120.00501573
_symmetry_Int_Tables_number   1
_chemical_formula_structural   NaSc2Sn2P3(SO8)3
_chemical_formula_sum   'Na3 Sc6 Sn6 P9 S9 O72'
_cell_volume   1530.82916630
_cell_formula_units_Z   3
loop_
 _symmetry_equiv_pos_site_id
 _symmetry_equiv_pos_as_xyz
  1  'x, y, z'
loop_
 _atom_site_type_symbol
 _atom_site_label
 _atom_site_symmetry_multiplicity
 _atom_site_fract_x
 _atom_site_fract_y
 _atom_site_fract_z
 _atom_site_occupancy
  Na  Na0  1  0.67901469  0.33551856  0.83454931  1
  Na  Na1  1  0.66275320  0.34059613  0.33044152  1
  Na  Na2  1  0.34429358  0.67403281  0.16861415  1
  Sc  Sc3  1  0.67495420  0.33374796  0.68849648  1
  Sc  Sc4  1  0.65075183  0.32743280  0.18575684  1
  Sc  Sc5  1  0.66713510  0.32421204  0.98447053  1
  Sc  Sc6  1  0.66585462  0.34024363  0.47727731  1
  Sc  Sc7  1  0.33450271  0.66592261  0.31199318  1
  Sc  Sc8  1  0.32523145  0.66695496  0.80943192  1
  Sn  Sn9  1  0.00777083  0.99490505  0.35363602  1
  Sn  Sn10  1  0.99404991  0.00205005  0.85409150  1
  Sn  Sn11  1  0.99548191  0.99440044  0.64840631  1
  Sn  Sn12  1  0.99902022  0.99905855  0.14573270  1
  Sn  Sn13  1  0.33396293  0.65996636  0.01888148  1
  Sn  Sn14  1  0.32782571  0.66235161  0.51565921  1
  P  P15  1  0.28963455  0.99843353  0.24929521  1
  P  P16  1  0.71237729  0.71132491  0.24995287  1
  P  P17  1  0.99761932  0.71333239  0.75085267  1
  P  P18  1  0.70920191  0.99915824  0.75013543  1
  P  P19  1  0.66515775  0.03795979  0.08399356  1
  P  P20  1  0.37231392  0.33192228  0.08296376  1
  P  P21  1  0.04247923  0.37671505  0.91507220  1
  P  P22  1  0.32964484  0.37395438  0.41527669  1
  P  P23  1  0.04349364  0.66640159  0.41585452  1
  S  S24  1  0.99790905  0.28896755  0.25058209  1
  S  S25  1  0.29086156  0.28869552  0.74981692  1
  S  S26  1  0.96119687  0.33245124  0.58328167  1
  S  S27  1  0.37315776  0.03893887  0.58326900  1
  S  S28  1  0.66375087  0.62648457  0.58313337  1
  S  S29  1  0.95980216  0.62512914  0.08361342  1
  S  S30  1  0.62463446  0.66513421  0.91522624  1
  S  S31  1  0.33136158  0.95741035  0.91564156  1
  S  S32  1  0.62711682  0.95836844  0.41627329  1
  O  O33  1  0.21338411  0.03798369  0.30460657  1
  O  O34  1  0.82351893  0.79533264  0.30598893  1
  O  O35  1  0.96812117  0.18004153  0.30377028  1
  O  O36  1  0.21404339  0.17540318  0.80206548  1
  O  O37  1  0.96338009  0.79604158  0.80539970  1
  O  O38  1  0.83078825  0.04321794  0.80399525  1
  O  O39  1  0.79020146  0.96853048  0.69415959  1
  O  O40  1  0.18115988  0.21177174  0.69623273  1
  O  O41  1  0.03487417  0.82612823  0.69491999  1
  O  O42  1  0.79357743  0.82695527  0.19506307  1
  O  O43  1  0.03005651  0.21139265  0.19753677  1
  O  O44  1  0.17462830  0.96727651  0.19446023  1
  O  O45  1  0.88132301  0.36082573  0.63560415  1
  O  O46  1  0.48033964  0.11931621  0.63570908  1
  O  O47  1  0.63624072  0.51965689  0.63533142  1
  O  O48  1  0.88336256  0.51832188  0.13579684  1
  O  O49  1  0.63464019  0.12091471  0.13786988  1
  O  O50  1  0.48678522  0.36753214  0.13727210  1
  O  O51  1  0.45778612  0.30832467  0.02833346  1
  O  O52  1  0.85561278  0.54642131  0.03057599  1
  O  O53  1  0.69393675  0.14790399  0.02900637  1
  O  O54  1  0.45261181  0.14678220  0.53139053  1
  O  O55  1  0.69314265  0.54658250  0.53132868  1
  O  O56  1  0.85229620  0.30273999  0.53159185  1
  O  O57  1  0.55149273  0.70127939  0.96906857  1
  O  O58  1  0.15493202  0.45572889  0.97125118  1
  O  O59  1  0.30116335  0.85065488  0.96941032  1
  O  O60  1  0.55317295  0.85098082  0.47094642  1
  O  O61  1  0.29872028  0.45009628  0.47309395  1
  O  O62  1  0.15458156  0.70474946  0.47320888  1
  O  O63  1  0.13005868  0.63742566  0.36342166  1
  O  O64  1  0.51549138  0.87806236  0.36560851  1
  O  O65  1  0.36469522  0.49274935  0.36336505  1
  O  O66  1  0.13251733  0.49078246  0.86205075  1
  O  O67  1  0.36045166  0.87584973  0.86430428  1
  O  O68  1  0.51635060  0.64136439  0.86383790  1
  O  O69  1  0.02075673  0.82931003  0.41116518  1
  O  O70  1  0.80365447  0.97768594  0.40958992  1
  O  O71  1  0.16182481  0.19241934  0.40876716  1
  O  O72  1  0.02873519  0.19319393  0.90911136  1
  O  O73  1  0.17060381  0.97313460  0.90884914  1
  O  O74  1  0.80284993  0.82567431  0.91042691  1
  O  O75  1  0.98234640  0.17411337  0.59097150  1
  O  O76  1  0.19402681  0.02049691  0.59045183  1
  O  O77  1  0.82440488  0.80515838  0.58910082  1
  O  O78  1  0.97881032  0.80245090  0.08893149  1
  O  O79  1  0.82877191  0.01667227  0.09070782  1
  O  O80  1  0.18860671  0.16775300  0.09098663  1
  O  O81  1  0.69178373  0.16461907  0.74258587  1
  O  O82  1  0.46503616  0.30454293  0.74244338  1
  O  O83  1  0.83086547  0.53200650  0.74332107  1
  O  O84  1  0.70005233  0.53136241  0.24431595  1
  O  O85  1  0.84128149  0.30702781  0.24431253  1
  O  O86  1  0.47280011  0.16310496  0.24464085  1
  O  O87  1  0.64360636  0.50904445  0.92243133  1
  O  O88  1  0.85897762  0.35602002  0.92213561  1
  O  O89  1  0.48700139  0.13441076  0.92192940  1
  O  O90  1  0.64419115  0.13300648  0.42488786  1
  O  O91  1  0.49140560  0.35088926  0.42433881  1
  O  O92  1  0.86136999  0.50122612  0.42480161  1
  O  O93  1  0.35210393  0.49938513  0.07819222  1
  O  O94  1  0.14055993  0.64694350  0.07745485  1
  O  O95  1  0.49559289  0.85237329  0.07592588  1
  O  O96  1  0.35442972  0.86029914  0.57613503  1
  O  O97  1  0.50633899  0.64843847  0.57554927  1
  O  O98  1  0.13939267  0.49208638  0.57735899  1
  O  O99  1  0.30434888  0.83292118  0.25566211  1
  O  O100  1  0.53000776  0.69367822  0.25571712  1
  O  O101  1  0.15746662  0.46284406  0.25601379  1
  O  O102  1  0.30707262  0.46074553  0.75723404  1
  O  O103  1  0.15940207  0.69494453  0.75817336  1
  O  O104  1  0.53243196  0.83605285  0.75946299  1
