# generated using pymatgen
data_NaSc2In2PS5O24
_symmetry_space_group_name_H-M   'P 1'
_cell_length_a   8.84792134
_cell_length_b   8.85168470
_cell_length_c   23.25075761
_cell_angle_alpha   89.92120402
_cell_angle_beta   90.13565866
_cell_angle_gamma   119.81223224
_symmetry_Int_Tables_number   1
_chemical_formula_structural   NaSc2In2PS5O24
_chemical_formula_sum   'Na3 Sc6 In6 P3 S15 O72'
_cell_volume   1579.98262666
_cell_formula_units_Z   3
loop_
 _symmetry_equiv_pos_site_id
 _symmetry_equiv_pos_as_xyz
  1  'x, y, z'
loop_
 _atom_site_type_symbol
 _atom_site_label
 _atom_site_symmetry_multiplicity
 _atom_site_fract_x
 _atom_site_fract_y
 _atom_site_fract_z
 _atom_site_occupancy
  Na  Na0  1  0.99890023  0.99229006  0.99653168  1
  Na  Na1  1  0.65852987  0.33193336  0.83841458  1
  Na  Na2  1  0.67188885  0.33236470  0.33105473  1
  Sc  Sc3  1  0.99759702  0.00627066  0.35324410  1
  Sc  Sc4  1  0.00081230  0.00039304  0.64652684  1
  Sc  Sc5  1  0.66569676  0.33293398  0.68529154  1
  Sc  Sc6  1  0.66732719  0.33339948  0.48160281  1
  Sc  Sc7  1  0.33304561  0.66718024  0.52036866  1
  Sc  Sc8  1  0.32692582  0.66006964  0.31065077  1
  In  In9  1  0.99914684  0.99292811  0.85326822  1
  In  In10  1  0.00063650  0.00480212  0.15044490  1
  In  In11  1  0.67193060  0.33364631  0.18476378  1
  In  In12  1  0.66042143  0.33331500  0.98013890  1
  In  In13  1  0.33837409  0.67269013  0.01665926  1
  In  In14  1  0.33995901  0.67225164  0.81638125  1
  P  P15  1  0.99749013  0.29056891  0.25115245  1
  P  P16  1  0.62768521  0.66661289  0.91643972  1
  P  P17  1  0.33375532  0.96129582  0.91652026  1
  S  S18  1  0.29160108  0.00062888  0.25150979  1
  S  S19  1  0.70815414  0.70800341  0.25146381  1
  S  S20  1  0.29091574  0.29166204  0.74928850  1
  S  S21  1  0.99957459  0.70565574  0.74851674  1
  S  S22  1  0.71047580  0.00188739  0.74879722  1
  S  S23  1  0.95669591  0.33365828  0.58337356  1
  S  S24  1  0.37712129  0.04385670  0.58318554  1
  S  S25  1  0.66693563  0.62324563  0.58322608  1
  S  S26  1  0.96236039  0.62919160  0.08297627  1
  S  S27  1  0.66744152  0.03964971  0.08292613  1
  S  S28  1  0.37123203  0.33339127  0.08393273  1
  S  S29  1  0.03940621  0.37278454  0.91647613  1
  S  S30  1  0.62081581  0.95549465  0.41654412  1
  S  S31  1  0.33498667  0.37800579  0.41678112  1
  S  S32  1  0.04315234  0.66651050  0.41651935  1
  O  O33  1  0.20579637  0.02708991  0.30205365  1
  O  O34  1  0.82199995  0.79143271  0.30198983  1
  O  O35  1  0.96957130  0.17176598  0.30396602  1
  O  O36  1  0.21764163  0.18403032  0.80152515  1
  O  O37  1  0.96338044  0.77717759  0.80078384  1
  O  O38  1  0.81763084  0.03622487  0.80130091  1
  O  O39  1  0.79824299  0.97996116  0.69771156  1
  O  O40  1  0.18234872  0.20456932  0.69784062  1
  O  O41  1  0.02287586  0.81641209  0.69756557  1
  O  O42  1  0.78097475  0.80825319  0.19797041  1
  O  O43  1  0.03073663  0.21749771  0.19594822  1
  O  O44  1  0.18930596  0.96874544  0.19807940  1
  O  O45  1  0.87565827  0.36392082  0.63446739  1
  O  O46  1  0.48823480  0.12420049  0.63446897  1
  O  O47  1  0.63659745  0.51197617  0.63444786  1
  O  O48  1  0.88413616  0.52569804  0.13593584  1
  O  O49  1  0.64179831  0.11810357  0.13575631  1
  O  O50  1  0.47698260  0.35899521  0.13663813  1
  O  O51  1  0.44968547  0.30176654  0.03253562  1
  O  O52  1  0.85156325  0.54976157  0.03164041  1
  O  O53  1  0.69853108  0.15045204  0.03164184  1
  O  O54  1  0.45803503  0.15520946  0.53179870  1
  O  O55  1  0.69691548  0.54174804  0.53184167  1
  O  O56  1  0.84514697  0.30330294  0.53183397  1
  O  O57  1  0.54783188  0.69222798  0.97149824  1
  O  O58  1  0.14341302  0.44936369  0.96902090  1
  O  O59  1  0.30064931  0.85150085  0.97112184  1
  O  O60  1  0.53920794  0.84919026  0.46868084  1
  O  O61  1  0.30934519  0.45968028  0.46865270  1
  O  O62  1  0.15019736  0.69089976  0.46859330  1
  O  O63  1  0.12290696  0.63522075  0.36545619  1
  O  O64  1  0.51163084  0.87664119  0.36524767  1
  O  O65  1  0.36596443  0.48811600  0.36550239  1
  O  O66  1  0.11549679  0.47673143  0.86369507  1
  O  O67  1  0.35964877  0.88237201  0.86092163  1
  O  O68  1  0.51839241  0.63277150  0.86124202  1
  O  O69  1  0.02403858  0.82087436  0.40828630  1
  O  O70  1  0.79471272  0.97314836  0.40945962  1
  O  O71  1  0.18096735  0.20408141  0.40902175  1
  O  O72  1  0.02193273  0.19774121  0.91112530  1
  O  O73  1  0.17149045  0.98485692  0.91234373  1
  O  O74  1  0.80803675  0.83445840  0.91198227  1
  O  O75  1  0.97493552  0.17812894  0.59220707  1
  O  O76  1  0.20353578  0.02575612  0.59207820  1
  O  O77  1  0.82186938  0.79633601  0.59221734  1
  O  O78  1  0.97901690  0.80564696  0.08899045  1
  O  O79  1  0.82627184  0.02137790  0.08795072  1
  O  O80  1  0.19641554  0.17300791  0.08887587  1
  O  O81  1  0.69086056  0.15920696  0.74073872  1
  O  O82  1  0.46783362  0.31073968  0.74121054  1
  O  O83  1  0.84210054  0.53008582  0.74015322  1
  O  O84  1  0.68861777  0.53058841  0.24665025  1
  O  O85  1  0.83129722  0.30884906  0.24740451  1
  O  O86  1  0.46631627  0.16071403  0.24635584  1
  O  O87  1  0.65158154  0.50475002  0.92055167  1
  O  O88  1  0.86417519  0.35518856  0.92177806  1
  O  O89  1  0.50132939  0.14169629  0.92102114  1
  O  O90  1  0.64143130  0.13329242  0.42414930  1
  O  O91  1  0.49279180  0.35851020  0.42436806  1
  O  O92  1  0.86665600  0.50842068  0.42416141  1
  O  O93  1  0.35209562  0.48803876  0.07717988  1
  O  O94  1  0.13464898  0.64460025  0.07650667  1
  O  O95  1  0.51168131  0.86720272  0.07761434  1
  O  O96  1  0.35905319  0.87028610  0.57406333  1
  O  O97  1  0.51129352  0.64141367  0.57392976  1
  O  O98  1  0.12988610  0.48857999  0.57406641  1
  O  O99  1  0.31366049  0.84796732  0.26048433  1
  O  O100  1  0.53579229  0.69120944  0.26033206  1
  O  O101  1  0.15829748  0.47077250  0.26188571  1
  O  O102  1  0.30620035  0.46433739  0.75486499  1
  O  O103  1  0.15536766  0.68767964  0.75476489  1
  O  O104  1  0.53767518  0.84553848  0.75354610  1
