# generated using pymatgen
data_NaMnO2
_symmetry_space_group_name_H-M   'P 1'
_cell_length_a   2.86164730
_cell_length_b   4.78879344
_cell_length_c   6.28391662
_cell_angle_alpha   90.00000268
_cell_angle_beta   89.99999829
_cell_angle_gamma   90.00000000
_symmetry_Int_Tables_number   1
_chemical_formula_structural   NaMnO2
_chemical_formula_sum   'Na2 Mn2 O4'
_cell_volume   86.11377422
_cell_formula_units_Z   2
loop_
 _symmetry_equiv_pos_site_id
 _symmetry_equiv_pos_as_xyz
  1  'x, y, z'
loop_
 _atom_site_type_symbol
 _atom_site_label
 _atom_site_symmetry_multiplicity
 _atom_site_fract_x
 _atom_site_fract_y
 _atom_site_fract_z
 _atom_site_occupancy
  Na  Na0  1  0.25000129  0.24999871  0.12364186  1
  Na  Na1  1  0.75000046  0.74999892  0.87635815  1
  Mn  Mn2  1  0.24999783  0.24999900  0.62532702  1
  Mn  Mn3  1  0.74999785  0.74999879  0.37467290  1
  O  O4  1  0.74999999  0.24999937  0.41727318  1
  O  O5  1  0.24999966  0.74999896  0.58272712  1
  O  O6  1  0.75000165  0.24999923  0.82948676  1
  O  O7  1  0.25000127  0.74999902  0.17051302  1
