# generated using pymatgen
data_Na2Zn3Sn(SO4)6
_symmetry_space_group_name_H-M   'P 1'
_cell_length_a   8.70669687
_cell_length_b   8.70669659
_cell_length_c   22.78303290
_cell_angle_alpha   90.00000000
_cell_angle_beta   90.00000000
_cell_angle_gamma   120.00000109
_symmetry_Int_Tables_number   1
_chemical_formula_structural   Na2Zn3Sn(SO4)6
_chemical_formula_sum   'Na6 Zn9 Sn3 S18 O72'
_cell_volume   1495.71551747
_cell_formula_units_Z   3
loop_
 _symmetry_equiv_pos_site_id
 _symmetry_equiv_pos_as_xyz
  1  'x, y, z'
loop_
 _atom_site_type_symbol
 _atom_site_label
 _atom_site_symmetry_multiplicity
 _atom_site_fract_x
 _atom_site_fract_y
 _atom_site_fract_z
 _atom_site_occupancy
  Na  Na0  1  0.00000000  0.00000000  0.50512136  1
  Na  Na1  1  0.00000000  0.00000000  0.00458386  1
  Na  Na2  1  0.66666700  0.33333300  0.82865616  1
  Na  Na3  1  0.66666700  0.33333300  0.33605943  1
  Na  Na4  1  0.33333300  0.66666700  0.17306047  1
  Na  Na5  1  0.33333300  0.66666700  0.66125992  1
  Zn  Zn6  1  0.00000000  0.00000000  0.64334425  1
  Zn  Zn7  1  0.00000000  0.00000000  0.15245051  1
  Zn  Zn8  1  0.66666700  0.33333300  0.67592064  1
  Zn  Zn9  1  0.66666700  0.33333300  0.18690586  1
  Zn  Zn10  1  0.66666700  0.33333300  0.98588605  1
  Zn  Zn11  1  0.66666700  0.33333300  0.48687531  1
  Zn  Zn12  1  0.33333300  0.66666700  0.51948238  1
  Zn  Zn13  1  0.33333300  0.66666700  0.31966025  1
  Zn  Zn14  1  0.33333300  0.66666700  0.81095164  1
  Sn  Sn15  1  0.00000000  0.00000000  0.35197055  1
  Sn  Sn16  1  0.00000000  0.00000000  0.84610987  1
  Sn  Sn17  1  0.33333300  0.66666700  0.01832934  1
  S  S18  1  0.29396977  0.99882492  0.24864246  1
  S  S19  1  0.70485515  0.70603023  0.24864246  1
  S  S20  1  0.00117508  0.29514485  0.24864246  1
  S  S21  1  0.29655227  0.29565650  0.74849450  1
  S  S22  1  0.99910423  0.70344773  0.74849450  1
  S  S23  1  0.70434350  0.00089577  0.74849450  1
  S  S24  1  0.96076064  0.33430325  0.58331630  1
  S  S25  1  0.37354361  0.03923936  0.58331630  1
  S  S26  1  0.66569675  0.62645639  0.58331630  1
  S  S27  1  0.95667680  0.62659098  0.08281633  1
  S  S28  1  0.66991519  0.04332320  0.08281633  1
  S  S29  1  0.37340902  0.33008481  0.08281633  1
  S  S30  1  0.62666897  0.66520075  0.91511511  1
  S  S31  1  0.03853078  0.37333103  0.91511511  1
  S  S32  1  0.33479925  0.96146922  0.91511511  1
  S  S33  1  0.62355794  0.96028064  0.41611579  1
  S  S34  1  0.33672170  0.37644207  0.41611579  1
  S  S35  1  0.03971936  0.66327830  0.41611579  1
  O  O36  1  0.21492427  0.03266211  0.30326485  1
  O  O37  1  0.81773784  0.78507573  0.30326485  1
  O  O38  1  0.96733789  0.18226216  0.30326485  1
  O  O39  1  0.22240376  0.18666977  0.80667831  1
  O  O40  1  0.96426601  0.77759624  0.80667831  1
  O  O41  1  0.81333023  0.03573399  0.80667831  1
  O  O42  1  0.79220306  0.97164770  0.69913690  1
  O  O43  1  0.17944464  0.20779694  0.69913690  1
  O  O44  1  0.02835230  0.82055536  0.69913690  1
  O  O45  1  0.78717412  0.81639077  0.19634542  1
  O  O46  1  0.02921665  0.21282588  0.19634542  1
  O  O47  1  0.18360923  0.97078335  0.19634542  1
  O  O48  1  0.88383707  0.36310014  0.63759200  1
  O  O49  1  0.47926407  0.11616293  0.63759200  1
  O  O50  1  0.63689986  0.52073593  0.63759200  1
  O  O51  1  0.88243865  0.51745203  0.13535689  1
  O  O52  1  0.63501437  0.11756135  0.13535689  1
  O  O53  1  0.48254797  0.36498563  0.13535689  1
  O  O54  1  0.45151132  0.30802482  0.02828242  1
  O  O55  1  0.85651450  0.54848868  0.02828242  1
  O  O56  1  0.69197518  0.14348550  0.02828242  1
  O  O57  1  0.45251426  0.14769022  0.53017521  1
  O  O58  1  0.69517696  0.54748574  0.53017521  1
  O  O59  1  0.85230978  0.30482304  0.53017521  1
  O  O60  1  0.55278290  0.70256606  0.97049632  1
  O  O61  1  0.14978216  0.44721710  0.97049632  1
  O  O62  1  0.29743394  0.85021784  0.97049632  1
  O  O63  1  0.54956299  0.85078657  0.46862751  1
  O  O64  1  0.30122258  0.45043701  0.46862751  1
  O  O65  1  0.14921343  0.69877742  0.46862751  1
  O  O66  1  0.11799347  0.64133419  0.36159574  1
  O  O67  1  0.52333972  0.88200653  0.36159574  1
  O  O68  1  0.35866581  0.47666028  0.36159574  1
  O  O69  1  0.12394698  0.48235217  0.86382791  1
  O  O70  1  0.35840419  0.87605302  0.86382791  1
  O  O71  1  0.51764783  0.64159581  0.86382791  1
  O  O72  1  0.02324398  0.83220845  0.41049803  1
  O  O73  1  0.80896446  0.97675602  0.41049803  1
  O  O74  1  0.16779155  0.19103554  0.41049803  1
  O  O75  1  0.02330347  0.19173915  0.91114839  1
  O  O76  1  0.16843568  0.97669653  0.91114839  1
  O  O77  1  0.80826085  0.83156432  0.91114839  1
  O  O78  1  0.97762203  0.17280723  0.58921914  1
  O  O79  1  0.19518520  0.02237797  0.58921914  1
  O  O80  1  0.82719277  0.80481480  0.58921914  1
  O  O81  1  0.98231151  0.80680330  0.08823805  1
  O  O82  1  0.82449179  0.01768849  0.08823805  1
  O  O83  1  0.19319670  0.17550821  0.08823805  1
  O  O84  1  0.68849922  0.16087575  0.74524029  1
  O  O85  1  0.47237753  0.31150078  0.74524029  1
  O  O86  1  0.83912425  0.52762247  0.74524029  1
  O  O87  1  0.69098600  0.52984169  0.24395955  1
  O  O88  1  0.83885669  0.30901400  0.24395955  1
  O  O89  1  0.47015831  0.16114331  0.24395955  1
  O  O90  1  0.64675136  0.50911252  0.92343540  1
  O  O91  1  0.86236216  0.35324864  0.92343540  1
  O  O92  1  0.49088748  0.13763784  0.92343540  1
  O  O93  1  0.64936409  0.14041842  0.42162354  1
  O  O94  1  0.49105533  0.35063591  0.42162354  1
  O  O95  1  0.85958158  0.50894467  0.42162354  1
  O  O96  1  0.35672120  0.49896708  0.07722326  1
  O  O97  1  0.14224488  0.64327880  0.07722326  1
  O  O98  1  0.50103292  0.85775512  0.07722326  1
  O  O99  1  0.35543121  0.86062198  0.57765835  1
  O  O100  1  0.50518978  0.64456879  0.57765835  1
  O  O101  1  0.13937802  0.49481022  0.57765835  1
  O  O102  1  0.30925741  0.83884854  0.25621059  1
  O  O103  1  0.52959013  0.69074259  0.25621059  1
  O  O104  1  0.16115146  0.47040987  0.25621059  1
  O  O105  1  0.30798976  0.46921538  0.75745619  1
  O  O106  1  0.16122462  0.69201024  0.75745619  1
  O  O107  1  0.53078462  0.83877538  0.75745619  1
