# generated using pymatgen
data_Na2YTaSi(PO6)2
_symmetry_space_group_name_H-M   'P 1'
_cell_length_a   9.11123776
_cell_length_b   9.11123744
_cell_length_c   23.06313479
_cell_angle_alpha   90.17067840
_cell_angle_beta   89.82932161
_cell_angle_gamma   119.54110132
_symmetry_Int_Tables_number   1
_chemical_formula_structural   Na2YTaSi(PO6)2
_chemical_formula_sum   'Na12 Y6 Ta6 Si6 P12 O72'
_cell_volume   1665.67729637
_cell_formula_units_Z   6
loop_
 _symmetry_equiv_pos_site_id
 _symmetry_equiv_pos_as_xyz
  1  'x, y, z'
loop_
 _atom_site_type_symbol
 _atom_site_label
 _atom_site_symmetry_multiplicity
 _atom_site_fract_x
 _atom_site_fract_y
 _atom_site_fract_z
 _atom_site_occupancy
  Na  Na0  1  0.98979077  0.63482354  0.24596413  1
  Na  Na1  1  0.36517646  0.01020923  0.74596413  1
  Na  Na2  1  0.65239564  0.96682563  0.58392826  1
  Na  Na3  1  0.03317437  0.34760436  0.08392826  1
  Na  Na4  1  0.98683281  0.68227573  0.91712960  1
  Na  Na5  1  0.31772427  0.01316719  0.41712960  1
  Na  Na6  1  0.99779062  0.99047525  0.49727997  1
  Na  Na7  1  0.00952475  0.00220938  0.99727997  1
  Na  Na8  1  0.67161493  0.32467221  0.83094455  1
  Na  Na9  1  0.67532779  0.32838507  0.33094455  1
  Na  Na10  1  0.34928882  0.68033676  0.16366397  1
  Na  Na11  1  0.31966324  0.65071118  0.66366397  1
  Y  Y12  1  0.99002404  0.00342473  0.35290787  1
  Y  Y13  1  0.99657527  0.00997596  0.85290787  1
  Y  Y14  1  0.67190806  0.33838810  0.68627110  1
  Y  Y15  1  0.66161190  0.32809194  0.18627110  1
  Y  Y16  1  0.33921227  0.67552119  0.01969757  1
  Y  Y17  1  0.32447881  0.66078773  0.51969757  1
  Ta  Ta18  1  0.00245068  0.99941122  0.64763114  1
  Ta  Ta19  1  0.00058878  0.99754932  0.14763114  1
  Ta  Ta20  1  0.66126547  0.33059684  0.98104998  1
  Ta  Ta21  1  0.66940316  0.33873453  0.48104998  1
  Ta  Ta22  1  0.32797370  0.65720776  0.31420980  1
  Ta  Ta23  1  0.34279224  0.67202630  0.81420980  1
  Si  Si24  1  0.00782445  0.30016260  0.24912673  1
  Si  Si25  1  0.69983740  0.99217555  0.74912673  1
  Si  Si26  1  0.36969303  0.04478852  0.58465985  1
  Si  Si27  1  0.95521148  0.63030697  0.08465985  1
  Si  Si28  1  0.34161725  0.96770552  0.91678482  1
  Si  Si29  1  0.03229448  0.65838275  0.41678482  1
  P  P30  1  0.28726487  0.98992992  0.25242894  1
  P  P31  1  0.70288856  0.71595199  0.24938431  1
  P  P32  1  0.28404801  0.29711144  0.74938431  1
  P  P33  1  0.01007008  0.71273513  0.75242894  1
  P  P34  1  0.95472002  0.32134061  0.58316040  1
  P  P35  1  0.68044226  0.63364741  0.58350610  1
  P  P36  1  0.67865939  0.04527998  0.08316040  1
  P  P37  1  0.36635259  0.31955774  0.08350610  1
  P  P38  1  0.62140156  0.65356096  0.91637726  1
  P  P39  1  0.03750066  0.38166081  0.91879093  1
  P  P40  1  0.61833919  0.96249934  0.41879093  1
  P  P41  1  0.34643904  0.37859844  0.41637726  1
  O  O42  1  0.20916347  0.00730102  0.30799240  1
  O  O43  1  0.81530694  0.78772384  0.30185482  1
  O  O44  1  0.98433180  0.19322517  0.30531602  1
  O  O45  1  0.21227616  0.18469306  0.80185482  1
  O  O46  1  0.99269898  0.79083653  0.80799240  1
  O  O47  1  0.80677483  0.01566820  0.80531602  1
  O  O48  1  0.80130430  0.97190654  0.69013148  1
  O  O49  1  0.16508182  0.19776541  0.69510275  1
  O  O50  1  0.03406670  0.83660856  0.69882199  1
  O  O51  1  0.80223459  0.83491818  0.19510275  1
  O  O52  1  0.02809346  0.19869570  0.19013148  1
  O  O53  1  0.16339144  0.96593330  0.19882199  1
  O  O54  1  0.87804993  0.34712558  0.63741369  1
  O  O55  1  0.47808471  0.12589307  0.64183878  1
  O  O56  1  0.65367635  0.53180274  0.63728421  1
  O  O57  1  0.87410693  0.52191529  0.14183878  1
  O  O58  1  0.65287442  0.12195007  0.13741369  1
  O  O59  1  0.46819726  0.34632365  0.13728421  1
  O  O60  1  0.46527853  0.30068169  0.02890623  1
  O  O61  1  0.82929335  0.52597054  0.02638088  1
  O  O62  1  0.69939282  0.16559955  0.02951654  1
  O  O63  1  0.47402946  0.17070665  0.52638088  1
  O  O64  1  0.69931831  0.53472147  0.52890623  1
  O  O65  1  0.83440045  0.30060718  0.52951654  1
  O  O66  1  0.54538577  0.68024845  0.97023522  1
  O  O67  1  0.13201876  0.45499648  0.97488422  1
  O  O68  1  0.30438806  0.84558741  0.97027616  1
  O  O69  1  0.54500352  0.86798124  0.47488422  1
  O  O70  1  0.31975155  0.45461423  0.47023522  1
  O  O71  1  0.15441259  0.69561194  0.47027616  1
  O  O72  1  0.13794597  0.63542216  0.35762794  1
  O  O73  1  0.49848536  0.86439624  0.36572447  1
  O  O74  1  0.36548241  0.49561626  0.36192834  1
  O  O75  1  0.13560376  0.50151464  0.86572447  1
  O  O76  1  0.36457784  0.86205403  0.85762794  1
  O  O77  1  0.50438374  0.63451759  0.86192834  1
  O  O78  1  0.01391595  0.82384156  0.41051888  1
  O  O79  1  0.79749565  0.99506449  0.41282422  1
  O  O80  1  0.20417452  0.19710807  0.40880221  1
  O  O81  1  0.00493551  0.20250435  0.91282422  1
  O  O82  1  0.17615844  0.98608405  0.91051888  1
  O  O83  1  0.80289193  0.79582548  0.90880221  1
  O  O84  1  0.95357958  0.14686932  0.58752624  1
  O  O85  1  0.17994443  0.03008402  0.59236349  1
  O  O86  1  0.84802279  0.81046155  0.58912519  1
  O  O87  1  0.96991598  0.82005557  0.09236349  1
  O  O88  1  0.85313068  0.04642042  0.08752624  1
  O  O89  1  0.18953845  0.15197721  0.08912519  1
  O  O90  1  0.65138735  0.14006455  0.74616316  1
  O  O91  1  0.46100542  0.32307804  0.74075712  1
  O  O92  1  0.86168697  0.53757321  0.74457081  1
  O  O93  1  0.67692196  0.53899458  0.24075712  1
  O  O94  1  0.85993545  0.34861265  0.24616316  1
  O  O95  1  0.46242679  0.13831303  0.24457081  1
  O  O96  1  0.63111877  0.48501659  0.92192584  1
  O  O97  1  0.86102738  0.37882264  0.92272871  1
  O  O98  1  0.51785067  0.15117937  0.92573070  1
  O  O99  1  0.62117736  0.13897262  0.42272871  1
  O  O100  1  0.51498341  0.36888123  0.42192584  1
  O  O101  1  0.84882063  0.48214933  0.42573070  1
  O  O102  1  0.32863786  0.46350506  0.07542999  1
  O  O103  1  0.13865772  0.64482158  0.07943229  1
  O  O104  1  0.53609860  0.86602471  0.07682367  1
  O  O105  1  0.35517842  0.86134228  0.57943229  1
  O  O106  1  0.53649494  0.67136214  0.57542999  1
  O  O107  1  0.13397529  0.46390140  0.57682367  1
  O  O108  1  0.29344988  0.81917485  0.25506181  1
  O  O109  1  0.53004642  0.71100262  0.25691040  1
  O  O110  1  0.19044099  0.48960826  0.25717187  1
  O  O111  1  0.28899738  0.46995358  0.75691040  1
  O  O112  1  0.18082515  0.70655012  0.75506181  1
  O  O113  1  0.51039174  0.80955901  0.75717187  1
