# generated using pymatgen
data_Y2SiSn2S5O24
_symmetry_space_group_name_H-M   'P 1'
_cell_length_a   9.04705911
_cell_length_b   9.06686118
_cell_length_c   23.53089393
_cell_angle_alpha   89.71120429
_cell_angle_beta   90.15041035
_cell_angle_gamma   120.14405377
_symmetry_Int_Tables_number   1
_chemical_formula_structural   Y2SiSn2S5O24
_chemical_formula_sum   'Y6 Si3 Sn6 S15 O72'
_cell_volume   1669.15123116
_cell_formula_units_Z   3
loop_
 _symmetry_equiv_pos_site_id
 _symmetry_equiv_pos_as_xyz
  1  'x, y, z'
loop_
 _atom_site_type_symbol
 _atom_site_label
 _atom_site_symmetry_multiplicity
 _atom_site_fract_x
 _atom_site_fract_y
 _atom_site_fract_z
 _atom_site_occupancy
  Y  Y0  1  0.98905944  0.00126613  0.36260784  1
  Y  Y1  1  0.00445469  0.00317575  0.85927876  1
  Y  Y2  1  0.68065071  0.33635011  0.68358194  1
  Y  Y3  1  0.65617753  0.33401213  0.18438924  1
  Y  Y4  1  0.65382373  0.33059858  0.98481913  1
  Y  Y5  1  0.32900811  0.66317344  0.80729399  1
  Si  Si6  1  0.96894387  0.33720248  0.58165646  1
  Si  Si7  1  0.35990420  0.33260367  0.08392818  1
  Si  Si8  1  0.60453910  0.95225854  0.41899396  1
  Sn  Sn9  1  0.99801383  0.00596709  0.64282347  1
  Sn  Sn10  1  0.00646324  0.00599101  0.14879250  1
  Sn  Sn11  1  0.67215462  0.31889924  0.48080338  1
  Sn  Sn12  1  0.33319092  0.66102780  0.02168268  1
  Sn  Sn13  1  0.33387174  0.66507930  0.52064052  1
  Sn  Sn14  1  0.33715978  0.67156644  0.31573946  1
  S  S15  1  0.28223990  0.98439435  0.25151868  1
  S  S16  1  0.70728915  0.71744055  0.24969071  1
  S  S17  1  0.01408814  0.30279772  0.25164491  1
  S  S18  1  0.28509220  0.28259295  0.74742283  1
  S  S19  1  0.99964964  0.72334052  0.74687518  1
  S  S20  1  0.71735252  0.99771540  0.74831544  1
  S  S21  1  0.36709101  0.03705173  0.58241468  1
  S  S22  1  0.66891658  0.62748326  0.58111528  1
  S  S23  1  0.97057741  0.63877361  0.08374847  1
  S  S24  1  0.66739333  0.02901622  0.08385396  1
  S  S25  1  0.61678773  0.66775375  0.91797625  1
  S  S26  1  0.04616532  0.38297805  0.91863469  1
  S  S27  1  0.33494759  0.94564551  0.91919238  1
  S  S28  1  0.34884657  0.38758922  0.41894430  1
  S  S29  1  0.04166914  0.65473044  0.41755112  1
  O  O30  1  0.20228164  0.01036497  0.30121027  1
  O  O31  1  0.81401623  0.80125237  0.29916370  1
  O  O32  1  0.98857335  0.19611235  0.30165376  1
  O  O33  1  0.20530615  0.18061924  0.79905611  1
  O  O34  1  0.98107308  0.80502125  0.79791748  1
  O  O35  1  0.82091689  0.02146918  0.79937947  1
  O  O36  1  0.79617658  0.97005817  0.69657391  1
  O  O37  1  0.17638961  0.20089089  0.69610488  1
  O  O38  1  0.02572254  0.82947188  0.69419808  1
  O  O39  1  0.78505840  0.82619006  0.19651735  1
  O  O40  1  0.04657095  0.22692268  0.19965857  1
  O  O41  1  0.17521015  0.95628184  0.19868302  1
  O  O42  1  0.88940617  0.37256389  0.63703175  1
  O  O43  1  0.47305680  0.11436674  0.63293643  1
  O  O44  1  0.63643862  0.52121040  0.63190194  1
  O  O45  1  0.89747972  0.52699153  0.13374574  1
  O  O46  1  0.63828610  0.10671152  0.13428327  1
  O  O47  1  0.48065349  0.36688645  0.13880482  1
  O  O48  1  0.44182976  0.29715055  0.02832905  1
  O  O49  1  0.86513744  0.56199227  0.03273575  1
  O  O50  1  0.70526478  0.13849923  0.03330984  1
  O  O51  1  0.44054263  0.15033405  0.53147720  1
  O  O52  1  0.69703588  0.54845970  0.52962467  1
  O  O53  1  0.84485985  0.30053081  0.52593591  1
  O  O54  1  0.53760981  0.69618862  0.96931486  1
  O  O55  1  0.15503015  0.46447628  0.96984237  1
  O  O56  1  0.30821438  0.83906054  0.97171637  1
  O  O57  1  0.51864700  0.83161568  0.47497032  1
  O  O58  1  0.31084757  0.46201045  0.46841949  1
  O  O59  1  0.14900972  0.68158059  0.46788230  1
  O  O60  1  0.11268179  0.61660336  0.36527632  1
  O  O61  1  0.48925962  0.87003604  0.36060633  1
  O  O62  1  0.37711061  0.49172404  0.36568343  1
  O  O63  1  0.12700975  0.48552539  0.86704850  1
  O  O64  1  0.35295186  0.86286552  0.86823987  1
  O  O65  1  0.51305640  0.64450801  0.86675825  1
  O  O66  1  0.03152516  0.80900733  0.40898056  1
  O  O67  1  0.78885501  0.97085525  0.41173699  1
  O  O68  1  0.20210169  0.21673906  0.41055491  1
  O  O69  1  0.03344808  0.21484644  0.91319437  1
  O  O70  1  0.18142343  0.96180528  0.91439846  1
  O  O71  1  0.78639318  0.82207240  0.91224080  1
  O  O72  1  0.98775328  0.16619294  0.59002890  1
  O  O73  1  0.19225110  0.01269869  0.59072957  1
  O  O74  1  0.82583945  0.79868058  0.58933706  1
  O  O75  1  0.98267890  0.80733037  0.09370833  1
  O  O76  1  0.81457302  0.00040184  0.09384472  1
  O  O77  1  0.16963006  0.16041698  0.09371859  1
  O  O78  1  0.69793715  0.14837773  0.74148828  1
  O  O79  1  0.45471604  0.30162065  0.74003133  1
  O  O80  1  0.84527967  0.55537405  0.74133112  1
  O  O81  1  0.69206387  0.55057077  0.24184909  1
  O  O82  1  0.86818170  0.32673739  0.24184778  1
  O  O83  1  0.45484476  0.12994909  0.24248647  1
  O  O84  1  0.63637753  0.51752098  0.92499264  1
  O  O85  1  0.87713861  0.36422572  0.92612151  1
  O  O86  1  0.48915606  0.11298596  0.92516948  1
  O  O87  1  0.61586432  0.13850320  0.42517002  1
  O  O88  1  0.50736035  0.37944404  0.42838222  1
  O  O89  1  0.86691799  0.50601187  0.42514502  1
  O  O90  1  0.34071191  0.50275426  0.07480899  1
  O  O91  1  0.14704720  0.66884646  0.07420568  1
  O  O92  1  0.51069343  0.86001709  0.07411063  1
  O  O93  1  0.34908265  0.86740068  0.57360311  1
  O  O94  1  0.51933477  0.65130536  0.57367188  1
  O  O95  1  0.15879254  0.50391673  0.57048128  1
  O  O96  1  0.29162194  0.82318937  0.25664631  1
  O  O97  1  0.53307338  0.69745631  0.25577263  1
  O  O98  1  0.17420448  0.47640345  0.25974457  1
  O  O99  1  0.29858669  0.45115703  0.75291086  1
  O  O100  1  0.15281350  0.70638152  0.75175224  1
  O  O101  1  0.54748990  0.84378154  0.75388187  1
