# generated using pymatgen
data_MgCu3(GeO3)4
_symmetry_space_group_name_H-M   'P 1'
_cell_length_a   6.30012114
_cell_length_b   6.30014124
_cell_length_c   6.30010500
_cell_angle_alpha   109.46993665
_cell_angle_beta   109.47346253
_cell_angle_gamma   109.47075807
_symmetry_Int_Tables_number   1
_chemical_formula_structural   MgCu3(GeO3)4
_chemical_formula_sum   'Mg1 Cu3 Ge4 O12'
_cell_volume   192.49631837
_cell_formula_units_Z   1
loop_
 _symmetry_equiv_pos_site_id
 _symmetry_equiv_pos_as_xyz
  1  'x, y, z'
loop_
 _atom_site_type_symbol
 _atom_site_label
 _atom_site_symmetry_multiplicity
 _atom_site_fract_x
 _atom_site_fract_y
 _atom_site_fract_z
 _atom_site_occupancy
  Mg  Mg0  1  0.99999700  0.99999500  0.00000100  1
  Cu  Cu1  1  0.49999800  0.50000000  0.99999800  1
  Cu  Cu2  1  0.99999400  0.49999700  0.49999900  1
  Cu  Cu3  1  0.49999600  0.00000300  0.49999700  1
  Ge  Ge4  1  0.50000000  0.50000200  0.50000100  1
  Ge  Ge5  1  0.00000100  0.49999900  0.00000100  1
  Ge  Ge6  1  0.00000000  0.00000000  0.50000100  1
  Ge  Ge7  1  0.50000100  0.00000000  0.99999900  1
  O  O8  1  0.81936600  0.29789800  0.11726400  1
  O  O9  1  0.18063500  0.70210300  0.88273800  1
  O  O10  1  0.81936600  0.70210400  0.52146900  1
  O  O11  1  0.29772400  0.47831000  0.18058600  1
  O  O12  1  0.47815600  0.18047000  0.29768400  1
  O  O13  1  0.11722000  0.81952800  0.29768700  1
  O  O14  1  0.70227800  0.88286200  0.18058400  1
  O  O15  1  0.52184400  0.81953300  0.70231400  1
  O  O16  1  0.18063900  0.29789900  0.47853500  1
  O  O17  1  0.70227900  0.52169200  0.81941500  1
  O  O18  1  0.88278000  0.18047000  0.70231000  1
  O  O19  1  0.29772400  0.11713900  0.81941600  1
