# generated using pymatgen
data_Na3TaZnSi2SO12
_symmetry_space_group_name_H-M   'P 1'
_cell_length_a   9.05745087
_cell_length_b   9.05745056
_cell_length_c   22.35722117
_cell_angle_alpha   88.41857076
_cell_angle_beta   91.58142922
_cell_angle_gamma   119.18755620
_symmetry_Int_Tables_number   1
_chemical_formula_structural   Na3TaZnSi2SO12
_chemical_formula_sum   'Na18 Ta6 Zn6 Si12 S6 O72'
_cell_volume   1600.42565683
_cell_formula_units_Z   6
loop_
 _symmetry_equiv_pos_site_id
 _symmetry_equiv_pos_as_xyz
  1  'x, y, z'
loop_
 _atom_site_type_symbol
 _atom_site_label
 _atom_site_symmetry_multiplicity
 _atom_site_fract_x
 _atom_site_fract_y
 _atom_site_fract_z
 _atom_site_occupancy
  Na  Na0  1  0.66156294  0.01849837  0.25254813  1
  Na  Na1  1  0.97097715  0.61173836  0.24593945  1
  Na  Na2  1  0.98150163  0.33843706  0.75254813  1
  Na  Na3  1  0.38826164  0.02902285  0.74593945  1
  Na  Na4  1  0.32822994  0.35183137  0.58588113  1
  Na  Na5  1  0.63764415  0.94507136  0.57927245  1
  Na  Na6  1  0.64816863  0.67177006  0.08588113  1
  Na  Na7  1  0.05492864  0.36235585  0.07927245  1
  Na  Na8  1  0.99489594  0.68516537  0.91921513  1
  Na  Na9  1  0.30431015  0.27840536  0.91260645  1
  Na  Na10  1  0.31483463  0.00510406  0.41921513  1
  Na  Na11  1  0.72159464  0.69568985  0.41260645  1
  Na  Na12  1  0.98757459  0.97875029  0.49096196  1
  Na  Na13  1  0.02124971  0.01242541  0.99096196  1
  Na  Na14  1  0.65424159  0.31208329  0.82429496  1
  Na  Na15  1  0.68791671  0.34575841  0.32429496  1
  Na  Na16  1  0.32090759  0.64541729  0.15762896  1
  Na  Na17  1  0.35458271  0.67909241  0.65762896  1
  Ta  Ta18  1  0.99436476  0.99822846  0.64632277  1
  Ta  Ta19  1  0.00177154  0.00563524  0.14632277  1
  Ta  Ta20  1  0.66103176  0.33156146  0.97965577  1
  Ta  Ta21  1  0.66843854  0.33896824  0.47965577  1
  Ta  Ta22  1  0.32769776  0.66489546  0.31298977  1
  Ta  Ta23  1  0.33510454  0.67230224  0.81298977  1
  Zn  Zn24  1  0.96520113  0.98666525  0.35059210  1
  Zn  Zn25  1  0.01333475  0.03479887  0.85059210  1
  Zn  Zn26  1  0.63186813  0.31999825  0.68392510  1
  Zn  Zn27  1  0.68000175  0.36813187  0.18392510  1
  Zn  Zn28  1  0.29853413  0.65333225  0.01725910  1
  Zn  Zn29  1  0.34666775  0.70146587  0.51725910  1
  Si  Si30  1  0.70082086  0.70318555  0.25257497  1
  Si  Si31  1  0.00111613  0.29268227  0.25108204  1
  Si  Si32  1  0.29681445  0.29917914  0.75257497  1
  Si  Si33  1  0.70731773  0.99888387  0.75108204  1
  Si  Si34  1  0.36748786  0.03651855  0.58590797  1
  Si  Si35  1  0.66778313  0.62601527  0.58441504  1
  Si  Si36  1  0.96348145  0.63251214  0.08590797  1
  Si  Si37  1  0.37398473  0.33221687  0.08441504  1
  Si  Si38  1  0.03415386  0.36985255  0.91924197  1
  Si  Si39  1  0.33444913  0.95934927  0.91774904  1
  Si  Si40  1  0.63014745  0.96584614  0.41924197  1
  Si  Si41  1  0.04065073  0.66555087  0.41774904  1
  S  S42  1  0.29127543  0.99825518  0.25227427  1
  S  S43  1  0.00174482  0.70872457  0.75227427  1
  S  S44  1  0.95794243  0.33158818  0.58560727  1
  S  S45  1  0.66841182  0.04205757  0.08560727  1
  S  S46  1  0.62460843  0.66492218  0.91894127  1
  S  S47  1  0.33507782  0.37539157  0.41894127  1
  O  O48  1  0.22029662  0.01815410  0.30684658  1
  O  O49  1  0.81587579  0.77648286  0.31147811  1
  O  O50  1  0.98338460  0.17724865  0.30750993  1
  O  O51  1  0.22351714  0.18412421  0.81147811  1
  O  O52  1  0.98184590  0.77970338  0.80684658  1
  O  O53  1  0.82275135  0.01661540  0.80750993  1
  O  O54  1  0.80211027  0.97266164  0.69013234  1
  O  O55  1  0.16312818  0.19528986  0.69311167  1
  O  O56  1  0.02569314  0.82591289  0.69863836  1
  O  O57  1  0.80471014  0.83687182  0.19311167  1
  O  O58  1  0.02733836  0.19788973  0.19013234  1
  O  O59  1  0.17408711  0.97430686  0.19863836  1
  O  O60  1  0.88696362  0.35148710  0.64017958  1
  O  O61  1  0.48254279  0.10981586  0.64481111  1
  O  O62  1  0.65005160  0.51058165  0.64084293  1
  O  O63  1  0.89018414  0.51745721  0.14481111  1
  O  O64  1  0.64851290  0.11303638  0.14017958  1
  O  O65  1  0.48941835  0.34994840  0.14084293  1
  O  O66  1  0.46877727  0.30599464  0.02346534  1
  O  O67  1  0.82979518  0.52862286  0.02644467  1
  O  O68  1  0.69236014  0.15924589  0.03197136  1
  O  O69  1  0.47137714  0.17020482  0.52644467  1
  O  O70  1  0.69400536  0.53122273  0.52346534  1
  O  O71  1  0.84075411  0.30763986  0.53197136  1
  O  O72  1  0.55362962  0.68482110  0.97351358  1
  O  O73  1  0.14920879  0.44314986  0.97814511  1
  O  O74  1  0.31671760  0.84391565  0.97417693  1
  O  O75  1  0.55685014  0.85079121  0.47814511  1
  O  O76  1  0.31517890  0.44637038  0.47351358  1
  O  O77  1  0.15608435  0.68328240  0.47417693  1
  O  O78  1  0.13544327  0.63932864  0.35679934  1
  O  O79  1  0.49646118  0.86195686  0.35977867  1
  O  O80  1  0.35902614  0.49257989  0.36530536  1
  O  O81  1  0.13804314  0.50353882  0.85977867  1
  O  O82  1  0.36067136  0.86455673  0.85679934  1
  O  O83  1  0.50742011  0.64097386  0.86530536  1
  O  O84  1  0.02455432  0.83631858  0.41061353  1
  O  O85  1  0.81709875  0.99161677  0.41412567  1
  O  O86  1  0.20345122  0.20311443  0.40901334  1
  O  O87  1  0.00838323  0.18290125  0.91412567  1
  O  O88  1  0.16368142  0.97544568  0.91061353  1
  O  O89  1  0.79688557  0.79654878  0.90901334  1
  O  O90  1  0.95731586  0.16084932  0.58626796  1
  O  O91  1  0.18383393  0.04078349  0.59022640  1
  O  O92  1  0.83822686  0.82142619  0.58974041  1
  O  O93  1  0.95921651  0.81616607  0.09022640  1
  O  O94  1  0.83915068  0.04268414  0.08626796  1
  O  O95  1  0.17857381  0.16177314  0.08974041  1
  O  O96  1  0.69122132  0.16965158  0.74394653  1
  O  O97  1  0.48376575  0.32494977  0.74745867  1
  O  O98  1  0.87011822  0.53644743  0.74234634  1
  O  O99  1  0.67505023  0.51623425  0.24745867  1
  O  O100  1  0.83034842  0.30877868  0.24394653  1
  O  O101  1  0.46355257  0.12988178  0.24234634  1
  O  O102  1  0.62398286  0.49418232  0.91960096  1
  O  O103  1  0.85050093  0.37411649  0.92355940  1
  O  O104  1  0.50489386  0.15475919  0.92307341  1
  O  O105  1  0.62588351  0.14949907  0.42355940  1
  O  O106  1  0.50581768  0.37601714  0.41960096  1
  O  O107  1  0.84524081  0.49510614  0.42307341  1
  O  O108  1  0.35788732  0.50298558  0.07728053  1
  O  O109  1  0.15043175  0.65828377  0.08079267  1
  O  O110  1  0.53678422  0.86978143  0.07568034  1
  O  O111  1  0.34171623  0.84956825  0.58079267  1
  O  O112  1  0.49701442  0.64211268  0.57728053  1
  O  O113  1  0.13021857  0.46321578  0.57568034  1
  O  O114  1  0.29064886  0.82751632  0.25293496  1
  O  O115  1  0.51716693  0.70745049  0.25689340  1
  O  O116  1  0.17155986  0.48809319  0.25640741  1
  O  O117  1  0.29254951  0.48283307  0.75689340  1
  O  O118  1  0.17248368  0.70935114  0.75293496  1
  O  O119  1  0.51190681  0.82844014  0.75640741  1
