# generated using pymatgen
data_Sr2MgCo2O5
_symmetry_space_group_name_H-M   'P 1'
_cell_length_a   8.31413585
_cell_length_b   5.26568480
_cell_length_c   6.25769526
_cell_angle_alpha   66.78716427
_cell_angle_beta   44.89030262
_cell_angle_gamma   51.18415545
_symmetry_Int_Tables_number   1
_chemical_formula_structural   Sr2MgCo2O5
_chemical_formula_sum   'Sr2 Mg1 Co2 O5'
_cell_volume   150.02719930
_cell_formula_units_Z   1
loop_
 _symmetry_equiv_pos_site_id
 _symmetry_equiv_pos_as_xyz
  1  'x, y, z'
loop_
 _atom_site_type_symbol
 _atom_site_label
 _atom_site_symmetry_multiplicity
 _atom_site_fract_x
 _atom_site_fract_y
 _atom_site_fract_z
 _atom_site_occupancy
  Sr  Sr0  1  0.14525842  0.56997701  0.46876861  1
  Sr  Sr1  1  0.68039625  0.43378706  0.64674888  1
  Mg  Mg2  1  0.58438401  0.83161162  0.13765100  1
  Co  Co3  1  0.97265197  0.04265766  0.93717187  1
  Co  Co4  1  0.24071678  0.23740519  0.00479085  1
  O  O5  1  0.62064202  0.17942980  0.11659534  1
  O  O6  1  0.20642998  0.63854583  0.00327332  1
  O  O7  1  0.62651213  0.88979815  0.77036578  1
  O  O8  1  0.17696725  0.03790037  0.44799446  1
  O  O9  1  0.91938219  0.40977830  0.06052387  1
