# generated using pymatgen
data_Na3BiO3
_symmetry_space_group_name_H-M   'P 1'
_cell_length_a   8.30756557
_cell_length_b   8.30756452
_cell_length_c   8.30756622
_cell_angle_alpha   109.47180799
_cell_angle_beta   109.47182807
_cell_angle_gamma   109.47177367
_symmetry_Int_Tables_number   1
_chemical_formula_structural   Na3BiO3
_chemical_formula_sum   'Na12 Bi4 O12'
_cell_volume   441.35703525
_cell_formula_units_Z   4
loop_
 _symmetry_equiv_pos_site_id
 _symmetry_equiv_pos_as_xyz
  1  'x, y, z'
loop_
 _atom_site_type_symbol
 _atom_site_label
 _atom_site_symmetry_multiplicity
 _atom_site_fract_x
 _atom_site_fract_y
 _atom_site_fract_z
 _atom_site_occupancy
  Na  Na0  1  0.24648382  0.72120836  0.72120900  1
  Na  Na1  1  0.72120846  0.72120841  0.24648344  1
  Na  Na2  1  0.72120826  0.24648402  0.72120904  1
  Na  Na3  1  -0.00000471  0.52527699  0.27879238  1
  Na  Na4  1  -0.00000482  0.27879301  0.52527772  1
  Na  Na5  1  0.75351719  0.47472612  0.47472598  1
  Na  Na6  1  0.47472673  0.47472599  0.75351785  1
  Na  Na7  1  0.52527769  0.27879292  -0.00000472  1
  Na  Na8  1  0.27879281  -0.00000481  0.52527774  1
  Na  Na9  1  0.52527694  -0.00000469  0.27879290  1
  Na  Na10  1  0.47472607  0.75351793  0.47472612  1
  Na  Na11  1  0.27879292  0.52527763  -0.00000481  1
  Bi  Bi12  1  0.00000042  0.71643582  0.00000054  1
  Bi  Bi13  1  0.00000034  0.00000095  0.71643685  1
  Bi  Bi14  1  0.28356340  0.28356334  0.28356293  1
  Bi  Bi15  1  0.71643564  0.00000075  -0.00000007  1
  O  O16  1  0.48559060  0.25645189  0.48559058  1
  O  O17  1  0.25645179  0.48559070  0.48559005  1
  O  O18  1  0.48559052  0.48559047  0.25645119  1
  O  O19  1  0.51440823  0.77086128  -0.00000041  1
  O  O20  1  0.77086123  0.00000037  0.51440884  1
  O  O21  1  0.51440827  0.00000006  0.77086143  1
  O  O22  1  0.22913929  0.74354832  0.22913923  1
  O  O23  1  0.77086197  0.51440725  -0.00000036  1
  O  O24  1  -0.00000035  0.51440860  0.77086145  1
  O  O25  1  0.22913946  0.22913950  0.74354880  1
  O  O26  1  0.74354824  0.22913922  0.22913873  1
  O  O27  1  -0.00000040  0.77086157  0.51440858  1
