# generated using pymatgen
data_Na5Mg2Zn2PS5O24
_symmetry_space_group_name_H-M   'P 1'
_cell_length_a   8.89091316
_cell_length_b   8.88048401
_cell_length_c   22.32657371
_cell_angle_alpha   89.69323441
_cell_angle_beta   90.03395550
_cell_angle_gamma   120.12241103
_symmetry_Int_Tables_number   1
_chemical_formula_structural   Na5Mg2Zn2PS5O24
_chemical_formula_sum   'Na15 Mg6 Zn6 P3 S15 O72'
_cell_volume   1524.72385949
_cell_formula_units_Z   3
loop_
 _symmetry_equiv_pos_site_id
 _symmetry_equiv_pos_as_xyz
  1  'x, y, z'
loop_
 _atom_site_type_symbol
 _atom_site_label
 _atom_site_symmetry_multiplicity
 _atom_site_fract_x
 _atom_site_fract_y
 _atom_site_fract_z
 _atom_site_occupancy
  Na  Na0  1  0.36015489  0.35369380  0.25107590  1
  Na  Na1  1  0.00501329  0.64329006  0.24876226  1
  Na  Na2  1  0.63593889  0.64004571  0.74669460  1
  Na  Na3  1  0.99523062  0.35938564  0.75176941  1
  Na  Na4  1  0.30948005  0.33959379  0.58374028  1
  Na  Na5  1  0.66851845  0.96268419  0.58560028  1
  Na  Na6  1  0.30184315  0.96975032  0.08625375  1
  Na  Na7  1  0.69746958  0.03020816  0.91428107  1
  Na  Na8  1  0.69960221  0.66662931  0.42008131  1
  Na  Na9  1  0.00551723  0.99284866  0.49940262  1
  Na  Na10  1  0.99995680  0.00001254  0.00013388  1
  Na  Na11  1  0.65647050  0.32674475  0.83291595  1
  Na  Na12  1  0.65652253  0.30295287  0.33459741  1
  Na  Na13  1  0.34298005  0.67455719  0.16649669  1
  Na  Na14  1  0.33604782  0.68394672  0.66704185  1
  Mg  Mg15  1  0.00183355  0.00076124  0.84987961  1
  Mg  Mg16  1  0.99757093  0.99945479  0.15049711  1
  Mg  Mg17  1  0.66247859  0.32202081  0.18254299  1
  Mg  Mg18  1  0.66940299  0.34213617  0.98393336  1
  Mg  Mg19  1  0.33074195  0.65752578  0.01652347  1
  Mg  Mg20  1  0.33798140  0.68226208  0.31716810  1
  Zn  Zn21  1  0.01547423  0.00978340  0.34712528  1
  Zn  Zn22  1  0.98310380  0.97787598  0.65278263  1
  Zn  Zn23  1  0.65983886  0.32566858  0.68065361  1
  Zn  Zn24  1  0.67085956  0.33764107  0.48614007  1
  Zn  Zn25  1  0.33373950  0.66830596  0.51391525  1
  Zn  Zn26  1  0.34136539  0.68200628  0.81911247  1
  P  P27  1  0.29754462  0.00051620  0.24787836  1
  P  P28  1  0.70116038  0.00175912  0.75086724  1
  P  P29  1  0.66753045  0.62990877  0.58257511  1
  S  S30  1  0.70339738  0.70509484  0.25035087  1
  S  S31  1  0.99767286  0.29347735  0.24996372  1
  S  S32  1  0.29307540  0.29174989  0.74981636  1
  S  S33  1  0.00396800  0.70707480  0.75130813  1
  S  S34  1  0.96565138  0.33666087  0.58367527  1
  S  S35  1  0.36901169  0.03657209  0.58265435  1
  S  S36  1  0.96097445  0.62792847  0.08394508  1
  S  S37  1  0.66875308  0.03776863  0.08153807  1
  S  S38  1  0.37240601  0.33571084  0.08382415  1
  S  S39  1  0.62869041  0.66413442  0.91645557  1
  S  S40  1  0.03834800  0.37168923  0.91618216  1
  S  S41  1  0.33168201  0.96407460  0.91903192  1
  S  S42  1  0.63238835  0.96596377  0.41708637  1
  S  S43  1  0.33038534  0.36957884  0.41601450  1
  S  S44  1  0.03748748  0.66510968  0.41592270  1
  O  O45  1  0.21576039  0.03850391  0.30284458  1
  O  O46  1  0.80577671  0.77816679  0.30634886  1
  O  O47  1  0.96531239  0.18825933  0.30485935  1
  O  O48  1  0.20602697  0.18351352  0.80218481  1
  O  O49  1  0.97906552  0.79234347  0.80356182  1
  O  O50  1  0.81565530  0.02978600  0.80668405  1
  O  O51  1  0.77992393  0.96985427  0.69321386  1
  O  O52  1  0.19272244  0.21605178  0.69359234  1
  O  O53  1  0.03366968  0.80922966  0.69573031  1
  O  O54  1  0.78743092  0.81617893  0.19823681  1
  O  O55  1  0.02607704  0.21156243  0.19724678  1
  O  O56  1  0.18345152  0.96803116  0.19131425  1
  O  O57  1  0.88941714  0.35900368  0.63974789  1
  O  O58  1  0.47966092  0.11157299  0.63658754  1
  O  O59  1  0.63532648  0.51632368  0.63965663  1
  O  O60  1  0.88195385  0.52698885  0.13975801  1
  O  O61  1  0.63904531  0.12202679  0.13369243  1
  O  O62  1  0.47391636  0.35921813  0.13946651  1
  O  O63  1  0.45817050  0.30631251  0.03193207  1
  O  O64  1  0.85416091  0.54096603  0.03138287  1
  O  O65  1  0.69171094  0.14031786  0.02591142  1
  O  O66  1  0.44937633  0.14629452  0.52869818  1
  O  O67  1  0.68894295  0.54734991  0.52495480  1
  O  O68  1  0.85109334  0.30326303  0.53152019  1
  O  O69  1  0.54126724  0.69392912  0.96759104  1
  O  O70  1  0.14675939  0.45947713  0.96812496  1
  O  O71  1  0.30832592  0.85862372  0.97376346  1
  O  O72  1  0.55712755  0.86091724  0.47337077  1
  O  O73  1  0.31110707  0.44964259  0.47186197  1
  O  O74  1  0.14274268  0.68739574  0.46968614  1
  O  O75  1  0.11917880  0.64651883  0.36085446  1
  O  O76  1  0.52267536  0.87746916  0.36498516  1
  O  O77  1  0.35431070  0.48072374  0.36253506  1
  O  O78  1  0.11385564  0.47149906  0.85956156  1
  O  O79  1  0.36573337  0.88559376  0.86570023  1
  O  O80  1  0.52859856  0.63711256  0.85989796  1
  O  O81  1  0.01231661  0.82003159  0.41243673  1
  O  O82  1  0.80525642  0.97650376  0.41110599  1
  O  O83  1  0.17357736  0.19513554  0.41207649  1
  O  O84  1  0.01656959  0.19312323  0.91265442  1
  O  O85  1  0.17669201  0.98180598  0.91143827  1
  O  O86  1  0.80304012  0.82673611  0.91160186  1
  O  O87  1  0.98765168  0.17959440  0.58763125  1
  O  O88  1  0.19798888  0.02688032  0.58947280  1
  O  O89  1  0.82796293  0.81652254  0.58607339  1
  O  O90  1  0.98276203  0.80635574  0.08739224  1
  O  O91  1  0.82296975  0.01829005  0.08910962  1
  O  O92  1  0.19731049  0.17415353  0.08857500  1
  O  O93  1  0.69116318  0.17148395  0.74501516  1
  O  O94  1  0.47291083  0.31970422  0.74699184  1
  O  O95  1  0.84080097  0.53177652  0.74729342  1
  O  O96  1  0.68904703  0.52952698  0.24342136  1
  O  O97  1  0.84954372  0.32556183  0.24260600  1
  O  O98  1  0.47880429  0.16714324  0.24217947  1
  O  O99  1  0.64902208  0.51021543  0.92438599  1
  O  O100  1  0.85889599  0.34687639  0.92212543  1
  O  O101  1  0.49382618  0.13880409  0.92437887  1
  O  O102  1  0.64956922  0.14014395  0.42202265  1
  O  O103  1  0.49288166  0.35816690  0.41908743  1
  O  O104  1  0.85948914  0.50675249  0.41953175  1
  O  O105  1  0.35343907  0.49083741  0.07658145  1
  O  O106  1  0.14015921  0.65176465  0.07853282  1
  O  O107  1  0.50574914  0.86310427  0.07675866  1
  O  O108  1  0.35157422  0.86153500  0.57685460  1
  O  O109  1  0.49959785  0.64777907  0.57901221  1
  O  O110  1  0.14152095  0.49269724  0.57733578  1
  O  O111  1  0.30783991  0.83199570  0.25544114  1
  O  O112  1  0.52318824  0.67509629  0.25592719  1
  O  O113  1  0.16073224  0.46909535  0.25574212  1
  O  O114  1  0.30789149  0.46829770  0.75456688  1
  O  O115  1  0.15341424  0.67623616  0.75674967  1
  O  O116  1  0.52091412  0.83172531  0.75595278  1
