# generated using pymatgen
data_Rb4Mg(MoO4)2
_symmetry_space_group_name_H-M   'P 1'
_cell_length_a   6.83932173
_cell_length_b   7.69996058
_cell_length_c   7.87412362
_cell_angle_alpha   111.13993818
_cell_angle_beta   97.45378687
_cell_angle_gamma   116.82249518
_symmetry_Int_Tables_number   1
_chemical_formula_structural   Rb4Mg(MoO4)2
_chemical_formula_sum   'Rb4 Mg1 Mo2 O8'
_cell_volume   323.14461211
_cell_formula_units_Z   1
loop_
 _symmetry_equiv_pos_site_id
 _symmetry_equiv_pos_as_xyz
  1  'x, y, z'
loop_
 _atom_site_type_symbol
 _atom_site_label
 _atom_site_symmetry_multiplicity
 _atom_site_fract_x
 _atom_site_fract_y
 _atom_site_fract_z
 _atom_site_occupancy
  Rb  Rb0  1  0.05827567  0.83961465  0.26297577  1
  Rb  Rb1  1  0.19444285  0.33355324  0.78818810  1
  Rb  Rb2  1  0.48704758  0.95448160  0.79088495  1
  Rb  Rb3  1  0.59758032  0.91665853  0.25675046  1
  Mg  Mg4  1  0.63518746  0.40745009  0.31605075  1
  Mo  Mo5  1  0.12686962  0.38729560  0.27828903  1
  Mo  Mo6  1  0.81839021  0.61755744  0.73511727  1
  O  O7  1  0.32801779  0.32794703  0.15264231  1
  O  O8  1  0.10042656  0.68015357  0.87179045  1
  O  O9  1  0.65799005  0.69491326  0.88450948  1
  O  O10  1  0.81928219  0.32068507  0.16103103  1
  O  O11  1  0.62283242  0.31619773  0.52682403  1
  O  O12  1  0.29637975  0.68924949  0.40294491  1
  O  O13  1  0.06464489  0.22266028  0.40577067  1
  O  O14  1  0.83846865  0.71750843  0.54123078  1
