# generated using pymatgen
data_Y2MgV2O7
_symmetry_space_group_name_H-M   'P 1'
_cell_length_a   5.92469906
_cell_length_b   5.92469845
_cell_length_c   5.50753061
_cell_angle_alpha   85.70526915
_cell_angle_beta   94.29472299
_cell_angle_gamma   68.82984379
_symmetry_Int_Tables_number   1
_chemical_formula_structural   Y2MgV2O7
_chemical_formula_sum   'Y2 Mg1 V2 O7'
_cell_volume   178.68896014
_cell_formula_units_Z   1
loop_
 _symmetry_equiv_pos_site_id
 _symmetry_equiv_pos_as_xyz
  1  'x, y, z'
loop_
 _atom_site_type_symbol
 _atom_site_label
 _atom_site_symmetry_multiplicity
 _atom_site_fract_x
 _atom_site_fract_y
 _atom_site_fract_z
 _atom_site_occupancy
  Y  Y0  1  0.32719500  0.31374700  0.49988800  1
  Y  Y1  1  0.68625300  0.67280500  0.49988800  1
  Mg  Mg2  1  0.05130700  0.94869300  0.41533800  1
  V  V3  1  0.25992500  0.74007500  0.90583600  1
  V  V4  1  0.72887800  0.27112200  0.09652900  1
  O  O5  1  0.05828200  0.65783100  0.64075000  1
  O  O6  1  0.34216900  0.94171800  0.64075000  1
  O  O7  1  0.43780500  0.56219500  0.22711200  1
  O  O8  1  0.56410300  0.43589700  0.77491200  1
  O  O9  1  0.02108500  0.97891500  0.04704100  1
  O  O10  1  0.65546500  0.04913500  0.33222800  1
  O  O11  1  0.95086500  0.34453500  0.33222800  1
