# generated using pymatgen
data_Na3Mg3Ga(SO4)6
_symmetry_space_group_name_H-M   'P 1'
_cell_length_a   8.64977752
_cell_length_b   8.65449222
_cell_length_c   22.35546649
_cell_angle_alpha   90.02321202
_cell_angle_beta   89.98267435
_cell_angle_gamma   120.11417940
_symmetry_Int_Tables_number   1
_chemical_formula_structural   Na3Mg3Ga(SO4)6
_chemical_formula_sum   'Na9 Mg9 Ga3 S18 O72'
_cell_volume   1447.63819142
_cell_formula_units_Z   3
loop_
 _symmetry_equiv_pos_site_id
 _symmetry_equiv_pos_as_xyz
  1  'x, y, z'
loop_
 _atom_site_type_symbol
 _atom_site_label
 _atom_site_symmetry_multiplicity
 _atom_site_fract_x
 _atom_site_fract_y
 _atom_site_fract_z
 _atom_site_occupancy
  Na  Na0  1  0.63548910  0.99932520  0.24941693  1
  Na  Na1  1  0.36451297  0.36354310  0.24931175  1
  Na  Na2  1  0.03159180  0.69863073  0.58488874  1
  Na  Na3  1  0.99932898  0.00607721  0.49930832  1
  Na  Na4  1  0.99995740  0.99941883  0.99888955  1
  Na  Na5  1  0.66607770  0.33267010  0.83229828  1
  Na  Na6  1  0.67367382  0.33969214  0.33629877  1
  Na  Na7  1  0.32579369  0.66590384  0.16165714  1
  Na  Na8  1  0.34008566  0.66592865  0.66949452  1
  Mg  Mg9  1  0.00001746  0.99829752  0.35384790  1
  Mg  Mg10  1  0.00010104  0.00073151  0.85112560  1
  Mg  Mg11  1  0.99928499  0.00657493  0.65261596  1
  Mg  Mg12  1  0.99988309  0.99757405  0.14439065  1
  Mg  Mg13  1  0.66440302  0.33094457  0.68817277  1
  Mg  Mg14  1  0.67268306  0.33874147  0.18018834  1
  Mg  Mg15  1  0.33278979  0.66677129  0.01773190  1
  Mg  Mg16  1  0.33843851  0.66596467  0.51715094  1
  Mg  Mg17  1  0.32719990  0.66595815  0.31984400  1
  Ga  Ga18  1  0.66787543  0.33460379  0.98182222  1
  Ga  Ga19  1  0.66486400  0.33149474  0.48352113  1
  Ga  Ga20  1  0.33454719  0.66665362  0.81644296  1
  S  S21  1  0.28870605  0.99679378  0.24965194  1
  S  S22  1  0.71086882  0.70821787  0.24997147  1
  S  S23  1  0.00022501  0.29227557  0.24987053  1
  S  S24  1  0.29269748  0.29476126  0.75127069  1
  S  S25  1  0.00213763  0.70700055  0.75054780  1
  S  S26  1  0.70542890  0.99799141  0.75122975  1
  S  S27  1  0.95526036  0.33108614  0.58296895  1
  S  S28  1  0.37787434  0.04441745  0.58314136  1
  S  S29  1  0.66412079  0.62188175  0.58344291  1
  S  S30  1  0.95838598  0.62403296  0.08247946  1
  S  S31  1  0.66578273  0.04169120  0.08319388  1
  S  S32  1  0.37589825  0.33422796  0.08316337  1
  S  S33  1  0.62392454  0.66554107  0.91750932  1
  S  S34  1  0.04184820  0.37628420  0.91738612  1
  S  S35  1  0.33451906  0.95833189  0.91742353  1
  S  S36  1  0.62710521  0.96269978  0.41710808  1
  S  S37  1  0.33553262  0.37296815  0.41709318  1
  S  S38  1  0.03738054  0.66441098  0.41834959  1
  O  O39  1  0.21151896  0.03222520  0.30335788  1
  O  O40  1  0.81823417  0.78905234  0.30408309  1
  O  O41  1  0.96702389  0.17932816  0.30350744  1
  O  O42  1  0.21115330  0.18514671  0.80434686  1
  O  O43  1  0.97446746  0.79069804  0.80311055  1
  O  O44  1  0.81486134  0.02613045  0.80433393  1
  O  O45  1  0.78125996  0.96534775  0.69658197  1
  O  O46  1  0.18440803  0.21860624  0.69659357  1
  O  O47  1  0.03351866  0.81291395  0.69468371  1
  O  O48  1  0.78839581  0.82088587  0.19708817  1
  O  O49  1  0.03299975  0.21231556  0.19682171  1
  O  O50  1  0.18189054  0.97071956  0.19640547  1
  O  O51  1  0.87568138  0.36615530  0.63533723  1
  O  O52  1  0.48772850  0.12521511  0.63579172  1
  O  O53  1  0.63738375  0.51231157  0.63611460  1
  O  O54  1  0.87865837  0.51537807  0.13667411  1
  O  O55  1  0.63739327  0.11926437  0.13871355  1
  O  O56  1  0.48160284  0.36217031  0.13869269  1
  O  O57  1  0.46004455  0.30321656  0.02970467  1
  O  O58  1  0.84413376  0.54175143  0.02843944  1
  O  O59  1  0.69678761  0.15674084  0.02973439  1
  O  O60  1  0.45644616  0.15430403  0.52791188  1
  O  O61  1  0.70224605  0.54390551  0.52840663  1
  O  O62  1  0.84513786  0.30163556  0.52769981  1
  O  O63  1  0.54274144  0.69321586  0.97061970  1
  O  O64  1  0.15059122  0.45723234  0.97052795  1
  O  O65  1  0.30672539  0.84959529  0.97053061  1
  O  O66  1  0.54305451  0.85109322  0.46979364  1
  O  O67  1  0.30748721  0.45664096  0.46977731  1
  O  O68  1  0.14498492  0.69245850  0.47254042  1
  O  O69  1  0.11622521  0.63337142  0.36450770  1
  O  O70  1  0.52108641  0.88736665  0.36165372  1
  O  O71  1  0.36675486  0.47919240  0.36167461  1
  O  O72  1  0.11960170  0.48816260  0.86249776  1
  O  O73  1  0.36844772  0.88056576  0.86250883  1
  O  O74  1  0.51214156  0.63127767  0.86260014  1
  O  O75  1  0.01886893  0.82377430  0.41087976  1
  O  O76  1  0.80561935  0.98196398  0.41040703  1
  O  O77  1  0.17586836  0.19440057  0.41034634  1
  O  O78  1  0.02100194  0.19768136  0.90968619  1
  O  O79  1  0.17644203  0.97863512  0.90965119  1
  O  O80  1  0.80271211  0.82359099  0.90968257  1
  O  O81  1  0.97483678  0.17224481  0.58860495  1
  O  O82  1  0.19538633  0.02107720  0.58820205  1
  O  O83  1  0.82925070  0.80063938  0.58844034  1
  O  O84  1  0.97373152  0.80067565  0.08861112  1
  O  O85  1  0.82739609  0.02644819  0.08907893  1
  O  O86  1  0.19859526  0.17274679  0.08896129  1
  O  O87  1  0.68533425  0.15622937  0.74381029  1
  O  O88  1  0.47132095  0.31534353  0.74390772  1
  O  O89  1  0.84319580  0.52834582  0.74353608  1
  O  O90  1  0.68403367  0.52546777  0.24380052  1
  O  O91  1  0.83763622  0.30846614  0.24341426  1
  O  O92  1  0.47274816  0.16047497  0.24394170  1
  O  O93  1  0.64071949  0.50058401  0.92346438  1
  O  O94  1  0.85957990  0.35879508  0.92341663  1
  O  O95  1  0.49971166  0.14068349  0.92356967  1
  O  O96  1  0.64359866  0.14362825  0.42382862  1
  O  O97  1  0.50003055  0.35657770  0.42386592  1
  O  O98  1  0.85556944  0.49960602  0.42428785  1
  O  O99  1  0.35949662  0.49481589  0.07644710  1
  O  O100  1  0.13589122  0.64130046  0.07596248  1
  O  O101  1  0.50514107  0.86430329  0.07648494  1
  O  O102  1  0.35422981  0.86238789  0.57568472  1
  O  O103  1  0.50606798  0.64152496  0.57538905  1
  O  O104  1  0.13358615  0.49549815  0.57526544  1
  O  O105  1  0.31548148  0.84110756  0.25665984  1
  O  O106  1  0.52747946  0.68794709  0.25657503  1
  O  O107  1  0.16278838  0.47098893  0.25709197  1
  O  O108  1  0.31009517  0.47725838  0.75772854  1
  O  O109  1  0.16695473  0.69023271  0.75736961  1
  O  O110  1  0.52245359  0.83278199  0.75769113  1
