# generated using pymatgen
data_Al2SiGe2S5O24
_symmetry_space_group_name_H-M   'P 1'
_cell_length_a   8.33133311
_cell_length_b   8.33584359
_cell_length_c   21.62027258
_cell_angle_alpha   89.61640995
_cell_angle_beta   89.81556182
_cell_angle_gamma   120.16358455
_symmetry_Int_Tables_number   1
_chemical_formula_structural   Al2SiGe2S5O24
_chemical_formula_sum   'Al6 Si3 Ge6 S15 O72'
_cell_volume   1298.12131891
_cell_formula_units_Z   3
loop_
 _symmetry_equiv_pos_site_id
 _symmetry_equiv_pos_as_xyz
  1  'x, y, z'
loop_
 _atom_site_type_symbol
 _atom_site_label
 _atom_site_symmetry_multiplicity
 _atom_site_fract_x
 _atom_site_fract_y
 _atom_site_fract_z
 _atom_site_occupancy
  Al  Al0  1  0.99323694  0.99988079  0.35727933  1
  Al  Al1  1  0.00128538  0.00053293  0.85494002  1
  Al  Al2  1  0.67667097  0.33738145  0.68702852  1
  Al  Al3  1  0.65953739  0.33589013  0.18617678  1
  Al  Al4  1  0.65721766  0.33022808  0.98022464  1
  Al  Al5  1  0.33214335  0.66608074  0.81201257  1
  Si  Si6  1  0.95967035  0.33862055  0.58529172  1
  Si  Si7  1  0.38215630  0.33364686  0.08334256  1
  Si  Si8  1  0.62262225  0.95410267  0.41732779  1
  Ge  Ge9  1  0.99805729  0.00543631  0.64421925  1
  Ge  Ge10  1  0.00692789  0.00654831  0.14434350  1
  Ge  Ge11  1  0.67478035  0.31778488  0.47841609  1
  Ge  Ge12  1  0.33403263  0.66026904  0.02257070  1
  Ge  Ge13  1  0.33681561  0.66576051  0.52190382  1
  Ge  Ge14  1  0.33988822  0.67594740  0.31456566  1
  S  S15  1  0.28816388  0.99968933  0.25150700  1
  S  S16  1  0.71418682  0.71040202  0.25011692  1
  S  S17  1  0.99916329  0.29275802  0.25096007  1
  S  S18  1  0.29248334  0.29053177  0.75094470  1
  S  S19  1  0.99900663  0.71213280  0.75088733  1
  S  S20  1  0.70923496  0.99949947  0.75164821  1
  S  S21  1  0.37856453  0.04601645  0.58540565  1
  S  S22  1  0.66740575  0.61787706  0.58419120  1
  S  S23  1  0.95273198  0.61999837  0.08320233  1
  S  S24  1  0.66635704  0.04680662  0.08342092  1
  S  S25  1  0.62417046  0.66727266  0.91504021  1
  S  S26  1  0.04063800  0.37602229  0.91576426  1
  S  S27  1  0.33444641  0.95456132  0.91590092  1
  S  S28  1  0.33445471  0.37454450  0.41654216  1
  S  S29  1  0.04350850  0.66942286  0.41591688  1
  O  O30  1  0.20223121  0.03146875  0.30564654  1
  O  O31  1  0.83139437  0.79685369  0.30386927  1
  O  O32  1  0.96763740  0.17452345  0.30521604  1
  O  O33  1  0.20631501  0.16963442  0.80570131  1
  O  O34  1  0.96691934  0.79895033  0.80516469  1
  O  O35  1  0.83062568  0.03487744  0.80536716  1
  O  O36  1  0.78560983  0.95526318  0.69536065  1
  O  O37  1  0.17332967  0.21257136  0.69499560  1
  O  O38  1  0.04138469  0.83234208  0.69357056  1
  O  O39  1  0.79136542  0.83113541  0.19263312  1
  O  O40  1  0.04007532  0.21629714  0.19450540  1
  O  O41  1  0.16977009  0.95819568  0.19511198  1
  O  O42  1  0.86832730  0.37339986  0.64434181  1
  O  O43  1  0.49155027  0.12926418  0.64023553  1
  O  O44  1  0.62995943  0.50261503  0.63984044  1
  O  O45  1  0.87849730  0.50478339  0.13922256  1
  O  O46  1  0.63550780  0.12579909  0.13950882  1
  O  O47  1  0.50383495  0.37131525  0.14416548  1
  O  O48  1  0.46618784  0.29548291  0.02234323  1
  O  O49  1  0.84350068  0.54068900  0.02706879  1
  O  O50  1  0.70755385  0.16189104  0.02730893  1
  O  O51  1  0.44819003  0.16295359  0.52828410  1
  O  O52  1  0.70201740  0.54312342  0.52684812  1
  O  O53  1  0.83356443  0.29490643  0.52358607  1
  O  O54  1  0.54792204  0.71181834  0.97115617  1
  O  O55  1  0.15976368  0.45396390  0.97162073  1
  O  O56  1  0.29180631  0.83419115  0.97318226  1
  O  O57  1  0.52725457  0.82149937  0.47816918  1
  O  O58  1  0.28895563  0.44892859  0.47168389  1
  O  O59  1  0.15850481  0.70539091  0.47140161  1
  O  O60  1  0.11599406  0.61923125  0.35977685  1
  O  O61  1  0.48971778  0.86941981  0.35633925  1
  O  O62  1  0.37323754  0.49304227  0.35935539  1
  O  O63  1  0.12669983  0.49674519  0.86094855  1
  O  O64  1  0.36630668  0.86764098  0.86154219  1
  O  O65  1  0.50283036  0.63188844  0.86122035  1
  O  O66  1  0.03385452  0.83610068  0.40550006  1
  O  O67  1  0.81821096  0.97163650  0.40667256  1
  O  O68  1  0.17343067  0.19287633  0.40627635  1
  O  O69  1  0.02388928  0.19361332  0.90648910  1
  O  O70  1  0.16896879  0.97236035  0.90736991  1
  O  O71  1  0.80739054  0.83401493  0.90596252  1
  O  O72  1  0.98034881  0.15518963  0.59263614  1
  O  O73  1  0.19011494  0.02098786  0.59242188  1
  O  O74  1  0.83656007  0.80300516  0.59159432  1
  O  O75  1  0.96671255  0.80308055  0.09123119  1
  O  O76  1  0.82809545  0.01962645  0.09117592  1
  O  O77  1  0.17400260  0.15233839  0.09213741  1
  O  O78  1  0.68903139  0.16240445  0.74288457  1
  O  O79  1  0.47404968  0.30701123  0.74089432  1
  O  O80  1  0.83108409  0.53183254  0.74353684  1
  O  O81  1  0.70024697  0.53000666  0.24259869  1
  O  O82  1  0.83473747  0.30978877  0.24068292  1
  O  O83  1  0.47328224  0.16119835  0.24313127  1
  O  O84  1  0.64479990  0.50453389  0.92366042  1
  O  O85  1  0.85892567  0.35952543  0.92594999  1
  O  O86  1  0.50261652  0.13477680  0.92330907  1
  O  O87  1  0.62974541  0.15117933  0.42278926  1
  O  O88  1  0.50490207  0.36673187  0.42548867  1
  O  O89  1  0.85580146  0.50695212  0.42302538  1
  O  O90  1  0.35461012  0.51379970  0.07434967  1
  O  O91  1  0.14204485  0.64718541  0.07534870  1
  O  O92  1  0.49619496  0.86352608  0.07535821  1
  O  O93  1  0.36261858  0.86371625  0.57818650  1
  O  O94  1  0.50240254  0.63852734  0.57869142  1
  O  O95  1  0.16236917  0.51870512  0.57250484  1
  O  O96  1  0.29996167  0.82681740  0.25621675  1
  O  O97  1  0.52612761  0.68925774  0.25584160  1
  O  O98  1  0.16912796  0.47979388  0.25873895  1
  O  O99  1  0.30928107  0.47306942  0.76009875  1
  O  O100  1  0.16447827  0.69426646  0.75927166  1
  O  O101  1  0.52607972  0.83282108  0.76058990  1
