# generated using pymatgen
data_Na6LaNb3(SiO4)6
_symmetry_space_group_name_H-M   'P 1'
_cell_length_a   9.24659846
_cell_length_b   9.24613958
_cell_length_c   22.48048766
_cell_angle_alpha   89.98536911
_cell_angle_beta   90.05608625
_cell_angle_gamma   119.88163955
_symmetry_Int_Tables_number   1
_chemical_formula_structural   Na6LaNb3(SiO4)6
_chemical_formula_sum   'Na18 La3 Nb9 Si18 O72'
_cell_volume   1666.46163021
_cell_formula_units_Z   3
loop_
 _symmetry_equiv_pos_site_id
 _symmetry_equiv_pos_as_xyz
  1  'x, y, z'
loop_
 _atom_site_type_symbol
 _atom_site_label
 _atom_site_symmetry_multiplicity
 _atom_site_fract_x
 _atom_site_fract_y
 _atom_site_fract_z
 _atom_site_occupancy
  Na  Na0  1  0.00821447  0.00090552  0.50302543  1
  Na  Na1  1  0.98913514  0.98995316  0.99797988  1
  Na  Na2  1  0.66653614  0.33240497  0.83514843  1
  Na  Na3  1  0.66660308  0.33260949  0.32443127  1
  Na  Na4  1  0.34835942  0.66624924  0.16225145  1
  Na  Na5  1  0.31892621  0.65181690  0.66549969  1
  Na  Na6  1  0.64327728  0.01447253  0.24451118  1
  Na  Na7  1  0.36902190  0.35631924  0.24457466  1
  Na  Na8  1  0.98862200  0.62946758  0.24425979  1
  Na  Na9  1  0.62935931  0.62254284  0.74847534  1
  Na  Na10  1  0.98991130  0.36868327  0.74877375  1
  Na  Na11  1  0.38139064  0.00890261  0.74903418  1
  Na  Na12  1  0.66436726  0.97078972  0.58451018  1
  Na  Na13  1  0.30984231  0.97223925  0.07999066  1
  Na  Na14  1  0.02713570  0.33888461  0.08042064  1
  Na  Na15  1  0.96428586  0.28956879  0.41484859  1
  Na  Na16  1  0.32590531  0.03443025  0.41492803  1
  Na  Na17  1  0.70946510  0.67590480  0.41548910  1
  La  La18  1  0.99988736  0.00020609  0.34998419  1
  La  La19  1  0.66801737  0.33747196  0.67940466  1
  La  La20  1  0.66428756  0.33623831  0.16499819  1
  Nb  Nb21  1  0.00012885  0.00092136  0.85905549  1
  Nb  Nb22  1  0.00339791  0.99921268  0.64527936  1
  Nb  Nb23  1  0.99747354  0.99694599  0.14701630  1
  Nb  Nb24  1  0.66778037  0.33469462  0.97969074  1
  Nb  Nb25  1  0.66598757  0.33447651  0.48439577  1
  Nb  Nb26  1  0.33642701  0.66653328  0.01273600  1
  Nb  Nb27  1  0.32977987  0.66252920  0.52114077  1
  Nb  Nb28  1  0.33287121  0.66678770  0.31133179  1
  Nb  Nb29  1  0.33417610  0.66728703  0.81419285  1
  Si  Si30  1  0.30206529  0.99590435  0.25071696  1
  Si  Si31  1  0.69432330  0.69995410  0.25182241  1
  Si  Si32  1  0.00528910  0.30657060  0.25026332  1
  Si  Si33  1  0.27768854  0.28974716  0.75306583  1
  Si  Si34  1  0.01093987  0.72102095  0.75369281  1
  Si  Si35  1  0.70984096  0.98901754  0.75198289  1
  Si  Si36  1  0.97232521  0.33090027  0.58563007  1
  Si  Si37  1  0.36025913  0.02861555  0.58426071  1
  Si  Si38  1  0.66926057  0.64093176  0.58521533  1
  Si  Si39  1  0.97561523  0.64073705  0.08135871  1
  Si  Si40  1  0.66506078  0.02346756  0.08200106  1
  Si  Si41  1  0.35818250  0.33475875  0.08271962  1
  Si  Si42  1  0.62686476  0.66151844  0.91428354  1
  Si  Si43  1  0.03469762  0.37435076  0.91512564  1
  Si  Si44  1  0.33810343  0.96465676  0.91553008  1
  Si  Si45  1  0.61413913  0.96345627  0.41898995  1
  Si  Si46  1  0.35038347  0.38639833  0.41767749  1
  Si  Si47  1  0.03661155  0.65111569  0.41789412  1
  O  O48  1  0.24019165  0.02742074  0.31369768  1
  O  O49  1  0.78460507  0.75785394  0.31540092  1
  O  O50  1  0.97274502  0.21298003  0.31325410  1
  O  O51  1  0.17385723  0.17588960  0.80990802  1
  O  O52  1  0.00247108  0.82612261  0.81033799  1
  O  O53  1  0.82608280  0.99761965  0.80818080  1
  O  O54  1  0.80194524  0.97241122  0.69073848  1
  O  O55  1  0.16214823  0.19015078  0.69364552  1
  O  O56  1  0.02429243  0.83528069  0.69409119  1
  O  O57  1  0.81692614  0.83451077  0.19826037  1
  O  O58  1  0.02024686  0.19080870  0.19487920  1
  O  O59  1  0.17209742  0.98188731  0.19517573  1
  O  O60  1  0.92026153  0.37049598  0.64872575  1
  O  O61  1  0.46744074  0.07917255  0.64475045  1
  O  O62  1  0.62826046  0.54991600  0.64828557  1
  O  O63  1  0.93674976  0.54375522  0.14389347  1
  O  O64  1  0.60847941  0.06340206  0.14472552  1
  O  O65  1  0.43818331  0.37466057  0.14794321  1
  O  O66  1  0.47962576  0.30623028  0.03501169  1
  O  O67  1  0.83336487  0.52071834  0.03161755  1
  O  O68  1  0.69551581  0.17266962  0.03351313  1
  O  O69  1  0.47449920  0.16471237  0.52980034  1
  O  O70  1  0.68753779  0.52376971  0.53103516  1
  O  O71  1  0.83103988  0.30846032  0.53240104  1
  O  O72  1  0.51836278  0.67927322  0.96778615  1
  O  O73  1  0.15260475  0.47385735  0.97138841  1
  O  O74  1  0.31585088  0.84374732  0.97123562  1
  O  O75  1  0.50731574  0.85106395  0.47476020  1
  O  O76  1  0.35001126  0.50235917  0.47155086  1
  O  O77  1  0.15663885  0.65670671  0.47134092  1
  O  O78  1  0.13267215  0.63726736  0.35625186  1
  O  O79  1  0.50157993  0.86316320  0.35809140  1
  O  O80  1  0.36171528  0.49512750  0.35607184  1
  O  O81  1  0.13506605  0.49592163  0.85663594  1
  O  O82  1  0.36181069  0.86562503  0.85689173  1
  O  O83  1  0.50749333  0.63769953  0.85480708  1
  O  O84  1  0.01570004  0.81311855  0.42283061  1
  O  O85  1  0.79843121  0.98638297  0.42289346  1
  O  O86  1  0.18824777  0.20415988  0.42285167  1
  O  O87  1  0.01380894  0.18811529  0.91130804  1
  O  O88  1  0.17307401  0.98601156  0.91139268  1
  O  O89  1  0.81140974  0.82745178  0.91171286  1
  O  O90  1  0.96436601  0.14978881  0.58546415  1
  O  O91  1  0.18302566  0.02600025  0.58795543  1
  O  O92  1  0.84204210  0.82209344  0.58559776  1
  O  O93  1  0.98678486  0.82396609  0.08761671  1
  O  O94  1  0.84450761  0.02668198  0.08779628  1
  O  O95  1  0.17718927  0.15657800  0.08545941  1
  O  O96  1  0.68983977  0.15282706  0.75416136  1
  O  O97  1  0.46012958  0.30713372  0.75345482  1
  O  O98  1  0.84713341  0.53836059  0.75454868  1
  O  O99  1  0.66156473  0.51389301  0.24168118  1
  O  O100  1  0.85166156  0.34005955  0.24133573  1
  O  O101  1  0.48902867  0.14866177  0.24228750  1
  O  O102  1  0.64010151  0.49261736  0.92501844  1
  O  O103  1  0.85022402  0.35814715  0.92370919  1
  O  O104  1  0.50671301  0.14769046  0.92513410  1
  O  O105  1  0.62350259  0.14694875  0.42200675  1
  O  O106  1  0.52450921  0.37778425  0.42176629  1
  O  O107  1  0.85518213  0.47689734  0.42316010  1
  O  O108  1  0.31922257  0.48557234  0.06789608  1
  O  O109  1  0.16383724  0.67566378  0.06665697  1
  O  O110  1  0.50872507  0.84075057  0.06517154  1
  O  O111  1  0.33121911  0.84237588  0.57044575  1
  O  O112  1  0.51719782  0.68022448  0.57246141  1
  O  O113  1  0.15958192  0.48354702  0.57120265  1
  O  O114  1  0.29118309  0.81067836  0.25195129  1
  O  O115  1  0.52093614  0.71184850  0.25170886  1
  O  O116  1  0.18997643  0.48101394  0.25172933  1
  O  O117  1  0.28922703  0.47505983  0.75444765  1
  O  O118  1  0.18518467  0.71028681  0.75463104  1
  O  O119  1  0.52361850  0.81572645  0.75486042  1
