# generated using pymatgen
data_Na6TaGa3Si4(SO12)2
_symmetry_space_group_name_H-M   'P 1'
_cell_length_a   8.89407630
_cell_length_b   8.95210537
_cell_length_c   22.20588336
_cell_angle_alpha   89.54802713
_cell_angle_beta   89.73060917
_cell_angle_gamma   120.04436788
_symmetry_Int_Tables_number   1
_chemical_formula_structural   Na6TaGa3Si4(SO12)2
_chemical_formula_sum   'Na18 Ta3 Ga9 Si12 S6 O72'
_cell_volume   1530.36554768
_cell_formula_units_Z   3
loop_
 _symmetry_equiv_pos_site_id
 _symmetry_equiv_pos_as_xyz
  1  'x, y, z'
loop_
 _atom_site_type_symbol
 _atom_site_label
 _atom_site_symmetry_multiplicity
 _atom_site_fract_x
 _atom_site_fract_y
 _atom_site_fract_z
 _atom_site_occupancy
  Na  Na0  1  0.62456892  0.99821251  0.25189786  1
  Na  Na1  1  0.63869565  0.62625322  0.75108691  1
  Na  Na2  1  0.00006431  0.36457300  0.74355727  1
  Na  Na3  1  0.29678533  0.34095618  0.58550071  1
  Na  Na4  1  0.02950605  0.69818632  0.58730425  1
  Na  Na5  1  0.67379283  0.96390182  0.57719245  1
  Na  Na6  1  0.29680835  0.95190320  0.08766016  1
  Na  Na7  1  0.66713664  0.70678371  0.07837674  1
  Na  Na8  1  0.03180814  0.33546993  0.08374027  1
  Na  Na9  1  0.97175658  0.68054463  0.91376493  1
  Na  Na10  1  0.32752595  0.29560290  0.91116227  1
  Na  Na11  1  0.68951250  0.67172818  0.41237244  1
  Na  Na12  1  0.00169191  0.02032331  0.49507126  1
  Na  Na13  1  0.98396598  0.99445287  0.99554676  1
  Na  Na14  1  0.65303513  0.32021161  0.82849091  1
  Na  Na15  1  0.64258098  0.31828739  0.32769898  1
  Na  Na16  1  0.31851060  0.67060034  0.17019454  1
  Na  Na17  1  0.32728966  0.66174951  0.66336176  1
  Ta  Ta18  1  0.68000187  0.33420263  0.97756824  1
  Ta  Ta19  1  0.67188301  0.33322931  0.47633220  1
  Ta  Ta20  1  0.32700120  0.66384800  0.81407490  1
  Ga  Ga21  1  0.02317530  0.03175251  0.35354042  1
  Ga  Ga22  1  0.01073830  0.99756757  0.85489703  1
  Ga  Ga23  1  0.00211039  0.00433870  0.64903783  1
  Ga  Ga24  1  0.99598986  0.97681334  0.14910164  1
  Ga  Ga25  1  0.67789887  0.36343260  0.68658034  1
  Ga  Ga26  1  0.65991660  0.31399748  0.18470899  1
  Ga  Ga27  1  0.33238379  0.67715341  0.01619863  1
  Ga  Ga28  1  0.34628209  0.64882858  0.51530517  1
  Ga  Ga29  1  0.34324150  0.68381642  0.31756810  1
  Si  Si30  1  0.28795524  0.99780272  0.24990714  1
  Si  Si31  1  0.29269161  0.28194857  0.74875663  1
  Si  Si32  1  0.00393513  0.71926139  0.74897200  1
  Si  Si33  1  0.96073974  0.33643946  0.58655288  1
  Si  Si34  1  0.67019926  0.63302869  0.58379100  1
  Si  Si35  1  0.95618539  0.61945821  0.08709576  1
  Si  Si36  1  0.66778165  0.03369213  0.08733833  1
  Si  Si37  1  0.62651090  0.67643325  0.91915199  1
  Si  Si38  1  0.04781064  0.36927741  0.92001166  1
  Si  Si39  1  0.33466370  0.95789056  0.91864135  1
  Si  Si40  1  0.62961993  0.95588943  0.41464316  1
  Si  Si41  1  0.32667817  0.37783207  0.41505937  1
  S  S42  1  0.70548666  0.70147825  0.25042160  1
  S  S43  1  0.00359359  0.29406705  0.24894270  1
  S  S44  1  0.70899791  0.00109803  0.74933206  1
  S  S45  1  0.38059914  0.04706830  0.58398277  1
  S  S46  1  0.37685320  0.33254829  0.08468972  1
  S  S47  1  0.04921564  0.67024877  0.41791693  1
  O  O48  1  0.18909918  0.02172058  0.30713149  1
  O  O49  1  0.80701224  0.78428709  0.30450813  1
  O  O50  1  0.96589491  0.17781289  0.30221520  1
  O  O51  1  0.20215046  0.17824739  0.81033247  1
  O  O52  1  0.96316026  0.79747447  0.80837413  1
  O  O53  1  0.81673565  0.02711693  0.80217921  1
  O  O54  1  0.77981920  0.96845324  0.69301990  1
  O  O55  1  0.16872661  0.20976292  0.68909477  1
  O  O56  1  0.02896648  0.82683022  0.68654068  1
  O  O57  1  0.78489674  0.81400258  0.19466719  1
  O  O58  1  0.02425787  0.21444235  0.19306390  1
  O  O59  1  0.18236259  0.97531917  0.18613286  1
  O  O60  1  0.86863601  0.36323259  0.64627232  1
  O  O61  1  0.48838511  0.12474278  0.63697413  1
  O  O62  1  0.62426708  0.50885772  0.64284545  1
  O  O63  1  0.85240636  0.48847088  0.14222431  1
  O  O64  1  0.62267130  0.11340816  0.14508362  1
  O  O65  1  0.48582470  0.35815164  0.13730677  1
  O  O66  1  0.45857550  0.30787676  0.02876525  1
  O  O67  1  0.83447956  0.53220669  0.02540721  1
  O  O68  1  0.69785287  0.16893532  0.02924673  1
  O  O69  1  0.46502304  0.15651723  0.52843192  1
  O  O70  1  0.69552074  0.53099811  0.52556098  1
  O  O71  1  0.82796127  0.30474117  0.52933404  1
  O  O72  1  0.53433182  0.69138811  0.97949640  1
  O  O73  1  0.16412067  0.45840109  0.97850100  1
  O  O74  1  0.29294530  0.84144085  0.97872467  1
  O  O75  1  0.54015678  0.83885936  0.47594711  1
  O  O76  1  0.30030835  0.44659787  0.48001338  1
  O  O77  1  0.14587187  0.68845962  0.47370246  1
  O  O78  1  0.12335799  0.63859096  0.36352841  1
  O  O79  1  0.51468973  0.88442075  0.35458807  1
  O  O80  1  0.37124759  0.51433955  0.35970111  1
  O  O81  1  0.13225038  0.49774787  0.85942005  1
  O  O82  1  0.36455591  0.86131677  0.86023703  1
  O  O83  1  0.50189437  0.63651660  0.85872633  1
  O  O84  1  0.01286581  0.81215003  0.41284481  1
  O  O85  1  0.81972617  0.96746248  0.40703174  1
  O  O86  1  0.16489148  0.18349677  0.41210951  1
  O  O87  1  0.02308563  0.18217754  0.91003529  1
  O  O88  1  0.16607008  0.98028776  0.91208849  1
  O  O89  1  0.82085501  0.83607996  0.91101879  1
  O  O90  1  0.97870586  0.16222489  0.58881060  1
  O  O91  1  0.20840735  0.03604745  0.58557535  1
  O  O92  1  0.84709418  0.82292842  0.58758777  1
  O  O93  1  0.97272470  0.81108721  0.08791539  1
  O  O94  1  0.85073778  0.02868729  0.09239306  1
  O  O95  1  0.20214557  0.17597585  0.08745896  1
  O  O96  1  0.68491080  0.15128460  0.74360829  1
  O  O97  1  0.48943934  0.31049388  0.74346188  1
  O  O98  1  0.83664828  0.51801605  0.74720814  1
  O  O99  1  0.68885115  0.53044084  0.24382848  1
  O  O100  1  0.84218110  0.30744676  0.24625847  1
  O  O101  1  0.48932899  0.17229020  0.24510916  1
  O  O102  1  0.63682037  0.49370283  0.92417020  1
  O  O103  1  0.86041208  0.36830717  0.92185271  1
  O  O104  1  0.50491880  0.15296882  0.92404043  1
  O  O105  1  0.65248260  0.15112152  0.42545852  1
  O  O106  1  0.51141477  0.36590907  0.42342075  1
  O  O107  1  0.86837856  0.50674251  0.42229221  1
  O  O108  1  0.35898680  0.48733295  0.08038816  1
  O  O109  1  0.14682182  0.63471529  0.08061415  1
  O  O110  1  0.49794910  0.84265735  0.07891209  1
  O  O111  1  0.35624574  0.87232219  0.57699610  1
  O  O112  1  0.49765649  0.65549702  0.57971924  1
  O  O113  1  0.14881492  0.51610813  0.57791920  1
  O  O114  1  0.31491853  0.82471540  0.25580873  1
  O  O115  1  0.53084292  0.68849999  0.25214865  1
  O  O116  1  0.15875112  0.46536458  0.25569059  1
  O  O117  1  0.31875704  0.48480145  0.75553344  1
  O  O118  1  0.17600705  0.69132719  0.75444695  1
  O  O119  1  0.53496069  0.83815551  0.75484302  1
