# generated using pymatgen
data_Na6Ti3ZnSi2(PO6)4
_symmetry_space_group_name_H-M   'P 1'
_cell_length_a   8.91024560
_cell_length_b   8.92199996
_cell_length_c   21.91435459
_cell_angle_alpha   89.81532744
_cell_angle_beta   90.26838320
_cell_angle_gamma   119.96998122
_symmetry_Int_Tables_number   1
_chemical_formula_structural   Na6Ti3ZnSi2(PO6)4
_chemical_formula_sum   'Na18 Ti9 Zn3 Si6 P12 O72'
_cell_volume   1509.16772191
_cell_formula_units_Z   3
loop_
 _symmetry_equiv_pos_site_id
 _symmetry_equiv_pos_as_xyz
  1  'x, y, z'
loop_
 _atom_site_type_symbol
 _atom_site_label
 _atom_site_symmetry_multiplicity
 _atom_site_fract_x
 _atom_site_fract_y
 _atom_site_fract_z
 _atom_site_occupancy
  Na  Na0  1  0.00825100  0.00097957  0.49960211  1
  Na  Na1  1  0.99883060  0.00108297  0.99977448  1
  Na  Na2  1  0.65144524  0.30389076  0.82990821  1
  Na  Na3  1  0.65251011  0.33393726  0.32480033  1
  Na  Na4  1  0.32931576  0.66535681  0.16341206  1
  Na  Na5  1  0.32129899  0.66520434  0.66543463  1
  Na  Na6  1  0.64465284  0.01353472  0.24325131  1
  Na  Na7  1  0.98734991  0.62247610  0.24298907  1
  Na  Na8  1  0.62690826  0.61559664  0.74412722  1
  Na  Na9  1  0.99353582  0.37258382  0.74525615  1
  Na  Na10  1  0.66586569  0.97451008  0.58738727  1
  Na  Na11  1  0.66084120  0.68865350  0.08223554  1
  Na  Na12  1  0.02701876  0.33852737  0.08711646  1
  Na  Na13  1  0.96677846  0.66925764  0.91644049  1
  Na  Na14  1  0.33600043  0.30173817  0.91773519  1
  Na  Na15  1  0.96219281  0.28536720  0.41097869  1
  Na  Na16  1  0.32702272  0.03625974  0.41189628  1
  Na  Na17  1  0.71708423  0.68056087  0.41334212  1
  Ti  Ti18  1  0.99633420  0.00229092  0.85688940  1
  Ti  Ti19  1  0.00357351  0.99325715  0.64445359  1
  Ti  Ti20  1  0.00798071  0.99925797  0.14789100  1
  Ti  Ti21  1  0.67128930  0.33651861  0.97878439  1
  Ti  Ti22  1  0.66915250  0.33635889  0.48453446  1
  Ti  Ti23  1  0.32935240  0.67058803  0.01653934  1
  Ti  Ti24  1  0.34051886  0.66797277  0.52189442  1
  Ti  Ti25  1  0.33791154  0.66869018  0.31208535  1
  Ti  Ti26  1  0.33532408  0.67432378  0.81524926  1
  Zn  Zn27  1  0.99711828  0.99924254  0.34928783  1
  Zn  Zn28  1  0.65488471  0.32781421  0.68173488  1
  Zn  Zn29  1  0.66632811  0.33392290  0.17823276  1
  Si  Si30  1  0.66720549  0.62603944  0.58703830  1
  Si  Si31  1  0.96574125  0.63003271  0.08512975  1
  Si  Si32  1  0.62234246  0.66912267  0.91692791  1
  Si  Si33  1  0.04183205  0.37706010  0.91572024  1
  Si  Si34  1  0.33955204  0.96151343  0.91554457  1
  Si  Si35  1  0.62381996  0.96251851  0.41712186  1
  P  P36  1  0.29307380  -0.00015700  0.25423612  1
  P  P37  1  0.70339371  0.70555705  0.25149799  1
  P  P38  1  0.00569554  0.29594375  0.25208178  1
  P  P39  1  0.28465745  0.28541811  0.75126007  1
  P  P40  1  0.00828268  0.71635334  0.75180461  1
  P  P41  1  0.71010495  0.99520953  0.74851036  1
  P  P42  1  0.96450669  0.33718545  0.58604662  1
  P  P43  1  0.37328135  0.04047657  0.58297821  1
  P  P44  1  0.66386193  0.03892132  0.08556542  1
  P  P45  1  0.37251672  0.33192054  0.08272146  1
  P  P46  1  0.34086642  0.38463829  0.41773659  1
  P  P47  1  0.04515707  0.65968237  0.41684779  1
  O  O48  1  0.21572508  0.01526110  0.31417475  1
  O  O49  1  0.80452368  0.78269726  0.31093393  1
  O  O50  1  0.98411090  0.19418808  0.31114140  1
  O  O51  1  0.19093952  0.18603605  0.81032193  1
  O  O52  1  0.99705531  0.81111512  0.80917336  1
  O  O53  1  0.82605403  0.00727011  0.80416505  1
  O  O54  1  0.79867214  0.97676657  0.68960524  1
  O  O55  1  0.16839279  0.18529306  0.69538899  1
  O  O56  1  0.01521365  0.82439694  0.69406141  1
  O  O57  1  0.80027552  0.82762732  0.19559065  1
  O  O58  1  0.01903244  0.19841515  0.19479683  1
  O  O59  1  0.16811834  0.98079811  0.19947127  1
  O  O60  1  0.88972348  0.36272254  0.64473744  1
  O  O61  1  0.49395095  0.10975309  0.63767195  1
  O  O62  1  0.63461202  0.52038686  0.64870559  1
  O  O63  1  0.89396744  0.51354568  0.14546653  1
  O  O64  1  0.63900376  0.10618812  0.14618198  1
  O  O65  1  0.48756297  0.36774682  0.13800277  1
  O  O66  1  0.45221627  0.30673003  0.02336895  1
  O  O67  1  0.83282831  0.53374447  0.02641418  1
  O  O68  1  0.68780572  0.16583467  0.03245821  1
  O  O69  1  0.46302353  0.15423036  0.52460952  1
  O  O70  1  0.68900755  0.52350715  0.52677002  1
  O  O71  1  0.83637228  0.30678903  0.53010638  1
  O  O72  1  0.53250505  0.69384842  0.97734250  1
  O  O73  1  0.16732926  0.46658876  0.97487356  1
  O  O74  1  0.29775579  0.82720139  0.97213297  1
  O  O75  1  0.51998639  0.83926512  0.47554773  1
  O  O76  1  0.32044968  0.47570090  0.47397873  1
  O  O77  1  0.16023116  0.67509429  0.47127009  1
  O  O78  1  0.12698943  0.63477589  0.35729208  1
  O  O79  1  0.49809601  0.86236783  0.35646124  1
  O  O80  1  0.35964281  0.49824116  0.36044462  1
  O  O81  1  0.13213611  0.50257450  0.85570838  1
  O  O82  1  0.36625124  0.86451298  0.85608556  1
  O  O83  1  0.49628508  0.63295731  0.85674826  1
  O  O84  1  0.02512951  0.82098426  0.41578031  1
  O  O85  1  0.81357880  0.98053003  0.41643735  1
  O  O86  1  0.18272803  0.20187895  0.41539670  1
  O  O87  1  0.02525419  0.18673031  0.91053611  1
  O  O88  1  0.16523882  0.97978455  0.91026089  1
  O  O89  1  0.81919403  0.83374436  0.91017490  1
  O  O90  1  0.97469258  0.16749741  0.58646159  1
  O  O91  1  0.19486801  0.02940668  0.58846372  1
  O  O92  1  0.84106126  0.82369390  0.58782216  1
  O  O93  1  0.97489680  0.82051301  0.09196502  1
  O  O94  1  0.83568650  0.02789589  0.08686440  1
  O  O95  1  0.18520937  0.16996807  0.08989272  1
  O  O96  1  0.69868783  0.16024532  0.74829812  1
  O  O97  1  0.46605916  0.30751373  0.75110543  1
  O  O98  1  0.84625045  0.53525834  0.75173410  1
  O  O99  1  0.68013417  0.52530403  0.24426036  1
  O  O100  1  0.84520179  0.31843950  0.24839678  1
  O  O101  1  0.47763286  0.14836328  0.24628403  1
  O  O102  1  0.64093757  0.49474954  0.92245021  1
  O  O103  1  0.85367951  0.36346561  0.92421927  1
  O  O104  1  0.50560713  0.15327733  0.92335950  1
  O  O105  1  0.63531779  0.15224042  0.42120368  1
  O  O106  1  0.51084162  0.37566445  0.42040129  1
  O  O107  1  0.86241924  0.49309756  0.42180486  1
  O  O108  1  0.34575892  0.49202392  0.07743930  1
  O  O109  1  0.15743262  0.65141434  0.07503179  1
  O  O110  1  0.51193342  0.85207074  0.07639893  1
  O  O111  1  0.34255345  0.85441201  0.57312674  1
  O  O112  1  0.50259897  0.66183649  0.57702378  1
  O  O113  1  0.14476781  0.49429466  0.57442702  1
  O  O114  1  0.29410908  0.82238933  0.25240998  1
  O  O115  1  0.52476311  0.70249107  0.25328285  1
  O  O116  1  0.17226727  0.47965065  0.25348351  1
  O  O117  1  0.29471103  0.46635092  0.75084130  1
  O  O118  1  0.17377723  0.69985082  0.75085790  1
  O  O119  1  0.53267778  0.82433862  0.75219941  1
