# generated using pymatgen
data_TaGa3SiS5O24
_symmetry_space_group_name_H-M   'P 1'
_cell_length_a   8.56032670
_cell_length_b   8.59322205
_cell_length_c   22.24634516
_cell_angle_alpha   90.18914763
_cell_angle_beta   89.92566244
_cell_angle_gamma   119.99745316
_symmetry_Int_Tables_number   1
_chemical_formula_structural   TaGa3SiS5O24
_chemical_formula_sum   'Ta3 Ga9 Si3 S15 O72'
_cell_volume   1417.24332163
_cell_formula_units_Z   3
loop_
 _symmetry_equiv_pos_site_id
 _symmetry_equiv_pos_as_xyz
  1  'x, y, z'
loop_
 _atom_site_type_symbol
 _atom_site_label
 _atom_site_symmetry_multiplicity
 _atom_site_fract_x
 _atom_site_fract_y
 _atom_site_fract_z
 _atom_site_occupancy
  Ta  Ta0  1  0.67219861  0.33866830  0.97545659  1
  Ta  Ta1  1  0.33257521  0.67260738  0.30766808  1
  Ta  Ta2  1  0.32985143  0.65738846  0.81223720  1
  Ga  Ga3  1  0.01130973  0.00447861  0.35051866  1
  Ga  Ga4  1  0.99169871  0.99954063  0.85914914  1
  Ga  Ga5  1  0.99919547  0.99875958  0.64616427  1
  Ga  Ga6  1  0.00804414  0.99651829  0.14369330  1
  Ga  Ga7  1  0.66835492  0.33439648  0.68582785  1
  Ga  Ga8  1  0.65463392  0.32195646  0.18601304  1
  Ga  Ga9  1  0.66521807  0.33306742  0.48097445  1
  Ga  Ga10  1  0.33840190  0.65672770  0.01928710  1
  Ga  Ga11  1  0.33360289  0.66528076  0.52121310  1
  Si  Si12  1  0.28799454  0.01845044  0.24762390  1
  Si  Si13  1  0.62575482  0.67712029  0.91962794  1
  Si  Si14  1  0.05332209  0.37427341  0.91947965  1
  S  S15  1  0.71924905  0.71200534  0.24928537  1
  S  S16  1  0.99191406  0.28215029  0.24955289  1
  S  S17  1  0.28894203  0.28143630  0.74801262  1
  S  S18  1  0.99578822  0.71260631  0.74797437  1
  S  S19  1  0.71410373  0.00653075  0.74737736  1
  S  S20  1  0.95672432  0.33257511  0.58304407  1
  S  S21  1  0.37614219  0.04286482  0.58311086  1
  S  S22  1  0.66719304  0.62375329  0.58328830  1
  S  S23  1  0.95813756  0.62344781  0.08581768  1
  S  S24  1  0.66650363  0.03786016  0.08479602  1
  S  S25  1  0.37415920  0.33444657  0.08488803  1
  S  S26  1  0.32752095  0.95035835  0.91774877  1
  S  S27  1  0.62776217  0.95863361  0.41801366  1
  S  S28  1  0.33319907  0.37549116  0.41864708  1
  S  S29  1  0.04027343  0.66552308  0.41898747  1
  O  O30  1  0.20643524  0.03795733  0.31072690  1
  O  O31  1  0.81992292  0.79008781  0.30546414  1
  O  O32  1  0.95937414  0.17645252  0.30499867  1
  O  O33  1  0.21175181  0.17420190  0.80171924  1
  O  O34  1  0.96699371  0.79147154  0.80189801  1
  O  O35  1  0.82438779  0.03849090  0.80088044  1
  O  O36  1  0.78946623  0.96763169  0.69298679  1
  O  O37  1  0.17612648  0.20792132  0.69348780  1
  O  O38  1  0.03105183  0.82384267  0.69329879  1
  O  O39  1  0.78435583  0.82695362  0.19631443  1
  O  O40  1  0.03450470  0.21123715  0.19616142  1
  O  O41  1  0.15660042  0.95583711  0.19043316  1
  O  O42  1  0.87781867  0.36891506  0.63723313  1
  O  O43  1  0.49094679  0.12228669  0.63727620  1
  O  O44  1  0.63088858  0.50899665  0.63722674  1
  O  O45  1  0.87361245  0.50879440  0.13906663  1
  O  O46  1  0.63785109  0.12247754  0.13853856  1
  O  O47  1  0.48981565  0.36799462  0.13828202  1
  O  O48  1  0.45880939  0.30073340  0.03117368  1
  O  O49  1  0.83935929  0.53363085  0.03109479  1
  O  O50  1  0.69798001  0.15458316  0.03079829  1
  O  O51  1  0.45494804  0.15656354  0.52890459  1
  O  O52  1  0.70282962  0.54536021  0.52888082  1
  O  O53  1  0.84249159  0.29760169  0.52879728  1
  O  O54  1  0.54185983  0.71426194  0.97742668  1
  O  O55  1  0.16323548  0.46774906  0.97832274  1
  O  O56  1  0.29672163  0.84471050  0.97171737  1
  O  O57  1  0.54572443  0.84398687  0.47153004  1
  O  O58  1  0.30208983  0.45907156  0.47270646  1
  O  O59  1  0.15771843  0.69986505  0.47215224  1
  O  O60  1  0.12688963  0.63349264  0.36478601  1
  O  O61  1  0.50866033  0.87134135  0.36396586  1
  O  O62  1  0.36550700  0.49043134  0.36471640  1
  O  O63  1  0.13142363  0.50647677  0.85796480  1
  O  O64  1  0.36834233  0.87419194  0.86212746  1
  O  O65  1  0.49583932  0.63394002  0.85816478  1
  O  O66  1  0.01922918  0.82277284  0.41023387  1
  O  O67  1  0.80505601  0.97573585  0.40701048  1
  O  O68  1  0.16939456  0.19905024  0.41144517  1
  O  O69  1  0.03630124  0.18847797  0.90450094  1
  O  O70  1  0.17616478  0.97455833  0.90607993  1
  O  O71  1  0.82180288  0.83053727  0.90495371  1
  O  O72  1  0.97529164  0.17217865  0.59168410  1
  O  O73  1  0.19655239  0.02480256  0.59179057  1
  O  O74  1  0.82838409  0.80306422  0.59163905  1
  O  O75  1  0.96245474  0.79642546  0.08913355  1
  O  O76  1  0.83122745  0.02487863  0.09258346  1
  O  O77  1  0.19537456  0.17209676  0.08998446  1
  O  O78  1  0.69284988  0.16600934  0.73902696  1
  O  O79  1  0.47252902  0.30880783  0.73969587  1
  O  O80  1  0.83710108  0.53035252  0.73991456  1
  O  O81  1  0.69649634  0.53397326  0.24136081  1
  O  O82  1  0.84385281  0.31716704  0.24176514  1
  O  O83  1  0.49167290  0.17719563  0.24101059  1
  O  O84  1  0.63034085  0.48823633  0.92723319  1
  O  O85  1  0.85244177  0.35402472  0.92643685  1
  O  O86  1  0.49404468  0.12987748  0.92491522  1
  O  O87  1  0.64025270  0.13524738  0.42523408  1
  O  O88  1  0.49694275  0.36006751  0.42611605  1
  O  O89  1  0.86366458  0.49971094  0.42563838  1
  O  O90  1  0.35862737  0.49556225  0.07912328  1
  O  O91  1  0.13667535  0.64538288  0.07693441  1
  O  O92  1  0.50289162  0.86329414  0.07700733  1
  O  O93  1  0.35869542  0.86365501  0.57440325  1
  O  O94  1  0.50493721  0.64136760  0.57487303  1
  O  O95  1  0.13614254  0.49500891  0.57472106  1
  O  O96  1  0.30823573  0.83223497  0.26150526  1
  O  O97  1  0.53156324  0.68875821  0.26044162  1
  O  O98  1  0.16208087  0.46439814  0.26063094  1
  O  O99  1  0.30726177  0.46508564  0.75453151  1
  O  O100  1  0.16063897  0.69575590  0.75463544  1
  O  O101  1  0.53072381  0.84578799  0.75510372  1
