# generated using pymatgen
data_NaLaNb(PO4)3
_symmetry_space_group_name_H-M   'P 1'
_cell_length_a   9.21449399
_cell_length_b   9.21449366
_cell_length_c   23.55675048
_cell_angle_alpha   90.00000000
_cell_angle_beta   90.00000000
_cell_angle_gamma   120.00000115
_symmetry_Int_Tables_number   1
_chemical_formula_structural   NaLaNb(PO4)3
_chemical_formula_sum   'Na6 La6 Nb6 P18 O72'
_cell_volume   1732.16386764
_cell_formula_units_Z   6
loop_
 _symmetry_equiv_pos_site_id
 _symmetry_equiv_pos_as_xyz
  1  'x, y, z'
loop_
 _atom_site_type_symbol
 _atom_site_label
 _atom_site_symmetry_multiplicity
 _atom_site_fract_x
 _atom_site_fract_y
 _atom_site_fract_z
 _atom_site_occupancy
  Na  Na0  1  -0.00000000  0.00000000  0.50112064  1
  Na  Na1  1  -0.00000000  0.00000000  0.00112064  1
  Na  Na2  1  0.66666700  0.33333300  0.83445364  1
  Na  Na3  1  0.66666700  0.33333300  0.33445364  1
  Na  Na4  1  0.33333300  0.66666700  0.16778764  1
  Na  Na5  1  0.33333300  0.66666700  0.66778764  1
  La  La6  1  -0.00000000  0.00000000  0.35491880  1
  La  La7  1  -0.00000000  0.00000000  0.85491880  1
  La  La8  1  0.66666700  0.33333300  0.68825180  1
  La  La9  1  0.66666700  0.33333300  0.18825180  1
  La  La10  1  0.33333300  0.66666700  0.02158580  1
  La  La11  1  0.33333300  0.66666700  0.52158580  1
  Nb  Nb12  1  -0.00000000  0.00000000  0.64853775  1
  Nb  Nb13  1  -0.00000000  0.00000000  0.14853775  1
  Nb  Nb14  1  0.66666700  0.33333300  0.98187075  1
  Nb  Nb15  1  0.66666700  0.33333300  0.48187075  1
  Nb  Nb16  1  0.33333300  0.66666700  0.31520475  1
  Nb  Nb17  1  0.33333300  0.66666700  0.81520475  1
  P  P18  1  0.28184895  0.97687656  0.24980739  1
  P  P19  1  0.69502761  0.71815105  0.24980739  1
  P  P20  1  0.02312344  0.30497239  0.24980739  1
  P  P21  1  0.28184895  0.30497239  0.74980739  1
  P  P22  1  0.02312344  0.71815105  0.74980739  1
  P  P23  1  0.69502761  0.97687656  0.74980739  1
  P  P24  1  0.94851595  0.31020956  0.58314039  1
  P  P25  1  0.36169461  0.05148405  0.58314039  1
  P  P26  1  0.68979044  0.63830539  0.58314039  1
  P  P27  1  0.94851595  0.63830539  0.08314039  1
  P  P28  1  0.68979044  0.05148405  0.08314039  1
  P  P29  1  0.36169461  0.31020956  0.08314039  1
  P  P30  1  0.61518195  0.64354356  0.91647439  1
  P  P31  1  0.02836061  0.38481805  0.91647439  1
  P  P32  1  0.35645644  0.97163939  0.91647439  1
  P  P33  1  0.61518195  0.97163939  0.41647439  1
  P  P34  1  0.35645644  0.38481805  0.41647439  1
  P  P35  1  0.02836061  0.64354356  0.41647439  1
  O  O36  1  0.20893475  0.00424709  0.30296317  1
  O  O37  1  0.79531234  0.79106525  0.30296317  1
  O  O38  1  0.99575291  0.20468766  0.30296317  1
  O  O39  1  0.20893475  0.20468766  0.80296317  1
  O  O40  1  0.99575291  0.79106525  0.80296317  1
  O  O41  1  0.79531234  0.00424709  0.80296317  1
  O  O42  1  0.79964051  0.96356976  0.69654298  1
  O  O43  1  0.16392925  0.20035949  0.69654298  1
  O  O44  1  0.03643024  0.83607075  0.69654298  1
  O  O45  1  0.79964051  0.83607075  0.19654298  1
  O  O46  1  0.03643024  0.20035949  0.19654298  1
  O  O47  1  0.16392925  0.96356976  0.19654298  1
  O  O48  1  0.87560175  0.33758009  0.63629617  1
  O  O49  1  0.46197934  0.12439825  0.63629617  1
  O  O50  1  0.66241991  0.53802066  0.63629617  1
  O  O51  1  0.87560175  0.53802066  0.13629617  1
  O  O52  1  0.66241991  0.12439825  0.13629617  1
  O  O53  1  0.46197934  0.33758009  0.13629617  1
  O  O54  1  0.46630751  0.29690276  0.02987598  1
  O  O55  1  0.83059625  0.53369249  0.02987598  1
  O  O56  1  0.70309724  0.16940375  0.02987598  1
  O  O57  1  0.46630751  0.16940375  0.52987598  1
  O  O58  1  0.70309724  0.53369249  0.52987598  1
  O  O59  1  0.83059625  0.29690276  0.52987598  1
  O  O60  1  0.54226775  0.67091409  0.96963017  1
  O  O61  1  0.12864534  0.45773225  0.96963017  1
  O  O62  1  0.32908591  0.87135466  0.96963017  1
  O  O63  1  0.54226775  0.87135466  0.46963017  1
  O  O64  1  0.32908591  0.45773225  0.46963017  1
  O  O65  1  0.12864534  0.67091409  0.46963017  1
  O  O66  1  0.13297351  0.63023676  0.36320998  1
  O  O67  1  0.49726225  0.86702649  0.36320998  1
  O  O68  1  0.36976324  0.50273775  0.36320998  1
  O  O69  1  0.13297351  0.50273775  0.86320998  1
  O  O70  1  0.36976324  0.86702649  0.86320998  1
  O  O71  1  0.49726225  0.63023676  0.86320998  1
  O  O72  1  0.99083507  0.78447491  0.40922915  1
  O  O73  1  0.79363984  0.00916493  0.40922915  1
  O  O74  1  0.21552509  0.20636016  0.40922915  1
  O  O75  1  0.99083507  0.20636016  0.90922915  1
  O  O76  1  0.21552509  0.00916493  0.90922915  1
  O  O77  1  0.79363984  0.78447491  0.90922915  1
  O  O78  1  0.95228482  0.14053845  0.58993158  1
  O  O79  1  0.18825364  0.04771518  0.58993158  1
  O  O80  1  0.85946155  0.81174636  0.58993158  1
  O  O81  1  0.95228482  0.81174636  0.08993158  1
  O  O82  1  0.85946155  0.04771518  0.08993158  1
  O  O83  1  0.18825364  0.14053845  0.08993158  1
  O  O84  1  0.65750207  0.11780791  0.74256215  1
  O  O85  1  0.46030684  0.34249793  0.74256215  1
  O  O86  1  0.88219209  0.53969316  0.74256215  1
  O  O87  1  0.65750207  0.53969316  0.24256215  1
  O  O88  1  0.88219209  0.34249793  0.24256215  1
  O  O89  1  0.46030684  0.11780791  0.24256215  1
  O  O90  1  0.61895182  0.47387145  0.92326458  1
  O  O91  1  0.85492064  0.38104818  0.92326458  1
  O  O92  1  0.52612855  0.14507936  0.92326458  1
  O  O93  1  0.61895182  0.14507936  0.42326458  1
  O  O94  1  0.52612855  0.38104818  0.42326458  1
  O  O95  1  0.85492064  0.47387145  0.42326458  1
  O  O96  1  0.32416807  0.45114191  0.07589615  1
  O  O97  1  0.12697284  0.67583193  0.07589615  1
  O  O98  1  0.54885809  0.87302716  0.07589615  1
  O  O99  1  0.32416807  0.87302716  0.57589615  1
  O  O100  1  0.54885809  0.67583193  0.57589615  1
  O  O101  1  0.12697284  0.45114191  0.57589615  1
  O  O102  1  0.28561782  0.80720545  0.25659858  1
  O  O103  1  0.52158664  0.71438218  0.25659858  1
  O  O104  1  0.19279455  0.47841336  0.25659858  1
  O  O105  1  0.28561782  0.47841336  0.75659858  1
  O  O106  1  0.19279455  0.71438218  0.75659858  1
  O  O107  1  0.52158664  0.80720545  0.75659858  1
