# generated using pymatgen
data_CsNbO3
_symmetry_space_group_name_H-M   'P 1'
_cell_length_a   16.04611897
_cell_length_b   5.16960048
_cell_length_c   9.29149747
_cell_angle_alpha   86.83904432
_cell_angle_beta   90.00000000
_cell_angle_gamma   90.00000000
_symmetry_Int_Tables_number   1
_chemical_formula_structural   CsNbO3
_chemical_formula_sum   'Cs8 Nb8 O24'
_cell_volume   769.57588578
_cell_formula_units_Z   8
loop_
 _symmetry_equiv_pos_site_id
 _symmetry_equiv_pos_as_xyz
  1  'x, y, z'
loop_
 _atom_site_type_symbol
 _atom_site_label
 _atom_site_symmetry_multiplicity
 _atom_site_fract_x
 _atom_site_fract_y
 _atom_site_fract_z
 _atom_site_occupancy
  Cs  Cs0  1  0.39306039  0.11645870  0.01193983  1
  Cs  Cs1  1  0.89306039  0.88354130  0.48806017  1
  Cs  Cs2  1  0.60693961  0.88354130  0.98806017  1
  Cs  Cs3  1  0.10693961  0.11645870  0.51193983  1
  Cs  Cs4  1  0.24229293  0.59705965  0.79441718  1
  Cs  Cs5  1  0.74229293  0.40294035  0.70558282  1
  Cs  Cs6  1  0.75770707  0.40294035  0.20558282  1
  Cs  Cs7  1  0.25770707  0.59705965  0.29441718  1
  Nb  Nb8  1  0.50225256  0.52834039  0.68572374  1
  Nb  Nb9  1  0.00225256  0.47165961  0.81427626  1
  Nb  Nb10  1  0.49774744  0.47165961  0.31427626  1
  Nb  Nb11  1  0.99774744  0.52834039  0.18572374  1
  Nb  Nb12  1  0.39514459  0.03884535  0.55350354  1
  Nb  Nb13  1  0.89514459  0.96115465  0.94649646  1
  Nb  Nb14  1  0.60485541  0.96115465  0.44649646  1
  Nb  Nb15  1  0.10485541  0.03884535  0.05350354  1
  O  O16  1  0.39888718  0.25096046  0.36917859  1
  O  O17  1  0.89888718  0.74903954  0.13082141  1
  O  O18  1  0.60111282  0.74903954  0.63082141  1
  O  O19  1  0.10111282  0.25096046  0.86917859  1
  O  O20  1  0.28717456  0.93792802  0.54452366  1
  O  O21  1  0.78717456  0.06207198  0.95547634  1
  O  O22  1  0.71282544  0.06207198  0.45547634  1
  O  O23  1  0.21282544  0.93792802  0.04452366  1
  O  O24  1  0.43514332  0.82315364  0.73582129  1
  O  O25  1  0.93514332  0.17684636  0.76417871  1
  O  O26  1  0.56485668  0.17684636  0.26417871  1
  O  O27  1  0.06485668  0.82315364  0.23582129  1
  O  O28  1  0.46456588  0.74921083  0.46004623  1
  O  O29  1  0.96456588  0.25078917  0.03995377  1
  O  O30  1  0.53543412  0.25078917  0.53995377  1
  O  O31  1  0.03543412  0.74921083  0.96004623  1
  O  O32  1  0.10878513  0.32933570  0.17560794  1
  O  O33  1  0.60878513  0.67066430  0.32439206  1
  O  O34  1  0.89121487  0.67066430  0.82439206  1
  O  O35  1  0.39121487  0.32933570  0.67560794  1
  O  O36  1  0.95417375  0.39125972  0.35233296  1
  O  O37  1  0.45417375  0.60874028  0.14766704  1
  O  O38  1  0.04582625  0.60874028  0.64766704  1
  O  O39  1  0.54582625  0.39125972  0.85233296  1
