# generated using pymatgen
data_K2PdCl6
_symmetry_space_group_name_H-M   'P 1'
_cell_length_a   6.88681302
_cell_length_b   6.88681340
_cell_length_c   6.88681317
_cell_angle_alpha   60.00000106
_cell_angle_beta   59.99999923
_cell_angle_gamma   59.99999574
_symmetry_Int_Tables_number   1
_chemical_formula_structural   K2PdCl6
_chemical_formula_sum   'K2 Pd1 Cl6'
_cell_volume   230.96166312
_cell_formula_units_Z   1
loop_
 _symmetry_equiv_pos_site_id
 _symmetry_equiv_pos_as_xyz
  1  'x, y, z'
loop_
 _atom_site_type_symbol
 _atom_site_label
 _atom_site_symmetry_multiplicity
 _atom_site_fract_x
 _atom_site_fract_y
 _atom_site_fract_z
 _atom_site_occupancy
  K  K0  1  0.75000000  0.75000000  0.75000000  1
  K  K1  1  0.25000000  0.25000000  0.25000000  1
  Pd  Pd2  1  0.00000000  -0.00000000  0.00000000  1
  Cl  Cl3  1  0.23886855  0.76113145  0.76113145  1
  Cl  Cl4  1  0.23886855  0.76113145  0.23886855  1
  Cl  Cl5  1  0.76113145  0.23886855  0.76113145  1
  Cl  Cl6  1  0.76113145  0.23886855  0.23886855  1
  Cl  Cl7  1  0.76113145  0.76113145  0.23886855  1
  Cl  Cl8  1  0.23886855  0.23886855  0.76113145  1
