# generated using pymatgen
data_CaTa5(PO4)9
_symmetry_space_group_name_H-M   'P 1'
_cell_length_a   8.83926131
_cell_length_b   8.83926102
_cell_length_c   22.77860324
_cell_angle_alpha   90.00000000
_cell_angle_beta   90.00000000
_cell_angle_gamma   120.00000106
_symmetry_Int_Tables_number   1
_chemical_formula_structural   CaTa5(PO4)9
_chemical_formula_sum   'Ca2 Ta10 P18 O72'
_cell_volume   1541.30876643
_cell_formula_units_Z   2
loop_
 _symmetry_equiv_pos_site_id
 _symmetry_equiv_pos_as_xyz
  1  'x, y, z'
loop_
 _atom_site_type_symbol
 _atom_site_label
 _atom_site_symmetry_multiplicity
 _atom_site_fract_x
 _atom_site_fract_y
 _atom_site_fract_z
 _atom_site_occupancy
  Ca  Ca0  1  0.66666700  0.33333300  0.69113588  1
  Ca  Ca1  1  0.66666700  0.33333300  0.19113588  1
  Ta  Ta2  1  -0.00000000  -0.00000000  0.35791460  1
  Ta  Ta3  1  -0.00000000  -0.00000000  0.85791460  1
  Ta  Ta4  1  -0.00000000  -0.00000000  0.64304806  1
  Ta  Ta5  1  -0.00000000  -0.00000000  0.14304806  1
  Ta  Ta6  1  0.66666700  0.33333300  0.97879301  1
  Ta  Ta7  1  0.66666700  0.33333300  0.47879301  1
  Ta  Ta8  1  0.33333300  0.66666700  0.02061452  1
  Ta  Ta9  1  0.33333300  0.66666700  0.52061452  1
  Ta  Ta10  1  0.33333300  0.66666700  0.30766252  1
  Ta  Ta11  1  0.33333300  0.66666700  0.80766252  1
  P  P12  1  0.27616290  0.99322750  0.25183292  1
  P  P13  1  0.71706460  0.72383710  0.25183292  1
  P  P14  1  0.00677250  0.28293540  0.25183292  1
  P  P15  1  0.27616290  0.28293540  0.75183292  1
  P  P16  1  0.00677250  0.72383710  0.75183292  1
  P  P17  1  0.71706460  0.99322750  0.75183292  1
  P  P18  1  0.95797478  0.33333286  0.58254728  1
  P  P19  1  0.37535908  0.04202522  0.58254728  1
  P  P20  1  0.66666714  0.62464092  0.58254728  1
  P  P21  1  0.95797478  0.62464092  0.08254728  1
  P  P22  1  0.66666714  0.04202522  0.08254728  1
  P  P23  1  0.37535908  0.33333286  0.08254728  1
  P  P24  1  0.61598322  0.66363346  0.91569280  1
  P  P25  1  0.04764924  0.38401678  0.91569280  1
  P  P26  1  0.33636654  0.95235076  0.91569280  1
  P  P27  1  0.61598322  0.95235076  0.41569280  1
  P  P28  1  0.33636654  0.38401678  0.41569280  1
  P  P29  1  0.04764924  0.66363346  0.41569280  1
  O  O30  1  0.17617349  0.00387957  0.30662362  1
  O  O31  1  0.82770608  0.82382651  0.30662362  1
  O  O32  1  0.99612043  0.17229392  0.30662362  1
  O  O33  1  0.17617349  0.17229392  0.80662362  1
  O  O34  1  0.99612043  0.82382651  0.80662362  1
  O  O35  1  0.82770608  0.00387957  0.80662362  1
  O  O36  1  0.80309491  0.96391266  0.69616093  1
  O  O37  1  0.16081775  0.19690509  0.69616093  1
  O  O38  1  0.03608734  0.83918225  0.69616093  1
  O  O39  1  0.80309491  0.83918225  0.19616093  1
  O  O40  1  0.03608734  0.19690509  0.19616093  1
  O  O41  1  0.16081775  0.96391266  0.19616093  1
  O  O42  1  0.89925053  0.38067661  0.63690555  1
  O  O43  1  0.48142708  0.10074947  0.63690555  1
  O  O44  1  0.61932339  0.51857292  0.63690555  1
  O  O45  1  0.89925053  0.51857292  0.13690555  1
  O  O46  1  0.61932339  0.10074947  0.13690555  1
  O  O47  1  0.48142708  0.38067661  0.13690555  1
  O  O48  1  0.46778589  0.30340005  0.02789103  1
  O  O49  1  0.83561516  0.53221411  0.02789103  1
  O  O50  1  0.69659995  0.16438484  0.02789103  1
  O  O51  1  0.46778589  0.16438484  0.52789103  1
  O  O52  1  0.69659995  0.53221411  0.52789103  1
  O  O53  1  0.83561516  0.30340005  0.52789103  1
  O  O54  1  0.53093560  0.69477055  0.96943574  1
  O  O55  1  0.16383395  0.46906440  0.96943574  1
  O  O56  1  0.30522945  0.83616605  0.96943574  1
  O  O57  1  0.53093560  0.83616605  0.46943574  1
  O  O58  1  0.30522945  0.46906440  0.46943574  1
  O  O59  1  0.16383395  0.69477055  0.46943574  1
  O  O60  1  0.13453286  0.63354971  0.36190271  1
  O  O61  1  0.49901585  0.86546714  0.36190271  1
  O  O62  1  0.36645029  0.50098415  0.36190271  1
  O  O63  1  0.13453286  0.50098415  0.86190271  1
  O  O64  1  0.36645029  0.86546714  0.86190271  1
  O  O65  1  0.49901585  0.63354971  0.86190271  1
  O  O66  1  0.02492461  0.82438589  0.40675729  1
  O  O67  1  0.79946128  0.97507539  0.40675729  1
  O  O68  1  0.17561411  0.20053872  0.40675729  1
  O  O69  1  0.02492461  0.20053872  0.90675729  1
  O  O70  1  0.17561411  0.97507539  0.90675729  1
  O  O71  1  0.79946128  0.82438589  0.90675729  1
  O  O72  1  0.97655935  0.16770715  0.59027348  1
  O  O73  1  0.19114780  0.02344065  0.59027348  1
  O  O74  1  0.83229285  0.80885220  0.59027348  1
  O  O75  1  0.97655935  0.80885220  0.09027348  1
  O  O76  1  0.83229285  0.02344065  0.09027348  1
  O  O77  1  0.19114780  0.16770715  0.09027348  1
  O  O78  1  0.69692358  0.14959482  0.75027865  1
  O  O79  1  0.45267224  0.30307642  0.75027865  1
  O  O80  1  0.85040518  0.54732776  0.75027865  1
  O  O81  1  0.69692358  0.54732776  0.25027865  1
  O  O82  1  0.85040518  0.30307642  0.25027865  1
  O  O83  1  0.45267224  0.14959482  0.25027865  1
  O  O84  1  0.63732632  0.50278424  0.92784150  1
  O  O85  1  0.86545892  0.36267368  0.92784150  1
  O  O86  1  0.49721576  0.13454108  0.92784150  1
  O  O87  1  0.63732632  0.13454108  0.42784150  1
  O  O88  1  0.49721576  0.36267368  0.42784150  1
  O  O89  1  0.86545892  0.50278424  0.42784150  1
  O  O90  1  0.34217625  0.48504349  0.06457294  1
  O  O91  1  0.14286624  0.65782375  0.06457294  1
  O  O92  1  0.51495651  0.85713376  0.06457294  1
  O  O93  1  0.34217625  0.85713376  0.56457294  1
  O  O94  1  0.51495651  0.65782375  0.56457294  1
  O  O95  1  0.14286624  0.48504349  0.56457294  1
  O  O96  1  0.28301852  0.82009745  0.26156070  1
  O  O97  1  0.53707793  0.71698148  0.26156070  1
  O  O98  1  0.17990255  0.46292207  0.26156070  1
  O  O99  1  0.28301852  0.46292207  0.76156070  1
  O  O100  1  0.17990255  0.71698148  0.76156070  1
  O  O101  1  0.53707793  0.82009745  0.76156070  1
