# generated using pymatgen
data_Te3SeO8
_symmetry_space_group_name_H-M   'P 1'
_cell_length_a   4.87874834
_cell_length_b   6.94172256
_cell_length_c   11.58607116
_cell_angle_alpha   78.22879525
_cell_angle_beta   78.86027010
_cell_angle_gamma   69.74472652
_symmetry_Int_Tables_number   1
_chemical_formula_structural   Te3SeO8
_chemical_formula_sum   'Te6 Se2 O16'
_cell_volume   357.15375629
_cell_formula_units_Z   2
loop_
 _symmetry_equiv_pos_site_id
 _symmetry_equiv_pos_as_xyz
  1  'x, y, z'
loop_
 _atom_site_type_symbol
 _atom_site_label
 _atom_site_symmetry_multiplicity
 _atom_site_fract_x
 _atom_site_fract_y
 _atom_site_fract_z
 _atom_site_occupancy
  Te  Te0  1  0.49414770  0.74202336  0.57348997  1
  Te  Te1  1  0.50585230  0.25797664  0.42651003  1
  Te  Te2  1  0.10553787  0.46502191  0.80720679  1
  Te  Te3  1  0.89446213  0.53497809  0.19279321  1
  Te  Te4  1  0.85484815  0.13610153  0.69533938  1
  Te  Te5  1  0.14515185  0.86389847  0.30466062  1
  Se  Se6  1  0.34884061  0.82756041  0.90669525  1
  Se  Se7  1  0.65115939  0.17243959  0.09330475  1
  O  O8  1  0.51032925  0.30531119  0.80236653  1
  O  O9  1  0.48967075  0.69468881  0.19763347  1
  O  O10  1  0.17459049  0.64300787  0.92836221  1
  O  O11  1  0.82540951  0.35699213  0.07163779  1
  O  O12  1  0.58626709  0.77611727  0.77990599  1
  O  O13  1  0.41373291  0.22388273  0.22009401  1
  O  O14  1  0.65031305  0.30866800  0.55567778  1
  O  O15  1  0.34968695  0.69133200  0.44432222  1
  O  O16  1  0.74377105  0.97478979  0.43264853  1
  O  O17  1  0.25622895  0.02521021  0.56735147  1
  O  O18  1  0.98066913  0.64581362  0.32787185  1
  O  O19  1  0.01933087  0.35418638  0.67212815  1
  O  O20  1  0.83764083  0.32206404  0.32034297  1
  O  O21  1  0.16235917  0.67793596  0.67965703  1
  O  O22  1  0.92331112  0.94870097  0.14134033  1
  O  O23  1  0.07668888  0.05129903  0.85865967  1
