# generated using pymatgen
data_O2
_symmetry_space_group_name_H-M   'P 1'
_cell_length_a   5.28746214
_cell_length_b   5.28746214
_cell_length_c   5.28746242
_cell_angle_alpha   70.16349446
_cell_angle_beta   70.16349446
_cell_angle_gamma   70.16349712
_symmetry_Int_Tables_number   1
_chemical_formula_structural   O2
_chemical_formula_sum   O6
_cell_volume   126.53331279
_cell_formula_units_Z   3
loop_
 _symmetry_equiv_pos_site_id
 _symmetry_equiv_pos_as_xyz
  1  'x, y, z'
loop_
 _atom_site_type_symbol
 _atom_site_label
 _atom_site_symmetry_multiplicity
 _atom_site_fract_x
 _atom_site_fract_y
 _atom_site_fract_z
 _atom_site_occupancy
  O  O0  1  0.07872421  0.22858907  0.95255572  1
  O  O1  1  0.22858907  0.95255572  0.07872421  1
  O  O2  1  0.95255572  0.07872421  0.22858907  1
  O  O3  1  0.57872421  0.45255572  0.72858907  1
  O  O4  1  0.72858907  0.57872421  0.45255572  1
  O  O5  1  0.45255572  0.72858907  0.57872421  1
