# generated using pymatgen
data_Na2Nb4Si7Sn4S5O48
_symmetry_space_group_name_H-M   'P 1'
_cell_length_a   17.77394304
_cell_length_b   8.86849655
_cell_length_c   23.05966568
_cell_angle_alpha   90.14759874
_cell_angle_beta   89.47362980
_cell_angle_gamma   119.99756367
_symmetry_Int_Tables_number   1
_chemical_formula_structural   Na2Nb4Si7Sn4S5O48
_chemical_formula_sum   'Na6 Nb12 Si21 Sn12 S15 O144'
_cell_volume   3147.81050325
_cell_formula_units_Z   3
loop_
 _symmetry_equiv_pos_site_id
 _symmetry_equiv_pos_as_xyz
  1  'x, y, z'
loop_
 _atom_site_type_symbol
 _atom_site_label
 _atom_site_symmetry_multiplicity
 _atom_site_fract_x
 _atom_site_fract_y
 _atom_site_fract_z
 _atom_site_occupancy
  Na  Na0  1  0.99570411  0.00862433  0.49814577  1
  Na  Na1  1  0.49480822  0.98208717  0.00278218  1
  Na  Na2  1  0.32638311  0.33344158  0.83968124  1
  Na  Na3  1  0.82361267  0.32865696  0.83905094  1
  Na  Na4  1  0.32778637  0.32082253  0.33617793  1
  Na  Na5  1  0.82423499  0.31776519  0.33813171  1
  Nb  Nb6  1  0.50455481  0.02235924  0.35876685  1
  Nb  Nb7  1  0.00624534  0.00102188  0.86197037  1
  Nb  Nb8  1  0.50240396  0.01899268  0.64178631  1
  Nb  Nb9  1  0.00288673  0.98659738  0.14176294  1
  Nb  Nb10  1  0.33101644  0.34169612  0.68600389  1
  Nb  Nb11  1  0.83425309  0.34654151  0.68624345  1
  Nb  Nb12  1  0.33990799  0.32214993  0.19067063  1
  Nb  Nb13  1  0.83050350  0.32090215  0.18681602  1
  Nb  Nb14  1  0.17470195  0.69131113  0.02522269  1
  Nb  Nb15  1  0.67092666  0.68948391  0.02475529  1
  Nb  Nb16  1  0.17160830  0.65307015  0.52291191  1
  Nb  Nb17  1  0.67271298  0.65558592  0.52206411  1
  Si  Si18  1  0.14267575  0.99607809  0.25204691  1
  Si  Si19  1  0.64142344  0.99546803  0.25065657  1
  Si  Si20  1  0.50614473  0.29218141  0.24986033  1
  Si  Si21  1  0.14228079  0.28955392  0.75102155  1
  Si  Si22  1  0.64289516  0.29040111  0.75228406  1
  Si  Si23  1  0.47570883  0.34500426  0.58124689  1
  Si  Si24  1  0.97679937  0.33506597  0.58136029  1
  Si  Si25  1  0.33753391  0.62568513  0.58191477  1
  Si  Si26  1  0.83951922  0.62958614  0.58169474  1
  Si  Si27  1  0.47536667  0.62227686  0.08295941  1
  Si  Si28  1  0.97514252  0.60653672  0.08152162  1
  Si  Si29  1  0.34194114  0.05554579  0.08237903  1
  Si  Si30  1  0.83837934  0.05163577  0.08225617  1
  Si  Si31  1  0.31287786  0.66492496  0.91706551  1
  Si  Si32  1  0.80898025  0.65919500  0.91712173  1
  Si  Si33  1  0.17375087  0.95579962  0.91512303  1
  Si  Si34  1  0.66902800  0.95830573  0.91484030  1
  Si  Si35  1  0.31046501  0.95773079  0.41699389  1
  Si  Si36  1  0.81107696  0.95603150  0.41492550  1
  Si  Si37  1  0.16852296  0.37742430  0.41374638  1
  Si  Si38  1  0.67344081  0.38678490  0.41428630  1
  Sn  Sn39  1  0.00260811  0.01070998  0.35649610  1
  Sn  Sn40  1  0.50420743  0.99541126  0.85777249  1
  Sn  Sn41  1  0.99978085  0.01364718  0.64588805  1
  Sn  Sn42  1  0.50029207  0.99570802  0.14830312  1
  Sn  Sn43  1  0.33382501  0.33674808  0.98105850  1
  Sn  Sn44  1  0.83241560  0.33290497  0.97978032  1
  Sn  Sn45  1  0.33458617  0.33519148  0.47791630  1
  Sn  Sn46  1  0.83465962  0.33237405  0.47871896  1
  Sn  Sn47  1  0.17245132  0.68030822  0.31350781  1
  Sn  Sn48  1  0.66833049  0.67236525  0.31145817  1
  Sn  Sn49  1  0.17389657  0.66423938  0.81444747  1
  Sn  Sn50  1  0.67136109  0.66331863  0.81479131  1
  S  S51  1  0.35394160  0.70671763  0.25089622  1
  S  S52  1  0.85810957  0.71304023  0.24946394  1
  S  S53  1  0.00043109  0.29175885  0.24952555  1
  S  S54  1  0.00157418  0.71316509  0.75102065  1
  S  S55  1  0.50063878  0.70951432  0.74952714  1
  S  S56  1  0.35689589  0.00236528  0.74986709  1
  S  S57  1  0.85496876  0.00117809  0.75114451  1
  S  S58  1  0.18807372  0.04363910  0.58374046  1
  S  S59  1  0.68897502  0.04409507  0.58464537  1
  S  S60  1  0.18856831  0.33521316  0.08461830  1
  S  S61  1  0.68803640  0.33334275  0.08327918  1
  S  S62  1  0.02233556  0.37984106  0.91616139  1
  S  S63  1  0.52190348  0.37805002  0.91663345  1
  S  S64  1  0.02290666  0.66680773  0.41662142  1
  S  S65  1  0.52310958  0.66897151  0.41689097  1
  O  O66  1  0.09990257  0.03538377  0.30859252  1
  O  O67  1  0.59375545  0.02659019  0.30736997  1
  O  O68  1  0.40771891  0.78640489  0.30217726  1
  O  O69  1  0.91140017  0.78757983  0.30221291  1
  O  O70  1  0.48362760  0.16391818  0.30750507  1
  O  O71  1  0.97920099  0.18265796  0.30300817  1
  O  O72  1  0.09321921  0.16209462  0.80734359  1
  O  O73  1  0.60061776  0.16478082  0.80835595  1
  O  O74  1  0.47941563  0.77677495  0.80298063  1
  O  O75  1  0.98422912  0.79168161  0.80288477  1
  O  O76  1  0.40914101  0.03128595  0.80251419  1
  O  O77  1  0.90960074  0.02744582  0.80188717  1
  O  O78  1  0.39980469  0.97738939  0.69771044  1
  O  O79  1  0.89186921  0.96864332  0.69723975  1
  O  O80  1  0.08755003  0.20005861  0.69315581  1
  O  O81  1  0.58340626  0.18608461  0.69505651  1
  O  O82  1  0.01236192  0.81390337  0.69764841  1
  O  O83  1  0.51082352  0.81588938  0.69822670  1
  O  O84  1  0.39063085  0.80994870  0.19700646  1
  O  O85  1  0.90209310  0.82350453  0.19734881  1
  O  O86  1  0.01071053  0.20553725  0.19815843  1
  O  O87  1  0.51396280  0.20230008  0.19151578  1
  O  O88  1  0.08216087  0.97865734  0.19485685  1
  O  O89  1  0.58894875  0.97111895  0.19169970  1
  O  O90  1  0.42562194  0.35700943  0.64049517  1
  O  O91  1  0.92579877  0.35372312  0.64025651  1
  O  O92  1  0.24261794  0.12959827  0.63646057  1
  O  O93  1  0.74415001  0.12897033  0.63661044  1
  O  O94  1  0.31805966  0.49784197  0.64022045  1
  O  O95  1  0.82004323  0.50209921  0.64031854  1
  O  O96  1  0.42595258  0.49872270  0.14027354  1
  O  O97  1  0.92623047  0.49474385  0.14007214  1
  O  O98  1  0.32059709  0.13847454  0.14009872  1
  O  O99  1  0.81786916  0.13932411  0.13999355  1
  O  O100  1  0.24283124  0.36479771  0.13536193  1
  O  O101  1  0.74302178  0.35841109  0.13533657  1
  O  O102  1  0.22050872  0.29110187  0.03117471  1
  O  O103  1  0.72560942  0.29909720  0.03030785  1
  O  O104  1  0.41677636  0.54341479  0.02552301  1
  O  O105  1  0.91583506  0.53932187  0.02518003  1
  O  O106  1  0.35063390  0.16253951  0.02422968  1
  O  O107  1  0.85520200  0.16848795  0.02585456  1
  O  O108  1  0.22458274  0.15396443  0.53170765  1
  O  O109  1  0.72217721  0.15322555  0.53245187  1
  O  O110  1  0.35479198  0.54003910  0.52663540  1
  O  O111  1  0.85220880  0.53880878  0.52557483  1
  O  O112  1  0.41384689  0.28965615  0.52652621  1
  O  O113  1  0.91456684  0.29209830  0.52647464  1
  O  O114  1  0.26080855  0.68620361  0.97360471  1
  O  O115  1  0.76122797  0.68685135  0.97367122  1
  O  O116  1  0.07498734  0.45424836  0.96749797  1
  O  O117  1  0.57510648  0.45994857  0.96789416  1
  O  O118  1  0.15362650  0.83257713  0.97255629  1
  O  O119  1  0.65578733  0.83613170  0.97294609  1
  O  O120  1  0.25908064  0.83441460  0.47419340  1
  O  O121  1  0.76029722  0.83430304  0.47334181  1
  O  O122  1  0.15499266  0.47284901  0.47310621  1
  O  O123  1  0.65460477  0.47112156  0.47373562  1
  O  O124  1  0.07509273  0.68958523  0.46849138  1
  O  O125  1  0.57531573  0.69297403  0.46927566  1
  O  O126  1  0.06027006  0.63903154  0.36259233  1
  O  O127  1  0.56032588  0.63500182  0.36419846  1
  O  O128  1  0.25235511  0.88434164  0.35911466  1
  O  O129  1  0.75406437  0.87509539  0.35783210  1
  O  O130  1  0.17840811  0.49051933  0.35614247  1
  O  O131  1  0.68719853  0.50179960  0.35782972  1
  O  O132  1  0.05965566  0.48435198  0.86233961  1
  O  O133  1  0.55910147  0.48026858  0.86212231  1
  O  O134  1  0.18176250  0.86775500  0.85538524  1
  O  O135  1  0.67978344  0.86861348  0.85583460  1
  O  O136  1  0.25669798  0.62592971  0.85816839  1
  O  O137  1  0.75376267  0.62090873  0.85788993  1
  O  O138  1  0.01362605  0.82455730  0.41233852  1
  O  O139  1  0.51358407  0.82386025  0.40931474  1
  O  O140  1  0.40272067  0.96017001  0.40693953  1
  O  O141  1  0.90540262  0.96147615  0.41133251  1
  O  O142  1  0.08012815  0.18677936  0.41505286  1
  O  O143  1  0.58402540  0.19546237  0.40898286  1
  O  O144  1  0.01255422  0.20161476  0.90747784  1
  O  O145  1  0.51305956  0.20186949  0.91150407  1
  O  O146  1  0.08356006  0.96967601  0.90652637  1
  O  O147  1  0.58116884  0.97374567  0.91532637  1
  O  O148  1  0.40594949  0.84925577  0.91145066  1
  O  O149  1  0.90429103  0.83929799  0.90290795  1
  O  O150  1  0.48935667  0.17487072  0.59615416  1
  O  O151  1  0.99171299  0.16914378  0.58768250  1
  O  O152  1  0.10020852  0.02183853  0.59173136  1
  O  O153  1  0.60058646  0.02256551  0.59561132  1
  O  O154  1  0.41985124  0.81211829  0.60091833  1
  O  O155  1  0.92456249  0.81627117  0.59387384  1
  O  O156  1  0.49265170  0.81894177  0.08964270  1
  O  O157  1  0.98969681  0.80462692  0.09512176  1
  O  O158  1  0.42301979  0.02505462  0.08947402  1
  O  O159  1  0.91991988  0.02812049  0.10036683  1
  O  O160  1  0.09928078  0.17943930  0.09454142  1
  O  O161  1  0.60142450  0.17834927  0.08910774  1
  O  O162  1  0.34725144  0.15852597  0.74171137  1
  O  O163  1  0.84720070  0.16080824  0.74382238  1
  O  O164  1  0.23957307  0.30404310  0.74288640  1
  O  O165  1  0.73961181  0.30663621  0.74007597  1
  O  O166  1  0.42079288  0.52939851  0.74234256  1
  O  O167  1  0.92033837  0.53436101  0.74505330  1
  O  O168  1  0.34392675  0.52982140  0.24395397  1
  O  O169  1  0.84913512  0.53785128  0.24119447  1
  O  O170  1  0.41532658  0.30708463  0.24437316  1
  O  O171  1  0.92084124  0.31227315  0.24241079  1
  O  O172  1  0.23719857  0.17270707  0.23979534  1
  O  O173  1  0.73967047  0.18144827  0.24199963  1
  O  O174  1  0.32493206  0.49566729  0.92274734  1
  O  O175  1  0.82758651  0.49828367  0.92208805  1
  O  O176  1  0.43400746  0.35791630  0.92025673  1
  O  O177  1  0.93389306  0.35478920  0.92024479  1
  O  O178  1  0.25481319  0.14954272  0.92224751  1
  O  O179  1  0.75638683  0.14749208  0.92151436  1
  O  O180  1  0.32603290  0.15387873  0.42268253  1
  O  O181  1  0.82456252  0.15116682  0.42188087  1
  O  O182  1  0.25584585  0.36455661  0.42157847  1
  O  O183  1  0.75610859  0.36013140  0.42283491  1
  O  O184  1  0.43467488  0.51161876  0.42149067  1
  O  O185  1  0.93474254  0.50991508  0.42013253  1
  O  O186  1  0.17635371  0.48580632  0.07509927  1
  O  O187  1  0.68170570  0.49123686  0.07634171  1
  O  O188  1  0.07071567  0.62796319  0.07178149  1
  O  O189  1  0.56945707  0.62884224  0.07129944  1
  O  O190  1  0.25149153  0.86225543  0.07520331  1
  O  O191  1  0.75120048  0.85994631  0.07552209  1
  O  O192  1  0.18123260  0.87296272  0.57751578  1
  O  O193  1  0.67885219  0.87152714  0.57775953  1
  O  O194  1  0.25105939  0.64378154  0.57565682  1
  O  O195  1  0.75179077  0.64540915  0.57490384  1
  O  O196  1  0.06947610  0.51505780  0.57237797  1
  O  O197  1  0.57080297  0.51442526  0.57273186  1
  O  O198  1  0.14928376  0.82065214  0.25616333  1
  O  O199  1  0.66036750  0.83912084  0.25862575  1
  O  O200  1  0.26565895  0.68557397  0.25568378  1
  O  O201  1  0.77262667  0.69741754  0.25297338  1
  O  O202  1  0.07732981  0.46438310  0.25646696  1
  O  O203  1  0.58640628  0.48172248  0.25998819  1
  O  O204  1  0.15231741  0.48007942  0.75818099  1
  O  O205  1  0.65081196  0.47994768  0.75627542  1
  O  O206  1  0.07671990  0.68944831  0.75857563  1
  O  O207  1  0.57730297  0.69026545  0.75645256  1
  O  O208  1  0.26965447  0.84581036  0.75327349  1
  O  O209  1  0.76683182  0.84779061  0.75599884  1
