# generated using pymatgen
data_MgV2Cr4O12
_symmetry_space_group_name_H-M   'P 1'
_cell_length_a   5.10470209
_cell_length_b   5.10574373
_cell_length_c   8.67952388
_cell_angle_alpha   90.84477677
_cell_angle_beta   90.81019517
_cell_angle_gamma   78.23736105
_symmetry_Int_Tables_number   1
_chemical_formula_structural   MgV2Cr4O12
_chemical_formula_sum   'Mg1 V2 Cr4 O12'
_cell_volume   221.42820498
_cell_formula_units_Z   1
loop_
 _symmetry_equiv_pos_site_id
 _symmetry_equiv_pos_as_xyz
  1  'x, y, z'
loop_
 _atom_site_type_symbol
 _atom_site_label
 _atom_site_symmetry_multiplicity
 _atom_site_fract_x
 _atom_site_fract_y
 _atom_site_fract_z
 _atom_site_occupancy
  Mg  Mg0  1  0.80780247  0.79574565  0.17517828  1
  V  V1  1  0.07668447  0.07959616  0.98547979  1
  V  V2  1  0.49630824  0.49639455  0.50674674  1
  Cr  Cr3  1  0.08075441  0.08228546  0.35650761  1
  Cr  Cr4  1  0.92920940  0.92810279  0.66685107  1
  Cr  Cr5  1  0.47260802  0.47196413  0.16360469  1
  Cr  Cr6  1  0.51019909  0.51044712  0.82920519  1
  O  O7  1  0.18998450  0.82389509  0.15705777  1
  O  O8  1  0.19118705  0.80330783  0.50400705  1
  O  O9  1  0.18822594  0.81406185  0.84374261  1
  O  O10  1  0.29503529  0.30040729  0.98734132  1
  O  O11  1  0.31625467  0.32237868  0.34017144  1
  O  O12  1  0.34625575  0.34717467  0.65161100  1
  O  O13  1  0.65007345  0.64596331  0.00823526  1
  O  O14  1  0.64328600  0.63661253  0.33502747  1
  O  O15  1  0.67978977  0.67607340  0.65919432  1
  O  O16  1  0.81999631  0.18376433  0.15609583  1
  O  O17  1  0.79958211  0.18574272  0.50289001  1
  O  O18  1  0.81231806  0.18774945  0.84248057  1
