# generated using pymatgen
data_Na14Nb4In4Si11SO48
_symmetry_space_group_name_H-M   'P 1'
_cell_length_a   18.44685212
_cell_length_b   9.21116186
_cell_length_c   22.56518782
_cell_angle_alpha   89.92486002
_cell_angle_beta   90.06219747
_cell_angle_gamma   119.99889141
_symmetry_Int_Tables_number   1
_chemical_formula_structural   Na14Nb4In4Si11SO48
_chemical_formula_sum   'Na42 Nb12 In12 Si33 S3 O144'
_cell_volume   3320.55508381
_cell_formula_units_Z   3
loop_
 _symmetry_equiv_pos_site_id
 _symmetry_equiv_pos_as_xyz
  1  'x, y, z'
loop_
 _atom_site_type_symbol
 _atom_site_label
 _atom_site_symmetry_multiplicity
 _atom_site_fract_x
 _atom_site_fract_y
 _atom_site_fract_z
 _atom_site_occupancy
  Na  Na0  1  0.32349154  0.99973411  0.25002625  1
  Na  Na1  1  0.82419263  0.00041376  0.24995574  1
  Na  Na2  1  0.32113702  0.63404990  0.74908430  1
  Na  Na3  1  0.82323552  0.64539757  0.74872237  1
  Na  Na4  1  0.49350341  0.36039442  0.74766939  1
  Na  Na5  1  0.68120813  0.00473171  0.75101618  1
  Na  Na6  1  0.14964433  0.32449712  0.58274830  1
  Na  Na7  1  0.65282213  0.32938566  0.58155706  1
  Na  Na8  1  0.01496162  0.70819434  0.58501788  1
  Na  Na9  1  0.51077374  0.68879554  0.58296195  1
  Na  Na10  1  0.33146323  0.97938125  0.58289349  1
  Na  Na11  1  0.84050566  0.97247921  0.58556924  1
  Na  Na12  1  0.14583675  0.95595509  0.08046329  1
  Na  Na13  1  0.64566125  0.95576039  0.08003112  1
  Na  Na14  1  0.33226682  0.71261501  0.08301335  1
  Na  Na15  1  0.83240555  0.71241374  0.08354842  1
  Na  Na16  1  0.02380604  0.33469296  0.08343004  1
  Na  Na17  1  0.52330827  0.33411702  0.08344596  1
  Na  Na18  1  0.48471851  0.68001119  0.91417084  1
  Na  Na19  1  0.98572653  0.67777006  0.91467780  1
  Na  Na20  1  0.35486509  0.02822924  0.91457767  1
  Na  Na21  1  0.85416157  0.02927608  0.91459640  1
  Na  Na22  1  0.16114737  0.29823265  0.91826407  1
  Na  Na23  1  0.65986379  0.29148036  0.91511924  1
  Na  Na24  1  0.47565141  0.28730541  0.41600602  1
  Na  Na25  1  0.97707498  0.28858180  0.41680576  1
  Na  Na26  1  0.16795836  0.04441701  0.42095741  1
  Na  Na27  1  0.66783975  0.04356046  0.41898319  1
  Na  Na28  1  0.35540461  0.66498060  0.41604595  1
  Na  Na29  1  0.85668429  0.66550108  0.41649828  1
  Na  Na30  1  0.00056118  0.99905734  0.50050514  1
  Na  Na31  1  0.49855259  0.99856990  0.49534574  1
  Na  Na32  1  0.99943124  0.00134862  -0.00000089  1
  Na  Na33  1  0.49917453  0.99996800  0.99912831  1
  Na  Na34  1  0.33290511  0.32383358  0.82877473  1
  Na  Na35  1  0.83947010  0.33454112  0.83207355  1
  Na  Na36  1  0.33745418  0.34729856  0.33612296  1
  Na  Na37  1  0.83843605  0.34888874  0.33564840  1
  Na  Na38  1  0.16411141  0.65178736  0.16433715  1
  Na  Na39  1  0.66402250  0.65183616  0.16421621  1
  Na  Na40  1  0.16308939  0.67726197  0.66849026  1
  Na  Na41  1  0.66666873  0.66644732  0.66679906  1
  Nb  Nb42  1  0.49796213  0.99771434  0.64944858  1
  Nb  Nb43  1  0.83738470  0.33705125  0.68508358  1
  Nb  Nb44  1  0.33892947  0.34761173  0.18592010  1
  Nb  Nb45  1  0.83930062  0.34823829  0.18592567  1
  Nb  Nb46  1  0.33347417  0.33554778  0.97904739  1
  Nb  Nb47  1  0.83288740  0.33299676  0.97924033  1
  Nb  Nb48  1  0.16539078  0.66846586  0.51958215  1
  Nb  Nb49  1  0.66720361  0.66603573  0.51951492  1
  Nb  Nb50  1  0.16522908  0.65196633  0.31398864  1
  Nb  Nb51  1  0.66507589  0.65244367  0.31368829  1
  Nb  Nb52  1  0.16614494  0.67647693  0.81695165  1
  Nb  Nb53  1  0.66653909  0.66861866  0.81508510  1
  In  In54  1  0.99496520  0.99622543  0.35192076  1
  In  In55  1  0.49444581  0.99539688  0.35144270  1
  In  In56  1  0.99542900  0.99372060  0.84915810  1
  In  In57  1  0.50039684  0.00106495  0.84974805  1
  In  In58  1  0.99837259  0.99152819  0.65047113  1
  In  In59  1  0.99671109  0.00421163  0.14793826  1
  In  In60  1  0.49649451  0.00419580  0.14774267  1
  In  In61  1  0.33387510  0.32709583  0.67970375  1
  In  In62  1  0.33472118  0.33422124  0.48220330  1
  In  In63  1  0.83309035  0.33019460  0.48096203  1
  In  In64  1  0.16664048  0.66635646  0.01936150  1
  In  In65  1  0.66704025  0.66620267  0.01999915  1
  Si  Si66  1  0.35117800  0.70224754  0.25041722  1
  Si  Si67  1  0.85129831  0.70262088  0.25047464  1
  Si  Si68  1  0.00003874  0.29747623  0.24945671  1
  Si  Si69  1  0.49984437  0.29732830  0.24940045  1
  Si  Si70  1  0.64860435  0.29721851  0.75032624  1
  Si  Si71  1  0.00228890  0.70145569  0.74966324  1
  Si  Si72  1  0.49809297  0.70042299  0.75158203  1
  Si  Si73  1  0.34951188  -0.00057111  0.75207712  1
  Si  Si74  1  0.85142154  0.00257475  0.75030671  1
  Si  Si75  1  0.48272788  0.33252824  0.58281344  1
  Si  Si76  1  0.98126560  0.33249515  0.58143132  1
  Si  Si77  1  0.18499828  0.03972447  0.58088828  1
  Si  Si78  1  0.68571836  0.03892794  0.58323129  1
  Si  Si79  1  0.33268517  0.62832820  0.58392967  1
  Si  Si80  1  0.83328235  0.62641442  0.58103647  1
  Si  Si81  1  0.48007011  0.62783716  0.08212419  1
  Si  Si82  1  0.97999250  0.62771440  0.08172983  1
  Si  Si83  1  0.33246077  0.04508440  0.08425978  1
  Si  Si84  1  0.83253566  0.04456761  0.08467717  1
  Si  Si85  1  0.18813995  0.33060498  0.08367361  1
  Si  Si86  1  0.68817759  0.33037909  0.08374856  1
  Si  Si87  1  0.31290399  0.66659703  0.91765816  1
  Si  Si88  1  0.81297893  0.66515823  0.91847008  1
  Si  Si89  1  0.02056593  0.37318113  0.91869149  1
  Si  Si90  1  0.51979164  0.37375577  0.91849294  1
  Si  Si91  1  0.16680138  0.96420704  0.91912566  1
  Si  Si92  1  0.66651283  0.96097899  0.91916758  1
  Si  Si93  1  0.31046927  0.95666363  0.41498444  1
  Si  Si94  1  0.81065815  0.95599327  0.41526270  1
  Si  Si95  1  0.16650190  0.37239694  0.41853471  1
  Si  Si96  1  0.66654309  0.37178487  0.41722207  1
  Si  Si97  1  0.02188613  0.66817458  0.41516504  1
  Si  Si98  1  0.52279604  0.66911553  0.41641815  1
  S  S99  1  0.14989899  0.00001832  0.24982491  1
  S  S100  1  0.64989164  0.00013848  0.24992479  1
  S  S101  1  0.14934669  0.30121249  0.75137232  1
  O  O102  1  0.11179998  0.02358490  0.30385202  1
  O  O103  1  0.61178821  0.02344661  0.30417273  1
  O  O104  1  0.40548261  0.77283078  0.31088707  1
  O  O105  1  0.90549167  0.77381620  0.31081156  1
  O  O106  1  0.47836161  0.17957280  0.30825872  1
  O  O107  1  0.97779726  0.17883845  0.30809726  1
  O  O108  1  0.10898090  0.20159248  0.80507001  1
  O  O109  1  0.61473955  0.18414940  0.80934826  1
  O  O110  1  0.48383276  0.78012864  0.81072112  1
  O  O111  1  0.97872744  0.77310142  0.80794335  1
  O  O112  1  0.40634866  0.03334276  0.81071178  1
  O  O113  1  0.90367249  0.03503102  0.81087570  1
  O  O114  1  0.40182801  0.97402202  0.69475719  1
  O  O115  1  0.88759196  0.95576971  0.69234414  1
  O  O116  1  0.10102862  0.22461540  0.69674220  1
  O  O117  1  0.58474058  0.19813718  0.69391775  1
  O  O118  1  0.01853894  0.80775231  0.68919472  1
  O  O119  1  0.51311255  0.82950656  0.69445224  1
  O  O120  1  0.38873770  0.82066952  0.19183406  1
  O  O121  1  0.88840352  0.82037558  0.19167269  1
  O  O122  1  0.01881620  0.22643769  0.18914313  1
  O  O123  1  0.51918647  0.22674853  0.18924177  1
  O  O124  1  0.09992799  0.97639964  0.19577707  1
  O  O125  1  0.59985574  0.97638668  0.19605790  1
  O  O126  1  0.45000566  0.38321533  0.64146625  1
  O  O127  1  0.92861332  0.36118337  0.63664222  1
  O  O128  1  0.24935129  0.11103053  0.63616745  1
  O  O129  1  0.74834239  0.13508297  0.63975042  1
  O  O130  1  0.31024359  0.51237044  0.64287184  1
  O  O131  1  0.81833393  0.50119810  0.63893040  1
  O  O132  1  0.42817890  0.50341907  0.13900347  1
  O  O133  1  0.92827720  0.50362491  0.13876321  1
  O  O134  1  0.32368752  0.14385408  0.14238896  1
  O  O135  1  0.82379944  0.14411156  0.14248964  1
  O  O136  1  0.25118069  0.34878496  0.13871137  1
  O  O137  1  0.75133555  0.34904337  0.13869485  1
  O  O138  1  0.23721043  0.31260242  0.02354458  1
  O  O139  1  0.73764479  0.31267653  0.02359866  1
  O  O140  1  0.41890176  0.52840623  0.02400747  1
  O  O141  1  0.91876783  0.52782026  0.02360599  1
  O  O142  1  0.34214107  0.16672414  0.02547520  1
  O  O143  1  0.84196233  0.16579966  0.02562491  1
  O  O144  1  0.22183535  0.15202306  0.52094068  1
  O  O145  1  0.71796526  0.15109256  0.52353562  1
  O  O146  1  0.35957423  0.56145419  0.52604588  1
  O  O147  1  0.84956977  0.54810646  0.52203771  1
  O  O148  1  0.42399405  0.28400347  0.52443335  1
  O  O149  1  0.92402427  0.28871035  0.52240418  1
  O  O150  1  0.27487593  0.70298066  0.97670105  1
  O  O151  1  0.77519061  0.70171339  0.97710120  1
  O  O152  1  0.07462365  0.44411447  0.97893124  1
  O  O153  1  0.57598725  0.44953793  0.97722961  1
  O  O154  1  0.14502373  0.84882641  0.97754388  1
  O  O155  1  0.64899222  0.84924088  0.97798984  1
  O  O156  1  0.25885546  0.83571153  0.47323811  1
  O  O157  1  0.75990428  0.83607340  0.47446685  1
  O  O158  1  0.15433840  0.46953213  0.47659030  1
  O  O159  1  0.65654684  0.47327197  0.47500185  1
  O  O160  1  0.07953758  0.68417936  0.47474235  1
  O  O161  1  0.58068117  0.68686580  0.47669430  1
  O  O162  1  0.07613230  0.65026488  0.36038773  1
  O  O163  1  0.57629822  0.65023777  0.36146838  1
  O  O164  1  0.25219369  0.85711506  0.35703616  1
  O  O165  1  0.75145226  0.85606879  0.35780252  1
  O  O166  1  0.17660108  0.49644913  0.36125511  1
  O  O167  1  0.67629197  0.49563225  0.36043739  1
  O  O168  1  0.07280701  0.50725963  0.86354954  1
  O  O169  1  0.56898685  0.50000603  0.85990073  1
  O  O170  1  0.18296522  0.86309099  0.86262163  1
  O  O171  1  0.67950398  0.86075398  0.86087689  1
  O  O172  1  0.24991283  0.63597162  0.85965075  1
  O  O173  1  0.75033921  0.63919041  0.85973527  1
  O  O174  1  0.01948185  0.84211385  0.41406050  1
  O  O175  1  0.52004558  0.84286659  0.41488421  1
  O  O176  1  0.40085145  0.96494287  0.41778975  1
  O  O177  1  0.90091712  0.96556284  0.41771942  1
  O  O178  1  0.08183537  0.19177679  0.41377511  1
  O  O179  1  0.58103720  0.19190361  0.41429147  1
  O  O180  1  0.00870426  0.18770975  0.91010000  1
  O  O181  1  0.50681945  0.18765932  0.91161962  1
  O  O182  1  0.08868629  0.99428699  0.90786589  1
  O  O183  1  0.58734705  0.98940225  0.91274637  1
  O  O184  1  0.40683705  0.82537142  0.91233842  1
  O  O185  1  0.90687623  0.82459549  0.91306008  1
  O  O186  1  0.49527755  0.16661437  0.59218243  1
  O  O187  1  0.99634855  0.17614110  0.59262855  1
  O  O188  1  0.09189166  0.01739710  0.58728232  1
  O  O189  1  0.59097948  0.01201859  0.59473152  1
  O  O190  1  0.41619994  0.82055005  0.59335949  1
  O  O191  1  0.91289568  0.81390323  0.58652371  1
  O  O192  1  0.48498125  0.80786963  0.08592458  1
  O  O193  1  0.98468764  0.80761045  0.08567616  1
  O  O194  1  0.41820739  0.03580871  0.08204043  1
  O  O195  1  0.91833963  0.03571835  0.08204055  1
  O  O196  1  0.09861461  0.15713521  0.08524089  1
  O  O197  1  0.59874424  0.15722903  0.08528772  1
  O  O198  1  0.34269253  0.16699719  0.74483791  1
  O  O199  1  0.83411699  0.16172249  0.74161930  1
  O  O200  1  0.23544010  0.32577738  0.74887851  1
  O  O201  1  0.74255805  0.32301531  0.73923632  1
  O  O202  1  0.41561632  0.51628357  0.74483645  1
  O  O203  1  0.91508271  0.51379696  0.74103724  1
  O  O204  1  0.33670243  0.51025998  0.24154908  1
  O  O205  1  0.83664811  0.51046449  0.24153484  1
  O  O206  1  0.41258455  0.30981652  0.24239031  1
  O  O207  1  0.91272228  0.31040418  0.24228778  1
  O  O208  1  0.23657801  0.15047373  0.24515518  1
  O  O209  1  0.73654379  0.15029439  0.24533342  1
  O  O210  1  0.31682191  0.48930003  0.92086724  1
  O  O211  1  0.81683432  0.48855114  0.91980948  1
  O  O212  1  0.42775915  0.36643280  0.92095579  1
  O  O213  1  0.92797761  0.36406192  0.92097285  1
  O  O214  1  0.25562434  0.14551492  0.92106617  1
  O  O215  1  0.75581333  0.14434152  0.92056926  1
  O  O216  1  0.31748478  0.13941174  0.41618419  1
  O  O217  1  0.81527601  0.13653181  0.41683559  1
  O  O218  1  0.25326646  0.36909439  0.41806422  1
  O  O219  1  0.75187048  0.36406874  0.41656765  1
  O  O220  1  0.43240996  0.49890959  0.41774044  1
  O  O221  1  0.93153898  0.49801786  0.41621104  1
  O  O222  1  0.18306579  0.50103776  0.08372439  1
  O  O223  1  0.68305867  0.50071654  0.08368810  1
  O  O224  1  0.06902705  0.63437587  0.08306910  1
  O  O225  1  0.56899264  0.63401267  0.08341575  1
  O  O226  1  0.24760755  0.86332582  0.08330135  1
  O  O227  1  0.74785051  0.86284431  0.08401909  1
  O  O228  1  0.17406821  0.84749140  0.57416799  1
  O  O229  1  0.67733806  0.85084083  0.57965061  1
  O  O230  1  0.25044151  0.65451244  0.57548610  1
  O  O231  1  0.74593323  0.63857989  0.57863845  1
  O  O232  1  0.07276839  0.50846295  0.57920646  1
  O  O233  1  0.57772100  0.49872416  0.57509929  1
  O  O234  1  0.16167321  0.84990028  0.25447363  1
  O  O235  1  0.66153755  0.84974446  0.25475149  1
  O  O236  1  0.25765539  0.68984863  0.25762405  1
  O  O237  1  0.75757783  0.69012401  0.25785772  1
  O  O238  1  0.08164025  0.48912857  0.25846721  1
  O  O239  1  0.58131731  0.48940061  0.25864577  1
  O  O240  1  0.15795961  0.47371089  0.75570188  1
  O  O241  1  0.65545172  0.48330184  0.75438079  1
  O  O242  1  0.08470046  0.67694690  0.75955058  1
  O  O243  1  0.58590936  0.69048925  0.75469390  1
  O  O244  1  0.25991960  0.81786117  0.75561728  1
  O  O245  1  0.75571057  0.83137449  0.75809971  1
