# generated using pymatgen
data_Na2Hf3Zn5(SO4)12
_symmetry_space_group_name_H-M   'P 1'
_cell_length_a   17.52726427
_cell_length_b   8.75872954
_cell_length_c   22.80064455
_cell_angle_alpha   90.04033258
_cell_angle_beta   89.99380492
_cell_angle_gamma   120.02387353
_symmetry_Int_Tables_number   1
_chemical_formula_structural   Na2Hf3Zn5(SO4)12
_chemical_formula_sum   'Na6 Hf9 Zn15 S36 O144'
_cell_volume   3030.59816000
_cell_formula_units_Z   3
loop_
 _symmetry_equiv_pos_site_id
 _symmetry_equiv_pos_as_xyz
  1  'x, y, z'
loop_
 _atom_site_type_symbol
 _atom_site_label
 _atom_site_symmetry_multiplicity
 _atom_site_fract_x
 _atom_site_fract_y
 _atom_site_fract_z
 _atom_site_occupancy
  Na  Na0  1  0.00033829  0.00033732  0.50134666  1
  Na  Na1  1  0.50318279  0.00470861  0.99692652  1
  Na  Na2  1  0.33533239  0.33649763  0.82988425  1
  Na  Na3  1  0.83119442  0.32995853  0.83047526  1
  Na  Na4  1  0.33092020  0.33248271  0.34170910  1
  Na  Na5  1  0.83567467  0.33356657  0.33352279  1
  Hf  Hf6  1  0.50166870  -0.00039736  0.35616734  1
  Hf  Hf7  1  0.99937330  0.99980611  0.85218160  1
  Hf  Hf8  1  0.50006621  0.00052894  0.64870063  1
  Hf  Hf9  1  0.99602322  0.99699673  0.14798908  1
  Hf  Hf10  1  0.33497488  0.33418925  0.18695800  1
  Hf  Hf11  1  0.16646334  0.66779117  0.01920909  1
  Hf  Hf12  1  0.66677027  0.66507482  0.01961789  1
  Hf  Hf13  1  0.16451754  0.66482772  0.52227694  1
  Hf  Hf14  1  0.66898883  0.66882516  0.52270426  1
  Zn  Zn15  1  0.99835642  0.00069589  0.35251973  1
  Zn  Zn16  1  0.50089796  0.00059983  0.84861971  1
  Zn  Zn17  1  0.00020102  0.00010025  0.65119273  1
  Zn  Zn18  1  0.50591276  0.00568107  0.15037906  1
  Zn  Zn19  1  0.33138183  0.32998898  0.68493369  1
  Zn  Zn20  1  0.83522967  0.33692084  0.68499854  1
  Zn  Zn21  1  0.83163185  0.33327042  0.18467582  1
  Zn  Zn22  1  0.33571660  0.33623112  0.97938598  1
  Zn  Zn23  1  0.83074937  0.33073798  0.98285651  1
  Zn  Zn24  1  0.33077266  0.33171093  0.48582583  1
  Zn  Zn25  1  0.83611920  0.33517877  0.48484386  1
  Zn  Zn26  1  0.16167703  0.65674450  0.31475059  1
  Zn  Zn27  1  0.67180803  0.67592963  0.31281278  1
  Zn  Zn28  1  0.16882785  0.66796736  0.80921923  1
  Zn  Zn29  1  0.66449075  0.66573006  0.80988015  1
  S  S30  1  0.14469923  0.99649921  0.25131098  1
  S  S31  1  0.64677113  0.99921943  0.24969253  1
  S  S32  1  0.35350959  0.71270382  0.24928065  1
  S  S33  1  0.85316236  0.70357659  0.25241984  1
  S  S34  1  -0.00105292  0.29309394  0.25180688  1
  S  S35  1  0.50269999  0.29359174  0.24995954  1
  S  S36  1  0.14727956  0.29409098  0.74928465  1
  S  S37  1  0.64820696  0.29384767  0.75186742  1
  S  S38  1  0.00023023  0.70550820  0.74924057  1
  S  S39  1  0.49834578  0.70385461  0.75181278  1
  S  S40  1  0.35356604  0.00283569  0.75203120  1
  S  S41  1  0.85243397  0.99986777  0.74904521  1
  S  S42  1  0.47659129  0.33211415  0.58311884  1
  S  S43  1  0.97655832  0.32549020  0.58353630  1
  S  S44  1  0.18635264  0.04592685  0.58308299  1
  S  S45  1  0.68936661  0.04788013  0.58354306  1
  S  S46  1  0.33401619  0.62183104  0.58354387  1
  S  S47  1  0.83714413  0.62649099  0.58306063  1
  S  S48  1  0.47783283  0.62805519  0.08174913  1
  S  S49  1  0.97700060  0.62100419  0.08336312  1
  S  S50  1  0.33627988  0.04446464  0.08168080  1
  S  S51  1  0.83279579  0.04638160  0.08329485  1
  S  S52  1  0.18848113  0.33150553  0.08219021  1
  S  S53  1  0.68654316  0.32793065  0.08301417  1
  S  S54  1  0.31339840  0.66621763  0.91552749  1
  S  S55  1  0.81096941  0.66130759  0.91477383  1
  S  S56  1  0.01981618  0.37839491  0.91505791  1
  S  S57  1  0.51950172  0.37270409  0.91516764  1
  S  S58  1  0.16908189  0.96054518  0.91475419  1
  S  S59  1  0.66704358  0.96046340  0.91561662  1
  S  S60  1  0.31000358  0.95930514  0.41466853  1
  S  S61  1  0.81320712  0.96201657  0.41594402  1
  S  S62  1  0.16760755  0.37361295  0.41569031  1
  S  S63  1  0.67017867  0.38099936  0.41509582  1
  S  S64  1  0.01914936  0.66608880  0.41537624  1
  S  S65  1  0.52017895  0.65849746  0.41538128  1
  O  O66  1  0.10890168  0.03546245  0.30307512  1
  O  O67  1  0.60001325  0.02568294  0.30259407  1
  O  O68  1  0.41119530  0.79253022  0.30225729  1
  O  O69  1  0.90944788  0.78652559  0.30374533  1
  O  O70  1  0.48448519  0.17660404  0.30244825  1
  O  O71  1  0.98463658  0.18209020  0.30351023  1
  O  O72  1  0.10171546  0.17671099  0.80305381  1
  O  O73  1  0.60804844  0.18307331  0.80407078  1
  O  O74  1  0.48325130  0.78408499  0.80414204  1
  O  O75  1  0.98684406  0.79687477  0.80303692  1
  O  O76  1  0.40867154  0.03250804  0.80430036  1
  O  O77  1  0.91159891  0.02682995  0.80293094  1
  O  O78  1  0.39914584  0.98089371  0.69841792  1
  O  O79  1  0.89368517  0.97526592  0.69696116  1
  O  O80  1  0.09405397  0.21222471  0.69702730  1
  O  O81  1  0.59123580  0.20175291  0.69833727  1
  O  O82  1  0.01238836  0.81193943  0.69703104  1
  O  O83  1  0.50943913  0.81769264  0.69834682  1
  O  O84  1  0.39476289  0.81514951  0.19659003  1
  O  O85  1  0.89868862  0.81688877  0.19812846  1
  O  O86  1  0.01022953  0.20135842  0.19787174  1
  O  O87  1  0.51189584  0.21225930  0.19675450  1
  O  O88  1  0.09140109  0.97856892  0.19759704  1
  O  O89  1  0.59343098  0.97265568  0.19705219  1
  O  O90  1  0.44043264  0.36771374  0.63524967  1
  O  O91  1  0.94023493  0.36088129  0.63590132  1
  O  O92  1  0.24046294  0.11878801  0.63541026  1
  O  O93  1  0.74323355  0.11996448  0.63571058  1
  O  O94  1  0.31642108  0.51373687  0.63560188  1
  O  O95  1  0.81918187  0.51867358  0.63543719  1
  O  O96  1  0.43579648  0.51487536  0.13551534  1
  O  O97  1  0.94098048  0.51420944  0.13585188  1
  O  O98  1  0.32145673  0.12839680  0.13538404  1
  O  O99  1  0.81634016  0.11884111  0.13605573  1
  O  O100  1  0.24493658  0.36199487  0.13542226  1
  O  O101  1  0.73937506  0.36148506  0.13604721  1
  O  O102  1  0.22659194  0.30003885  0.03051194  1
  O  O103  1  0.72586447  0.29987481  0.03015801  1
  O  O104  1  0.42334873  0.54510157  0.03030390  1
  O  O105  1  0.92417971  0.54973277  0.03049139  1
  O  O106  1  0.34859938  0.15206755  0.03003226  1
  O  O107  1  0.85071914  0.15328984  0.03072413  1
  O  O108  1  0.22535321  0.15118793  0.52961733  1
  O  O109  1  0.72501930  0.15205712  0.53028462  1
  O  O110  1  0.35182706  0.55136305  0.53038318  1
  O  O111  1  0.84938082  0.54752450  0.52949991  1
  O  O112  1  0.42407311  0.29842324  0.52986247  1
  O  O113  1  0.92415744  0.29858125  0.53012772  1
  O  O114  1  0.26720575  0.68675998  0.97014513  1
  O  O115  1  0.77009771  0.68995486  0.96909772  1
  O  O116  1  0.07564490  0.46117392  0.96957276  1
  O  O117  1  0.57512256  0.46394996  0.96964436  1
  O  O118  1  0.15495681  0.84935285  0.96921472  1
  O  O119  1  0.65671734  0.84844870  0.96999534  1
  O  O120  1  0.27040538  0.84992699  0.46790402  1
  O  O121  1  0.76703557  0.84794300  0.46904830  1
  O  O122  1  0.15745334  0.46509469  0.46881516  1
  O  O123  1  0.65465967  0.46144151  0.46820080  1
  O  O124  1  0.07579467  0.68734153  0.46854340  1
  O  O125  1  0.57513387  0.68892027  0.46853578  1
  O  O126  1  0.05966490  0.64118269  0.36259030  1
  O  O127  1  0.56072363  0.63430611  0.36303737  1
  O  O128  1  0.25700371  0.87828313  0.36222698  1
  O  O129  1  0.76016828  0.88077282  0.36337779  1
  O  O130  1  0.18092050  0.48016669  0.36292105  1
  O  O131  1  0.68158411  0.48563935  0.36275639  1
  O  O132  1  0.06178357  0.48717959  0.86403014  1
  O  O133  1  0.56094778  0.48039461  0.86357325  1
  O  O134  1  0.18186145  0.87739044  0.86360479  1
  O  O135  1  0.67918671  0.87701962  0.86397301  1
  O  O136  1  0.25919213  0.64135614  0.86416904  1
  O  O137  1  0.75689968  0.63607976  0.86346422  1
  O  O138  1  0.01351808  0.82874741  0.41297788  1
  O  O139  1  0.51289179  0.82289012  0.40864071  1
  O  O140  1  0.39904753  0.97331662  0.40732841  1
  O  O141  1  0.90011308  0.97333704  0.41387978  1
  O  O142  1  0.08669521  0.19921397  0.41311089  1
  O  O143  1  0.58742012  0.20256288  0.40855653  1
  O  O144  1  0.01347602  0.20245037  0.90947410  1
  O  O145  1  0.51297499  0.19826480  0.91368036  1
  O  O146  1  0.08776706  0.97360665  0.90944962  1
  O  O147  1  0.58618599  0.97315376  0.91401715  1
  O  O148  1  0.40032888  0.82760586  0.91418729  1
  O  O149  1  0.89917687  0.82461978  0.90908325  1
  O  O150  1  0.48954452  0.17764891  0.59274066  1
  O  O151  1  0.98971474  0.17282947  0.58915354  1
  O  O152  1  0.09691843  0.01951952  0.58886687  1
  O  O153  1  0.59910853  0.02176046  0.59296359  1
  O  O154  1  0.41146619  0.80205349  0.59320549  1
  O  O155  1  0.91321057  0.80565475  0.58873658  1
  O  O156  1  0.48844934  0.80324009  0.08998913  1
  O  O157  1  0.99048096  0.80245889  0.09342726  1
  O  O158  1  0.41215349  0.02042528  0.09028509  1
  O  O159  1  0.91098003  0.02101021  0.09266000  1
  O  O160  1  0.10049547  0.17784259  0.09376213  1
  O  O161  1  0.59633868  0.17397654  0.08853279  1
  O  O162  1  0.34524747  0.16114843  0.74398484  1
  O  O163  1  0.84658574  0.16224825  0.74648969  1
  O  O164  1  0.23447390  0.30653277  0.74685782  1
  O  O165  1  0.73549859  0.31006046  0.74347880  1
  O  O166  1  0.41929817  0.52883386  0.74359039  1
  O  O167  1  0.91899953  0.53121355  0.74680157  1
  O  O168  1  0.34635682  0.53140112  0.24338638  1
  O  O169  1  0.84500898  0.52899827  0.24403154  1
  O  O170  1  0.41918229  0.30788192  0.24419569  1
  O  O171  1  0.91990976  0.30947225  0.24335340  1
  O  O172  1  0.23535771  0.16040088  0.24075370  1
  O  O173  1  0.73351128  0.16155863  0.24697635  1
  O  O174  1  0.32103763  0.50706707  0.92356095  1
  O  O175  1  0.82334236  0.50884401  0.92303659  1
  O  O176  1  0.43180002  0.35590924  0.92279990  1
  O  O177  1  0.93173909  0.35505462  0.92377125  1
  O  O178  1  0.24564478  0.13684573  0.92333411  1
  O  O179  1  0.74639629  0.13593573  0.92333228  1
  O  O180  1  0.32362688  0.13777427  0.42224011  1
  O  O181  1  0.82135924  0.13676475  0.42345103  1
  O  O182  1  0.24692508  0.35597865  0.42270564  1
  O  O183  1  0.74561687  0.35507201  0.42295115  1
  O  O184  1  0.43124438  0.50684737  0.42294105  1
  O  O185  1  0.93154534  0.50798767  0.42269353  1
  O  O186  1  0.17898520  0.48982145  0.07568807  1
  O  O187  1  0.67751961  0.48967005  0.07325862  1
  O  O188  1  0.06766283  0.64610993  0.07332412  1
  O  O189  1  0.56541956  0.64063348  0.07598527  1
  O  O190  1  0.25427224  0.86852011  0.07556118  1
  O  O191  1  0.75539113  0.86576745  0.07367648  1
  O  O192  1  0.17815022  0.86619367  0.57288673  1
  O  O193  1  0.67652054  0.86576737  0.57363129  1
  O  O194  1  0.25608218  0.64625124  0.57318750  1
  O  O195  1  0.75524268  0.64432023  0.57334549  1
  O  O196  1  0.06698479  0.48903859  0.57368065  1
  O  O197  1  0.56707052  0.48857773  0.57280930  1
  O  O198  1  0.15599185  0.84424219  0.25575075  1
  O  O199  1  0.65358297  0.84230862  0.25919414  1
  O  O200  1  0.26654179  0.68817331  0.25860320  1
  O  O201  1  0.76755102  0.69266233  0.25576178  1
  O  O202  1  0.07956605  0.46477926  0.25518502  1
  O  O203  1  0.57722973  0.46725709  0.25924562  1
  O  O204  1  0.15471368  0.46524666  0.75879970  1
  O  O205  1  0.65331505  0.46477704  0.75567734  1
  O  O206  1  0.07815922  0.69042260  0.75900940  1
  O  O207  1  0.57875824  0.69369532  0.75535321  1
  O  O208  1  0.26792501  0.84220034  0.75546486  1
  O  O209  1  0.76702046  0.84376581  0.75897110  1
