# generated using pymatgen
data_Na5Hf2Si3Ge2(PO8)3
_symmetry_space_group_name_H-M   'P 1'
_cell_length_a   8.83229331
_cell_length_b   8.82124564
_cell_length_c   22.19651567
_cell_angle_alpha   90.11321011
_cell_angle_beta   89.74208759
_cell_angle_gamma   119.69930322
_symmetry_Int_Tables_number   1
_chemical_formula_structural   Na5Hf2Si3Ge2(PO8)3
_chemical_formula_sum   'Na15 Hf6 Si9 Ge6 P9 O72'
_cell_volume   1502.18139991
_cell_formula_units_Z   3
loop_
 _symmetry_equiv_pos_site_id
 _symmetry_equiv_pos_as_xyz
  1  'x, y, z'
loop_
 _atom_site_type_symbol
 _atom_site_label
 _atom_site_symmetry_multiplicity
 _atom_site_fract_x
 _atom_site_fract_y
 _atom_site_fract_z
 _atom_site_occupancy
  Na  Na0  1  0.00169297  0.61969220  0.25039688  1
  Na  Na1  1  0.36624728  0.99953386  0.74638630  1
  Na  Na2  1  0.03275818  0.70074261  0.58044527  1
  Na  Na3  1  0.66236932  0.96113798  0.58486670  1
  Na  Na4  1  0.30081934  0.97396338  0.08149209  1
  Na  Na5  1  0.02646179  0.33947735  0.09092672  1
  Na  Na6  1  0.97816026  0.67171504  0.92031424  1
  Na  Na7  1  0.96922345  0.30282025  0.41432776  1
  Na  Na8  1  0.33683433  0.03272665  0.41886404  1
  Na  Na9  1  0.99740711  0.99721182  0.50032961  1
  Na  Na10  1  0.99474497  0.99932575  0.00060832  1
  Na  Na11  1  0.66712359  0.32613735  0.82916690  1
  Na  Na12  1  0.66219894  0.33347523  0.33866016  1
  Na  Na13  1  0.35525992  0.65597833  0.16850029  1
  Na  Na14  1  0.33445258  0.63780540  0.66134315  1
  Hf  Hf15  1  0.99714982  0.00639612  0.84920011  1
  Hf  Hf16  1  0.66290502  0.32874111  0.19235865  1
  Hf  Hf17  1  0.65658480  0.32899214  0.98113769  1
  Hf  Hf18  1  0.33483534  0.66750126  0.02083214  1
  Hf  Hf19  1  0.33655145  0.66526899  0.31481233  1
  Hf  Hf20  1  0.34039078  0.66916965  0.80677098  1
  Si  Si21  1  0.00174953  0.27673664  0.25325469  1
  Si  Si22  1  0.71618330  0.01410470  0.74081364  1
  Si  Si23  1  0.37590447  0.04836178  0.58211513  1
  Si  Si24  1  0.65967072  0.61398200  0.58321301  1
  Si  Si25  1  0.95412401  0.63454410  0.08654800  1
  Si  Si26  1  0.36540668  0.32733513  0.08890646  1
  Si  Si27  1  0.33705513  0.96649901  0.91369711  1
  Si  Si28  1  0.62770565  0.95967451  0.42094364  1
  Si  Si29  1  0.03736103  0.66577996  0.41941634  1
  Ge  Ge30  1  0.98700049  0.98993448  0.35636056  1
  Ge  Ge31  1  0.99789036  0.99682951  0.64287612  1
  Ge  Ge32  1  0.00015952  0.00187797  0.14847683  1
  Ge  Ge33  1  0.66455462  0.33268179  0.68120517  1
  Ge  Ge34  1  0.66803886  0.33741564  0.48289553  1
  Ge  Ge35  1  0.34371799  0.67755761  0.51967735  1
  P  P36  1  0.27638694  0.00127941  0.25382033  1
  P  P37  1  0.72345720  0.72692646  0.25093620  1
  P  P38  1  0.28937644  0.28324098  0.74134857  1
  P  P39  1  0.98587231  0.70047934  0.74415680  1
  P  P40  1  0.95691821  0.33399605  0.58157708  1
  P  P41  1  0.67512839  0.04098337  0.08633045  1
  P  P42  1  0.62575247  0.66653659  0.91446866  1
  P  P43  1  0.04340113  0.37491543  0.91640045  1
  P  P44  1  0.34000699  0.38241421  0.42184356  1
  O  O45  1  0.18962977  0.01847343  0.31228085  1
  O  O46  1  0.83503718  0.80226618  0.30853500  1
  O  O47  1  0.98344944  0.16690619  0.31520477  1
  O  O48  1  0.20883204  0.17070346  0.79840115  1
  O  O49  1  0.96739831  0.78682683  0.80220623  1
  O  O50  1  0.82856522  0.03864011  0.80100740  1
  O  O51  1  0.80702386  0.98080408  0.68159136  1
  O  O52  1  0.17280173  0.19208072  0.68658456  1
  O  O53  1  0.02755399  0.82496983  0.68890760  1
  O  O54  1  0.80825989  0.83229478  0.19355672  1
  O  O55  1  0.01818397  0.18878439  0.19023049  1
  O  O56  1  0.16886929  0.97273387  0.19544305  1
  O  O57  1  0.87242177  0.37384393  0.63625037  1
  O  O58  1  0.50532510  0.12886472  0.64029044  1
  O  O59  1  0.62798125  0.49341538  0.64250162  1
  O  O60  1  0.87034834  0.50211697  0.14367485  1
  O  O61  1  0.64003009  0.12350486  0.14155255  1
  O  O62  1  0.48485627  0.35157387  0.14634287  1
  O  O63  1  0.45326138  0.28623394  0.03053260  1
  O  O64  1  0.84474901  0.54534400  0.02522780  1
  O  O65  1  0.70681754  0.15890985  0.03080486  1
  O  O66  1  0.46475278  0.16719402  0.52209435  1
  O  O67  1  0.71299703  0.53095069  0.52660101  1
  O  O68  1  0.83910100  0.29191590  0.52480450  1
  O  O69  1  0.53610995  0.68062361  0.97160008  1
  O  O70  1  0.14333973  0.45823552  0.97538323  1
  O  O71  1  0.31399705  0.85098904  0.97445804  1
  O  O72  1  0.54443624  0.84217225  0.48178790  1
  O  O73  1  0.30020755  0.47181664  0.47513670  1
  O  O74  1  0.17259077  0.71035927  0.47712461  1
  O  O75  1  0.11736867  0.62158881  0.35956368  1
  O  O76  1  0.49559492  0.87232656  0.36501806  1
  O  O77  1  0.36600579  0.48854884  0.36415272  1
  O  O78  1  0.14247293  0.48996719  0.86224741  1
  O  O79  1  0.34761180  0.86411899  0.85351606  1
  O  O80  1  0.51832362  0.64738760  0.85796238  1
  O  O81  1  0.02842351  0.84836313  0.41067997  1
  O  O82  1  0.82527667  0.98706667  0.41203296  1
  O  O83  1  0.17607886  0.19715877  0.41693082  1
  O  O84  1  0.02078584  0.19235494  0.91159775  1
  O  O85  1  0.15735591  0.97545646  0.91009036  1
  O  O86  1  0.80778975  0.82953582  0.91015109  1
  O  O87  1  0.97506451  0.16830452  0.58761441  1
  O  O88  1  0.17481651  0.01586998  0.58921783  1
  O  O89  1  0.83753390  0.81365321  0.58867477  1
  O  O90  1  0.97797207  0.82901275  0.09456719  1
  O  O91  1  0.84012665  0.02602999  0.09179370  1
  O  O92  1  0.17112165  0.15201293  0.09318401  1
  O  O93  1  0.69333368  0.18897422  0.73682033  1
  O  O94  1  0.47132529  0.29718786  0.73756540  1
  O  O95  1  0.82066498  0.52198522  0.73804761  1
  O  O96  1  0.70468674  0.54300811  0.24693351  1
  O  O97  1  0.83086801  0.30541558  0.25264072  1
  O  O98  1  0.45832953  0.16232535  0.25120968  1
  O  O99  1  0.65298436  0.50712953  0.91867741  1
  O  O100  1  0.86563295  0.36732730  0.91980663  1
  O  O101  1  0.51056405  0.15544308  0.91729480  1
  O  O102  1  0.64587754  0.15627113  0.42700437  1
  O  O103  1  0.50344391  0.36158807  0.42696347  1
  O  O104  1  0.84785702  0.48806787  0.42775230  1
  O  O105  1  0.33574033  0.49319111  0.08175420  1
  O  O106  1  0.15293748  0.66285720  0.08100883  1
  O  O107  1  0.51214575  0.86119512  0.07909437  1
  O  O108  1  0.35288744  0.84785338  0.57704558  1
  O  O109  1  0.48774272  0.63987197  0.57591802  1
  O  O110  1  0.13708641  0.50143316  0.57478411  1
  O  O111  1  0.29267212  0.83395585  0.25681719  1
  O  O112  1  0.54337035  0.71111976  0.25598827  1
  O  O113  1  0.17378200  0.47404725  0.25419245  1
  O  O114  1  0.30783549  0.46489193  0.74809893  1
  O  O115  1  0.15132464  0.68124367  0.74945687  1
  O  O116  1  0.51792944  0.84214459  0.74632319  1
