# generated using pymatgen
data_MnTeMoO6
_symmetry_space_group_name_H-M   'P 1'
_cell_length_a   5.14049741
_cell_length_b   5.41586905
_cell_length_c   9.30268662
_cell_angle_alpha   89.93748833
_cell_angle_beta   89.87857445
_cell_angle_gamma   90.62648671
_symmetry_Int_Tables_number   1
_chemical_formula_structural   MnTeMoO6
_chemical_formula_sum   'Mn2 Te2 Mo2 O12'
_cell_volume   258.97299777
_cell_formula_units_Z   2
loop_
 _symmetry_equiv_pos_site_id
 _symmetry_equiv_pos_as_xyz
  1  'x, y, z'
loop_
 _atom_site_type_symbol
 _atom_site_label
 _atom_site_symmetry_multiplicity
 _atom_site_fract_x
 _atom_site_fract_y
 _atom_site_fract_z
 _atom_site_occupancy
  Mn  Mn0  1  0.99969000  0.99954200  0.47267300  1
  Mn  Mn1  1  0.49942000  0.49831700  0.53573200  1
  Te  Te2  1  0.99995800  0.49996300  0.26083500  1
  Te  Te3  1  0.49997800  0.99993400  0.74330900  1
  Mo  Mo4  1  0.49997800  0.00014500  0.19217700  1
  Mo  Mo5  1  0.00024600  0.50078300  0.80238800  1
  O  O6  1  0.71531500  0.17583100  0.60796300  1
  O  O7  1  0.22005400  0.33347500  0.39520800  1
  O  O8  1  0.77961900  0.66541800  0.39574500  1
  O  O9  1  0.28480200  0.82485800  0.60845100  1
  O  O10  1  0.76074000  0.17795300  0.29330100  1
  O  O11  1  0.25880700  0.31765900  0.70360700  1
  O  O12  1  0.16049000  0.70706200  0.91549900  1
  O  O13  1  0.65740000  0.79304600  0.08002400  1
  O  O14  1  0.34289100  0.20732700  0.07995700  1
  O  O15  1  0.84030600  0.29314900  0.91522300  1
  O  O16  1  0.23919700  0.82146700  0.29362300  1
  O  O17  1  0.74110900  0.68407100  0.70428400  1
