# generated using pymatgen
data_BrNO3
_symmetry_space_group_name_H-M   'P 1'
_cell_length_a   4.11367551
_cell_length_b   6.77359703
_cell_length_c   11.57273897
_cell_angle_alpha   90.00000000
_cell_angle_beta   90.00000000
_cell_angle_gamma   90.00000000
_symmetry_Int_Tables_number   1
_chemical_formula_structural   BrNO3
_chemical_formula_sum   'Br4 N4 O12'
_cell_volume   322.46719881
_cell_formula_units_Z   4
loop_
 _symmetry_equiv_pos_site_id
 _symmetry_equiv_pos_as_xyz
  1  'x, y, z'
loop_
 _atom_site_type_symbol
 _atom_site_label
 _atom_site_symmetry_multiplicity
 _atom_site_fract_x
 _atom_site_fract_y
 _atom_site_fract_z
 _atom_site_occupancy
  Br  Br0  1  0.24018622  0.98260668  0.77237215  1
  Br  Br1  1  0.74018622  0.51739332  0.22762785  1
  Br  Br2  1  0.75981378  0.48260668  0.72762785  1
  Br  Br3  1  0.25981378  0.01739332  0.27237215  1
  N  N4  1  0.18343889  0.98442077  0.53199394  1
  N  N5  1  0.68343889  0.51557923  0.46800606  1
  N  N6  1  0.81656111  0.48442077  0.96800606  1
  N  N7  1  0.31656111  0.01557923  0.03199394  1
  O  O8  1  0.09453786  0.90001180  0.03705728  1
  O  O9  1  0.59453786  0.59998820  0.96294272  1
  O  O10  1  0.90546214  0.40001180  0.46294272  1
  O  O11  1  0.40546214  0.09998820  0.53705728  1
  O  O12  1  0.45285647  0.09649046  0.12718377  1
  O  O13  1  0.95285647  0.40350954  0.87281623  1
  O  O14  1  0.54714353  0.59649046  0.37281623  1
  O  O15  1  0.04714353  0.90350954  0.62718377  1
  O  O16  1  0.45521560  0.07922949  0.94247464  1
  O  O17  1  0.95521560  0.42077051  0.05752536  1
  O  O18  1  0.54478440  0.57922949  0.55752536  1
  O  O19  1  0.04478440  0.92077051  0.44247464  1
