# generated using pymatgen
data_Na4Y2Mg2SiS5O24
_symmetry_space_group_name_H-M   'P 1'
_cell_length_a   9.12324446
_cell_length_b   9.05488546
_cell_length_c   23.29378806
_cell_angle_alpha   89.86234208
_cell_angle_beta   89.96623627
_cell_angle_gamma   119.92272814
_symmetry_Int_Tables_number   1
_chemical_formula_structural   Na4Y2Mg2SiS5O24
_chemical_formula_sum   'Na12 Y6 Mg6 Si3 S15 O72'
_cell_volume   1667.77892354
_cell_formula_units_Z   3
loop_
 _symmetry_equiv_pos_site_id
 _symmetry_equiv_pos_as_xyz
  1  'x, y, z'
loop_
 _atom_site_type_symbol
 _atom_site_label
 _atom_site_symmetry_multiplicity
 _atom_site_fract_x
 _atom_site_fract_y
 _atom_site_fract_z
 _atom_site_occupancy
  Na  Na0  1  0.99224201  0.62921144  0.23849608  1
  Na  Na1  1  0.98512563  0.34185696  0.76196720  1
  Na  Na2  1  0.37220720  0.99428136  0.75255650  1
  Na  Na3  1  0.65360115  0.97518798  0.59143994  1
  Na  Na4  1  0.67893581  0.68269969  0.07634015  1
  Na  Na5  1  0.33852881  0.03525971  0.42222509  1
  Na  Na6  1  0.01864841  0.00293830  0.49899187  1
  Na  Na7  1  0.01500243  0.98962471  0.00455754  1
  Na  Na8  1  0.66659721  0.32748245  0.84400536  1
  Na  Na9  1  0.66677108  0.33348470  0.33010128  1
  Na  Na10  1  0.31344237  0.66225015  0.16531648  1
  Na  Na11  1  0.35924937  0.69057370  0.67042267  1
  Y  Y12  1  0.98392446  0.99453638  0.85448069  1
  Y  Y13  1  0.00258311  0.99611525  0.64713101  1
  Y  Y14  1  0.00572373  0.00384414  0.15006469  1
  Y  Y15  1  0.65728079  0.32634702  0.68123529  1
  Y  Y16  1  0.31548250  0.66759379  0.02167837  1
  Y  Y17  1  0.32880194  0.66681519  0.51311572  1
  Mg  Mg18  1  0.99379315  0.00220565  0.34758065  1
  Mg  Mg19  1  0.67132148  0.33105451  0.17992336  1
  Mg  Mg20  1  0.67833761  0.34418724  0.98640536  1
  Mg  Mg21  1  0.65864009  0.33142374  0.48212571  1
  Mg  Mg22  1  0.33980537  0.66344883  0.31716083  1
  Mg  Mg23  1  0.35659722  0.68059126  0.81995736  1
  Si  Si24  1  0.69148844  0.99296369  0.74665546  1
  Si  Si25  1  0.36436884  0.03330943  0.57724483  1
  Si  Si26  1  0.95227673  0.62153150  0.08852331  1
  S  S27  1  0.30129791  0.99794445  0.25590445  1
  S  S28  1  0.69936640  0.70242137  0.25340877  1
  S  S29  1  0.00133104  0.30320074  0.25482356  1
  S  S30  1  0.29543016  0.30481134  0.75297175  1
  S  S31  1  0.00889595  0.69819226  0.75319071  1
  S  S32  1  0.95785942  0.33428990  0.58017969  1
  S  S33  1  0.66826215  0.62924351  0.57797345  1
  S  S34  1  0.66746265  0.04681424  0.08311664  1
  S  S35  1  0.38582192  0.33224480  0.08284188  1
  S  S36  1  0.62072746  0.65071106  0.91916206  1
  S  S37  1  0.03248563  0.37666145  0.91357073  1
  S  S38  1  0.34490296  0.97485917  0.91397453  1
  S  S39  1  0.63597089  0.96663122  0.41324971  1
  S  S40  1  0.33228124  0.36281108  0.41215276  1
  S  S41  1  0.02912475  0.66792303  0.41109433  1
  O  O42  1  0.22024532  0.02214479  0.30758892  1
  O  O43  1  0.81820948  0.79719637  0.30066248  1
  O  O44  1  0.98680293  0.19620867  0.30454543  1
  O  O45  1  0.21781047  0.18757483  0.80220230  1
  O  O46  1  0.98912678  0.78341372  0.80386036  1
  O  O47  1  0.83104337  0.03112519  0.79710231  1
  O  O48  1  0.77110128  0.97809100  0.68484919  1
  O  O49  1  0.19288752  0.22561064  0.70026013  1
  O  O50  1  0.03751781  0.80572315  0.70107473  1
  O  O51  1  0.77077346  0.79894900  0.19834158  1
  O  O52  1  0.02382337  0.22793567  0.20115660  1
  O  O53  1  0.18912990  0.96878382  0.20484245  1
  O  O54  1  0.89093916  0.35644225  0.63599224  1
  O  O55  1  0.46808824  0.11593534  0.63816044  1
  O  O56  1  0.65951236  0.54415998  0.63333389  1
  O  O57  1  0.87178591  0.52943010  0.14984209  1
  O  O58  1  0.64457858  0.12350392  0.13556203  1
  O  O59  1  0.48170350  0.34402062  0.13504835  1
  O  O60  1  0.45971928  0.30852249  0.03023404  1
  O  O61  1  0.83214559  0.53084347  0.03368140  1
  O  O62  1  0.67624855  0.13969339  0.03039309  1
  O  O63  1  0.46447929  0.14112819  0.52051588  1
  O  O64  1  0.68404369  0.53892613  0.52874138  1
  O  O65  1  0.85130158  0.32645466  0.53201126  1
  O  O66  1  0.54540949  0.67142046  0.97267759  1
  O  O67  1  0.13671738  0.46526009  0.96411583  1
  O  O68  1  0.32383805  0.86760725  0.96488768  1
  O  O69  1  0.56713844  0.87135130  0.46872621  1
  O  O70  1  0.30976272  0.43647533  0.46623405  1
  O  O71  1  0.14038637  0.69867773  0.46270381  1
  O  O72  1  0.11225757  0.64337463  0.36031522  1
  O  O73  1  0.51443386  0.87060991  0.36676018  1
  O  O74  1  0.34807368  0.47184864  0.36304827  1
  O  O75  1  0.11639559  0.46998812  0.85990316  1
  O  O76  1  0.35528015  0.88898632  0.86065514  1
  O  O77  1  0.52075002  0.64419346  0.86828485  1
  O  O78  1  0.01998378  0.82788935  0.40594310  1
  O  O79  1  0.80497831  0.98556088  0.40471654  1
  O  O80  1  0.18261407  0.18669336  0.40688004  1
  O  O81  1  0.01723958  0.20415014  0.91365431  1
  O  O82  1  0.19197100  0.99433582  0.91168071  1
  O  O83  1  0.79504202  0.80424759  0.91525590  1
  O  O84  1  0.95935901  0.16959939  0.58178222  1
  O  O85  1  0.17496539  0.01065742  0.58116297  1
  O  O86  1  0.81656720  0.80640604  0.57910889  1
  O  O87  1  0.97104402  0.81696941  0.08844397  1
  O  O88  1  0.82417418  0.03203755  0.08703013  1
  O  O89  1  0.20724698  0.18945057  0.08728969  1
  O  O90  1  0.67617279  0.16987804  0.74890221  1
  O  O91  1  0.46779829  0.33014300  0.74657067  1
  O  O92  1  0.85527394  0.52829548  0.74726586  1
  O  O93  1  0.68629329  0.53192685  0.25000216  1
  O  O94  1  0.84597816  0.31900857  0.25100592  1
  O  O95  1  0.47060375  0.14827122  0.24691041  1
  O  O96  1  0.63549055  0.49532934  0.92071903  1
  O  O97  1  0.86217364  0.35794144  0.91813480  1
  O  O98  1  0.49912739  0.14263473  0.91928614  1
  O  O99  1  0.64696956  0.13673490  0.41721418  1
  O  O100  1  0.48737433  0.34583621  0.41590243  1
  O  O101  1  0.86021095  0.51710056  0.42041803  1
  O  O102  1  0.38148404  0.49677750  0.07967889  1
  O  O103  1  0.14544071  0.64880430  0.08513622  1
  O  O104  1  0.52352070  0.86583119  0.08018903  1
  O  O105  1  0.35886838  0.84634529  0.57792348  1
  O  O106  1  0.51389230  0.64574803  0.57518334  1
  O  O107  1  0.13351950  0.47647914  0.57548310  1
  O  O108  1  0.30987118  0.83749825  0.26096255  1
  O  O109  1  0.53011652  0.68478721  0.26149688  1
  O  O110  1  0.15114755  0.47942736  0.25977528  1
  O  O111  1  0.29934284  0.46845292  0.76133302  1
  O  O112  1  0.15794051  0.67553140  0.75882168  1
  O  O113  1  0.50271236  0.83066359  0.75643685  1
