# generated using pymatgen
data_MgV4(PO5)4
_symmetry_space_group_name_H-M   'P 1'
_cell_length_a   5.19316994
_cell_length_b   10.38593274
_cell_length_c   7.39793289
_cell_angle_alpha   71.38007781
_cell_angle_beta   68.80978405
_cell_angle_gamma   77.99426934
_symmetry_Int_Tables_number   1
_chemical_formula_structural   MgV4(PO5)4
_chemical_formula_sum   'Mg1 V4 P4 O20'
_cell_volume   350.62049409
_cell_formula_units_Z   1
loop_
 _symmetry_equiv_pos_site_id
 _symmetry_equiv_pos_as_xyz
  1  'x, y, z'
loop_
 _atom_site_type_symbol
 _atom_site_label
 _atom_site_symmetry_multiplicity
 _atom_site_fract_x
 _atom_site_fract_y
 _atom_site_fract_z
 _atom_site_occupancy
  Mg  Mg0  1  0.50000000  0.25000000  0.25000000  1
  V  V1  1  0.07736000  0.50762600  0.98363600  1
  V  V2  1  0.00000000  0.75000000  0.25000000  1
  V  V3  1  0.50000000  0.24999900  0.75000000  1
  V  V4  1  0.92264100  0.99237400  0.51636400  1
  P  P5  1  0.58428400  0.02099500  0.19646500  1
  P  P6  1  0.41571700  0.47900600  0.30353500  1
  P  P7  1  0.28517500  0.96464700  0.80477000  1
  P  P8  1  0.71482600  0.53535400  0.69523000  1
  O  O9  1  0.28443900  0.06831300  0.33083200  1
  O  O10  1  0.23105000  0.41960900  0.22396800  1
  O  O11  1  0.01932300  0.84776000  0.41785000  1
  O  O12  1  0.23322600  0.87997600  0.02191000  1
  O  O13  1  0.34381100  0.62994000  0.28512600  1
  O  O14  1  0.25016400  0.11936000  0.77702900  1
  O  O15  1  0.38680300  0.37844300  0.51215800  1
  O  O16  1  0.22396100  0.34343600  0.92422700  1
  O  O17  1  0.76895100  0.08039100  0.27603200  1
  O  O18  1  0.08197600  0.92759100  0.72026500  1
  O  O19  1  0.71556200  0.43168600  0.16916900  1
  O  O20  1  0.41560000  0.58045700  0.82177900  1
  O  O21  1  0.77603800  0.15656400  0.57577400  1
  O  O22  1  0.61319600  0.12155700  0.98784300  1
  O  O23  1  0.91802400  0.57241000  0.77973500  1
  O  O24  1  0.65619000  0.87005900  0.21487400  1
  O  O25  1  0.76677400  0.62002500  0.47809000  1
  O  O26  1  0.98067800  0.65223900  0.08215000  1
  O  O27  1  0.58440100  0.91954200  0.67822000  1
  O  O28  1  0.74983700  0.38064000  0.72297100  1
