# generated using pymatgen
data_Na14Ca2Si9Ge6(SO16)3
_symmetry_space_group_name_H-M   'P 1'
_cell_length_a   17.87066632
_cell_length_b   9.01847151
_cell_length_c   21.89812766
_cell_angle_alpha   90.55594577
_cell_angle_beta   89.64061074
_cell_angle_gamma   120.25351781
_symmetry_Int_Tables_number   1
_chemical_formula_structural   Na14Ca2Si9Ge6(SO16)3
_chemical_formula_sum   'Na42 Ca6 Si27 Ge18 S9 O144'
_cell_volume   3048.42253678
_cell_formula_units_Z   3
loop_
 _symmetry_equiv_pos_site_id
 _symmetry_equiv_pos_as_xyz
  1  'x, y, z'
loop_
 _atom_site_type_symbol
 _atom_site_label
 _atom_site_symmetry_multiplicity
 _atom_site_fract_x
 _atom_site_fract_y
 _atom_site_fract_z
 _atom_site_occupancy
  Na  Na0  1  0.31038990  0.01056828  0.24598641  1
  Na  Na1  1  0.81388320  0.01369648  0.24914600  1
  Na  Na2  1  0.19146601  0.37225199  0.25684539  1
  Na  Na3  1  0.69129346  0.36874095  0.25134033  1
  Na  Na4  1  0.98905999  0.61386306  0.25631287  1
  Na  Na5  1  0.49463099  0.62566881  0.24935545  1
  Na  Na6  1  0.31360170  0.61723304  0.74468975  1
  Na  Na7  1  0.81152164  0.61485815  0.74233443  1
  Na  Na8  1  0.99402429  0.35487433  0.74383234  1
  Na  Na9  1  0.49149217  0.37134601  0.75084031  1
  Na  Na10  1  0.19185956  0.01869972  0.74641974  1
  Na  Na11  1  0.69304430  0.01228765  0.75275425  1
  Na  Na12  1  0.15765429  0.34306178  0.58302963  1
  Na  Na13  1  0.65851176  0.34877870  0.57851516  1
  Na  Na14  1  0.01407487  0.69357550  0.58044222  1
  Na  Na15  1  0.51076594  0.68780304  0.57328819  1
  Na  Na16  1  0.32914847  0.96988896  0.58509839  1
  Na  Na17  1  0.83211516  0.96247369  0.57338367  1
  Na  Na18  1  0.15736157  0.96803298  0.08558166  1
  Na  Na19  1  0.65865160  0.97193615  0.08705875  1
  Na  Na20  1  0.33264084  0.69467291  0.08405916  1
  Na  Na21  1  0.82829569  0.68873890  0.08898402  1
  Na  Na22  1  0.01227121  0.32988003  0.07758056  1
  Na  Na23  1  0.51634021  0.33627638  0.08667087  1
  Na  Na24  1  0.98393504  0.67004052  0.91880185  1
  Na  Na25  1  0.35035426  0.03142793  0.91167874  1
  Na  Na26  1  0.16349919  0.30256825  0.91714686  1
  Na  Na27  1  0.48623850  0.30107388  0.41892258  1
  Na  Na28  1  0.66820189  0.02866654  0.41487263  1
  Na  Na29  1  0.85077327  0.67421219  0.41926241  1
  Na  Na30  1  0.00197270  0.00267722  0.49443582  1
  Na  Na31  1  0.49497723  0.98811477  0.49524871  1
  Na  Na32  1  0.99281024  0.00144083  0.99635680  1
  Na  Na33  1  0.51046901  0.01087376  0.99821982  1
  Na  Na34  1  0.33902887  0.34475063  0.83034959  1
  Na  Na35  1  0.82284528  0.31577276  0.83394764  1
  Na  Na36  1  0.32388207  0.33149668  0.33463883  1
  Na  Na37  1  0.83701941  0.33180477  0.33134429  1
  Na  Na38  1  0.17289432  0.67826648  0.16769869  1
  Na  Na39  1  0.66907693  0.67459417  0.16739459  1
  Na  Na40  1  0.16754272  0.66151703  0.66088961  1
  Na  Na41  1  0.67427408  0.66801776  0.66471079  1
  Ca  Ca42  1  0.32828165  0.33684374  0.68536728  1
  Ca  Ca43  1  0.83990217  0.33168987  0.68161780  1
  Ca  Ca44  1  0.33803801  0.34338555  0.18459334  1
  Ca  Ca45  1  0.82716141  0.31942987  0.18604454  1
  Ca  Ca46  1  0.16546758  0.67211136  0.00770250  1
  Ca  Ca47  1  0.67055249  0.66701961  0.50525208  1
  Si  Si48  1  0.13678669  0.99734078  0.25148900  1
  Si  Si49  1  0.63533163  0.98318817  0.25355270  1
  Si  Si50  1  0.35525384  0.72656427  0.25165765  1
  Si  Si51  1  0.84896210  0.71231016  0.25570105  1
  Si  Si52  1  0.00806334  0.29687476  0.25634924  1
  Si  Si53  1  0.13510615  0.28597477  0.75451432  1
  Si  Si54  1  0.64033307  0.28423877  0.74922295  1
  Si  Si55  1  0.50788239  0.72315981  0.75774721  1
  Si  Si56  1  0.35029614  0.98539842  0.75595070  1
  Si  Si57  1  0.85550420  0.98485588  0.75167055  1
  Si  Si58  1  0.98698091  0.34629090  0.57883264  1
  Si  Si59  1  0.18567172  0.03918307  0.58368412  1
  Si  Si60  1  0.33308445  0.63479077  0.58155732  1
  Si  Si61  1  0.83599672  0.63577853  0.58614444  1
  Si  Si62  1  0.48495155  0.62523455  0.07776536  1
  Si  Si63  1  0.33611038  0.02641605  0.08792584  1
  Si  Si64  1  0.83295419  0.03081743  0.08054162  1
  Si  Si65  1  0.68625157  0.33275309  0.08332461  1
  Si  Si66  1  0.80839661  0.65521717  0.91403015  1
  Si  Si67  1  0.01065902  0.36144516  0.91824567  1
  Si  Si68  1  0.52792430  0.37510599  0.91293630  1
  Si  Si69  1  0.16620858  0.97266462  0.91704397  1
  Si  Si70  1  0.30888563  0.96146972  0.41487742  1
  Si  Si71  1  0.82793772  0.98702529  0.41785593  1
  Si  Si72  1  0.66484866  0.36416601  0.41528863  1
  Si  Si73  1  0.02884534  0.68109491  0.41310269  1
  Si  Si74  1  0.51116694  0.66005379  0.41824289  1
  Ge  Ge75  1  0.99701686  0.99197775  0.35160465  1
  Ge  Ge76  1  0.49555234  0.98254326  0.35815108  1
  Ge  Ge77  1  0.99468577  0.00642267  0.85774086  1
  Ge  Ge78  1  0.50367600  0.01761059  0.84834903  1
  Ge  Ge79  1  0.99734514  0.02183547  0.63871186  1
  Ge  Ge80  1  0.49269001  0.97400044  0.65728300  1
  Ge  Ge81  1  0.98845953  0.00675966  0.15972280  1
  Ge  Ge82  1  0.49844106  0.97696698  0.14155558  1
  Ge  Ge83  1  0.35061241  0.31473370  0.98027065  1
  Ge  Ge84  1  0.82587423  0.31465082  0.97708932  1
  Ge  Ge85  1  0.32544415  0.33588896  0.47707317  1
  Ge  Ge86  1  0.85198390  0.36354499  0.47243988  1
  Ge  Ge87  1  0.66936145  0.65101742  0.01655923  1
  Ge  Ge88  1  0.16967250  0.68463269  0.51540200  1
  Ge  Ge89  1  0.16624683  0.69062777  0.30774211  1
  Ge  Ge90  1  0.67326564  0.68898067  0.32260547  1
  Ge  Ge91  1  0.16208704  0.66597919  0.81555658  1
  Ge  Ge92  1  0.66634020  0.64405007  0.80743961  1
  S  S93  1  0.50503372  0.28786758  0.25182378  1
  S  S94  1  0.00608364  0.71818292  0.75413337  1
  S  S95  1  0.48225432  0.32480942  0.58403749  1
  S  S96  1  0.67589058  0.03067234  0.58407477  1
  S  S97  1  0.98075697  0.63702432  0.08323305  1
  S  S98  1  0.18080100  0.32391370  0.08047025  1
  S  S99  1  0.32263104  0.66901277  0.91392140  1
  S  S100  1  0.66639985  0.95940933  0.91599782  1
  S  S101  1  0.16897434  0.37904228  0.41616502  1
  O  O102  1  0.09189920  0.02307638  0.31187494  1
  O  O103  1  0.58697659  0.01231108  0.31072433  1
  O  O104  1  0.41581999  0.83175356  0.30796108  1
  O  O105  1  0.91174634  0.80300577  0.31401696  1
  O  O106  1  0.49589174  0.18881799  0.30685726  1
  O  O107  1  0.99189141  0.16047675  0.30892103  1
  O  O108  1  0.08826187  0.16076537  0.81210395  1
  O  O109  1  0.59717682  0.17080648  0.81054513  1
  O  O110  1  0.49146946  0.82615567  0.81317556  1
  O  O111  1  0.99834830  0.80149054  0.81004491  1
  O  O112  1  0.40935504  0.01428781  0.81709512  1
  O  O113  1  0.91548027  0.00128122  0.80859339  1
  O  O114  1  0.39357263  0.94575072  0.69426162  1
  O  O115  1  0.89830290  0.96099666  0.68636203  1
  O  O116  1  0.07793921  0.20393570  0.69008109  1
  O  O117  1  0.57446421  0.18480146  0.68946789  1
  O  O118  1  0.01588165  0.81383533  0.69748853  1
  O  O119  1  0.52367390  0.83261401  0.69251128  1
  O  O120  1  0.39683315  0.83274759  0.18586181  1
  O  O121  1  0.88996545  0.83549309  0.19248106  1
  O  O122  1  0.02361008  0.21803886  0.18924235  1
  O  O123  1  0.51152401  0.20366681  0.19406775  1
  O  O124  1  0.07333359  0.96583213  0.18887242  1
  O  O125  1  0.57907365  0.95296258  0.18815889  1
  O  O126  1  0.44210021  0.33875849  0.64132300  1
  O  O127  1  0.96871079  0.40219277  0.64459865  1
  O  O128  1  0.23926546  0.08447665  0.64601215  1
  O  O129  1  0.72468896  0.10643768  0.64108845  1
  O  O130  1  0.30677511  0.53470487  0.64497719  1
  O  O131  1  0.81971920  0.52881877  0.64736805  1
  O  O132  1  0.46310443  0.52516112  0.14116594  1
  O  O133  1  0.93930841  0.54213588  0.13948717  1
  O  O134  1  0.31289832  0.10293785  0.14585945  1
  O  O135  1  0.80659595  0.07903097  0.14432624  1
  O  O136  1  0.23009743  0.34773966  0.13705173  1
  O  O137  1  0.74089702  0.39815194  0.14490631  1
  O  O138  1  0.22708522  0.31118919  0.02498699  1
  O  O139  1  0.73574974  0.28584731  0.02726812  1
  O  O140  1  0.40778361  0.51238657  0.02428612  1
  O  O141  1  0.92864270  0.54805383  0.02725378  1
  O  O142  1  0.35417470  0.15112766  0.02435814  1
  O  O143  1  0.85600875  0.17559726  0.02536693  1
  O  O144  1  0.23596434  0.18709136  0.52926692  1
  O  O145  1  0.71966488  0.13348513  0.52929161  1
  O  O146  1  0.35561929  0.53309411  0.52660259  1
  O  O147  1  0.85101266  0.53541201  0.52440597  1
  O  O148  1  0.42841088  0.30579796  0.52928413  1
  O  O149  1  0.91163560  0.30569757  0.52729238  1
  O  O150  1  0.28729831  0.69274533  0.97054082  1
  O  O151  1  0.76611270  0.69377655  0.97395736  1
  O  O152  1  0.06433380  0.41958731  0.98018726  1
  O  O153  1  0.58366841  0.46514709  0.97355536  1
  O  O154  1  0.14222400  0.87395859  0.98015868  1
  O  O155  1  0.65891859  0.86252028  0.97185557  1
  O  O156  1  0.26731566  0.83940782  0.47459678  1
  O  O157  1  0.79681646  0.87474000  0.47817914  1
  O  O158  1  0.16248374  0.46493822  0.47251485  1
  O  O159  1  0.63517222  0.40835260  0.47852775  1
  O  O160  1  0.08401071  0.69630789  0.47380522  1
  O  O161  1  0.56325312  0.70509411  0.48073141  1
  O  O162  1  0.06973092  0.63955323  0.35239659  1
  O  O163  1  0.56635967  0.62496339  0.36188815  1
  O  O164  1  0.24881568  0.87469694  0.35335399  1
  O  O165  1  0.75422451  0.88750982  0.36114902  1
  O  O166  1  0.18058649  0.47822693  0.36041125  1
  O  O167  1  0.68564062  0.51116184  0.36034114  1
  O  O168  1  0.06522821  0.51274455  0.86278383  1
  O  O169  1  0.56805095  0.49246749  0.85197958  1
  O  O170  1  0.18891899  0.87292250  0.86017977  1
  O  O171  1  0.67750384  0.88070888  0.85989178  1
  O  O172  1  0.26311173  0.64507037  0.86060080  1
  O  O173  1  0.74800421  0.62317018  0.85292673  1
  O  O174  1  0.01367783  0.84702238  0.41075437  1
  O  O175  1  0.50121158  0.82998132  0.40901293  1
  O  O176  1  0.40999232  0.99928615  0.40864017  1
  O  O177  1  0.92291643  0.00097876  0.40813129  1
  O  O178  1  0.09276935  0.20441506  0.41497490  1
  O  O179  1  0.57944280  0.16958118  0.40357256  1
  O  O180  1  0.00061891  0.17175915  0.90878736  1
  O  O181  1  0.51010880  0.17228762  0.91081487  1
  O  O182  1  0.08090601  0.99346261  0.90537681  1
  O  O183  1  0.58921016  0.98208322  0.91431619  1
  O  O184  1  0.40959575  0.82769488  0.90929954  1
  O  O185  1  0.91001574  0.82087935  0.90818601  1
  O  O186  1  0.48838211  0.16417351  0.58474377  1
  O  O187  1  0.98782850  0.16182867  0.58169152  1
  O  O188  1  0.09119287  0.03279435  0.59078231  1
  O  O189  1  0.58974774  0.02692018  0.58712123  1
  O  O190  1  0.42617806  0.82904393  0.58964429  1
  O  O191  1  0.92987880  0.82636905  0.58786386  1
  O  O192  1  0.48608396  0.81094657  0.08158835  1
  O  O193  1  0.98749253  0.80987578  0.08391693  1
  O  O194  1  0.43069608  0.03155989  0.08933915  1
  O  O195  1  0.92581807  0.02076647  0.08924735  1
  O  O196  1  0.09556725  0.15815887  0.08213836  1
  O  O197  1  0.59208235  0.15035365  0.09010564  1
  O  O198  1  0.34130271  0.15252641  0.75487273  1
  O  O199  1  0.84443134  0.15188584  0.75324925  1
  O  O200  1  0.23163654  0.31618782  0.75630939  1
  O  O201  1  0.73616255  0.31281388  0.75009085  1
  O  O202  1  0.42473390  0.53443056  0.75488606  1
  O  O203  1  0.93151618  0.54196157  0.75424747  1
  O  O204  1  0.34402134  0.53730962  0.25341001  1
  O  O205  1  0.83923830  0.52665345  0.25312396  1
  O  O206  1  0.42842993  0.31085292  0.25157676  1
  O  O207  1  0.92556200  0.32160743  0.25303621  1
  O  O208  1  0.23304835  0.16136292  0.25185429  1
  O  O209  1  0.73113398  0.14779492  0.25502348  1
  O  O210  1  0.32786584  0.50947353  0.91358469  1
  O  O211  1  0.82083098  0.48588617  0.92551416  1
  O  O212  1  0.42705012  0.34485369  0.91924639  1
  O  O213  1  0.91696684  0.35883637  0.92053550  1
  O  O214  1  0.25865114  0.16975005  0.92370005  1
  O  O215  1  0.74784307  0.13740751  0.91854507  1
  O  O216  1  0.31973594  0.15502545  0.42660591  1
  O  O217  1  0.82688955  0.17002486  0.42231669  1
  O  O218  1  0.25060354  0.36418382  0.41951387  1
  O  O219  1  0.75588648  0.35539421  0.42054542  1
  O  O220  1  0.41721810  0.47424066  0.42046854  1
  O  O221  1  0.92932727  0.51035654  0.41728910  1
  O  O222  1  0.16771709  0.47224443  0.07765363  1
  O  O223  1  0.66859776  0.49507867  0.07136713  1
  O  O224  1  0.06754851  0.65534685  0.08166697  1
  O  O225  1  0.58362762  0.66644945  0.06180278  1
  O  O226  1  0.25729931  0.83295240  0.07970999  1
  O  O227  1  0.74951006  0.83627810  0.06754895  1
  O  O228  1  0.16903340  0.84271034  0.57114912  1
  O  O229  1  0.66193780  0.85544665  0.58082040  1
  O  O230  1  0.25098514  0.66538586  0.56846649  1
  O  O231  1  0.75424662  0.66470737  0.58095958  1
  O  O232  1  0.08573892  0.50331497  0.56357424  1
  O  O233  1  0.56870834  0.47999385  0.58170061  1
  O  O234  1  0.14186681  0.81681276  0.24995423  1
  O  O235  1  0.64123168  0.80304539  0.25959458  1
  O  O236  1  0.25875854  0.71295096  0.25540166  1
  O  O237  1  0.75337904  0.70369648  0.25987607  1
  O  O238  1  0.09976077  0.48533681  0.25925418  1
  O  O239  1  0.58588336  0.46062398  0.25278439  1
  O  O240  1  0.14093064  0.47945290  0.76156311  1
  O  O241  1  0.64343882  0.47249720  0.74898906  1
  O  O242  1  0.08999314  0.71028428  0.75626204  1
  O  O243  1  0.59843607  0.71426325  0.76119939  1
  O  O244  1  0.25362377  0.80275355  0.75961525  1
  O  O245  1  0.75878468  0.80675230  0.75592121  1
