# generated using pymatgen
data_Na12Mg4Ta2Si3(PO6)6
_symmetry_space_group_name_H-M   'P 1'
_cell_length_a   9.09499920
_cell_length_b   9.09499888
_cell_length_c   21.99823417
_cell_angle_alpha   90.00000000
_cell_angle_beta   90.00000000
_cell_angle_gamma   120.00000115
_symmetry_Int_Tables_number   1
_chemical_formula_structural   Na12Mg4Ta2Si3(PO6)6
_chemical_formula_sum   'Na24 Mg8 Ta4 Si6 P12 O72'
_cell_volume   1575.88224603
_cell_formula_units_Z   2
loop_
 _symmetry_equiv_pos_site_id
 _symmetry_equiv_pos_as_xyz
  1  'x, y, z'
loop_
 _atom_site_type_symbol
 _atom_site_label
 _atom_site_symmetry_multiplicity
 _atom_site_fract_x
 _atom_site_fract_y
 _atom_site_fract_z
 _atom_site_occupancy
  Na  Na0  1  0.64930514  0.01324222  0.24403851  1
  Na  Na1  1  0.36393708  0.35069486  0.24403851  1
  Na  Na2  1  0.98675778  0.63606292  0.24403851  1
  Na  Na3  1  0.64930514  0.63606292  0.74403851  1
  Na  Na4  1  0.98675778  0.35069486  0.74403851  1
  Na  Na5  1  0.36393708  0.01324222  0.74403851  1
  Na  Na6  1  0.29191883  0.33676775  0.58089547  1
  Na  Na7  1  0.04484993  0.70808117  0.58089547  1
  Na  Na8  1  0.66323225  0.95515007  0.58089547  1
  Na  Na9  1  0.29191883  0.95515007  0.08089547  1
  Na  Na10  1  0.66323225  0.70808117  0.08089547  1
  Na  Na11  1  0.04484993  0.33676775  0.08089547  1
  Na  Na12  1  0.98060491  0.69212263  0.91432990  1
  Na  Na13  1  0.71151672  0.01939509  0.91432990  1
  Na  Na14  1  0.30787737  0.28848328  0.91432990  1
  Na  Na15  1  0.98060491  0.28848328  0.41432990  1
  Na  Na16  1  0.30787737  0.01939509  0.41432990  1
  Na  Na17  1  0.71151672  0.69212263  0.41432990  1
  Na  Na18  1  -0.00000000  0.00000000  0.49460690  1
  Na  Na19  1  -0.00000000  0.00000000  0.99460690  1
  Na  Na20  1  0.66666700  0.33333300  0.82719293  1
  Na  Na21  1  0.66666700  0.33333300  0.32719293  1
  Na  Na22  1  0.33333300  0.66666700  0.15916614  1
  Na  Na23  1  0.33333300  0.66666700  0.65916614  1
  Mg  Mg24  1  -0.00000000  0.00000000  0.35097807  1
  Mg  Mg25  1  -0.00000000  0.00000000  0.85097807  1
  Mg  Mg26  1  -0.00000000  0.00000000  0.64919585  1
  Mg  Mg27  1  -0.00000000  0.00000000  0.14919585  1
  Mg  Mg28  1  0.66666700  0.33333300  0.68312241  1
  Mg  Mg29  1  0.66666700  0.33333300  0.18312241  1
  Mg  Mg30  1  0.33333300  0.66666700  0.01649418  1
  Mg  Mg31  1  0.33333300  0.66666700  0.51649418  1
  Ta  Ta32  1  0.66666700  0.33333300  0.97872896  1
  Ta  Ta33  1  0.66666700  0.33333300  0.47872896  1
  Ta  Ta34  1  0.33333300  0.66666700  0.31773227  1
  Ta  Ta35  1  0.33333300  0.66666700  0.81773227  1
  Si  Si36  1  0.62867667  0.66801902  0.92112877  1
  Si  Si37  1  0.03934135  0.37132333  0.92112877  1
  Si  Si38  1  0.33198098  0.96065865  0.92112877  1
  Si  Si39  1  0.62867667  0.96065865  0.42112877  1
  Si  Si40  1  0.33198098  0.37132333  0.42112877  1
  Si  Si41  1  0.03934135  0.66801902  0.42112877  1
  P  P42  1  0.29576861  0.99643785  0.24969225  1
  P  P43  1  0.70066923  0.70423139  0.24969225  1
  P  P44  1  0.00356215  0.29933077  0.24969225  1
  P  P45  1  0.29576861  0.29933077  0.74969225  1
  P  P46  1  0.00356215  0.70423139  0.74969225  1
  P  P47  1  0.70066923  0.99643785  0.74969225  1
  P  P48  1  0.95984632  0.33325357  0.58607336  1
  P  P49  1  0.37340825  0.04015368  0.58607336  1
  P  P50  1  0.66674643  0.62659175  0.58607336  1
  P  P51  1  0.95984632  0.62659175  0.08607336  1
  P  P52  1  0.66674643  0.04015368  0.08607336  1
  P  P53  1  0.37340825  0.33325357  0.08607336  1
  O  O54  1  0.21198598  0.01930829  0.30656267  1
  O  O55  1  0.80732231  0.78801402  0.30656267  1
  O  O56  1  0.98069171  0.19267769  0.30656267  1
  O  O57  1  0.21198598  0.19267769  0.80656267  1
  O  O58  1  0.98069171  0.78801402  0.80656267  1
  O  O59  1  0.80732231  0.01930829  0.80656267  1
  O  O60  1  0.77754334  0.96380286  0.69239450  1
  O  O61  1  0.18625952  0.22245666  0.69239450  1
  O  O62  1  0.03619714  0.81374048  0.69239450  1
  O  O63  1  0.77754334  0.81374048  0.19239450  1
  O  O64  1  0.03619714  0.22245666  0.19239450  1
  O  O65  1  0.18625952  0.96380286  0.19239450  1
  O  O66  1  0.87337389  0.35211944  0.64284718  1
  O  O67  1  0.47874655  0.12662611  0.64284718  1
  O  O68  1  0.64788056  0.52125345  0.64284718  1
  O  O69  1  0.87337389  0.52125345  0.14284718  1
  O  O70  1  0.64788056  0.12662611  0.14284718  1
  O  O71  1  0.47874655  0.35211944  0.14284718  1
  O  O72  1  0.47556332  0.31925553  0.02858081  1
  O  O73  1  0.84369321  0.52443668  0.02858081  1
  O  O74  1  0.68074447  0.15630679  0.02858081  1
  O  O75  1  0.47556332  0.15630679  0.52858081  1
  O  O76  1  0.68074447  0.52443668  0.52858081  1
  O  O77  1  0.84369321  0.31925553  0.52858081  1
  O  O78  1  0.54805303  0.70089005  0.98013899  1
  O  O79  1  0.15283602  0.45194697  0.98013899  1
  O  O80  1  0.29910995  0.84716398  0.98013899  1
  O  O81  1  0.54805303  0.84716398  0.48013899  1
  O  O82  1  0.29910995  0.45194697  0.48013899  1
  O  O83  1  0.15283602  0.70089005  0.48013899  1
  O  O84  1  0.13524133  0.63246405  0.36109061  1
  O  O85  1  0.49722171  0.86475867  0.36109061  1
  O  O86  1  0.36753595  0.50277829  0.36109061  1
  O  O87  1  0.13524133  0.50277829  0.86109061  1
  O  O88  1  0.36753595  0.86475867  0.86109061  1
  O  O89  1  0.49722171  0.63246405  0.86109061  1
  O  O90  1  0.00558101  0.82271976  0.40939082  1
  O  O91  1  0.81713875  0.99441899  0.40939082  1
  O  O92  1  0.17728024  0.18286125  0.40939082  1
  O  O93  1  0.00558101  0.18286125  0.90939082  1
  O  O94  1  0.17728024  0.99441899  0.90939082  1
  O  O95  1  0.81713875  0.82271976  0.90939082  1
  O  O96  1  0.96810202  0.16769718  0.58427365  1
  O  O97  1  0.19959516  0.03189798  0.58427365  1
  O  O98  1  0.83230282  0.80040484  0.58427365  1
  O  O99  1  0.96810202  0.80040484  0.08427365  1
  O  O100  1  0.83230282  0.03189798  0.08427365  1
  O  O101  1  0.19959516  0.16769718  0.08427365  1
  O  O102  1  0.67182311  0.15061866  0.74561851  1
  O  O103  1  0.47879655  0.32817689  0.74561851  1
  O  O104  1  0.84938134  0.52120345  0.74561851  1
  O  O105  1  0.67182311  0.52120345  0.24561851  1
  O  O106  1  0.84938134  0.32817689  0.24561851  1
  O  O107  1  0.47879655  0.15061866  0.24561851  1
  O  O108  1  0.63381290  0.48603238  0.92313695  1
  O  O109  1  0.85222047  0.36618710  0.92313695  1
  O  O110  1  0.51396762  0.14777953  0.92313695  1
  O  O111  1  0.63381290  0.14777953  0.42313695  1
  O  O112  1  0.51396762  0.36618710  0.42313695  1
  O  O113  1  0.85222047  0.48603238  0.42313695  1
  O  O114  1  0.35560113  0.49259389  0.08149155  1
  O  O115  1  0.13699176  0.64439887  0.08149155  1
  O  O116  1  0.50740611  0.86300824  0.08149155  1
  O  O117  1  0.35560113  0.86300824  0.58149155  1
  O  O118  1  0.50740611  0.64439887  0.58149155  1
  O  O119  1  0.13699176  0.49259389  0.58149155  1
  O  O120  1  0.31354323  0.82983496  0.25590959  1
  O  O121  1  0.51629073  0.68645677  0.25590959  1
  O  O122  1  0.17016504  0.48370927  0.25590959  1
  O  O123  1  0.31354323  0.48370927  0.75590959  1
  O  O124  1  0.17016504  0.68645677  0.75590959  1
  O  O125  1  0.51629073  0.82983496  0.75590959  1
