# generated using pymatgen
data_HfPbS3
_symmetry_space_group_name_H-M   'P 1'
_cell_length_a   3.76009552
_cell_length_b   9.13466260
_cell_length_c   14.04024182
_cell_angle_alpha   90.00000000
_cell_angle_beta   90.00000000
_cell_angle_gamma   90.00000000
_symmetry_Int_Tables_number   1
_chemical_formula_structural   HfPbS3
_chemical_formula_sum   'Hf4 Pb4 S12'
_cell_volume   482.24304886
_cell_formula_units_Z   4
loop_
 _symmetry_equiv_pos_site_id
 _symmetry_equiv_pos_as_xyz
  1  'x, y, z'
loop_
 _atom_site_type_symbol
 _atom_site_label
 _atom_site_symmetry_multiplicity
 _atom_site_fract_x
 _atom_site_fract_y
 _atom_site_fract_z
 _atom_site_occupancy
  Hf  Hf0  1  0.25000000  0.16461852  0.95075908  1
  Hf  Hf1  1  0.75000000  0.83538148  0.04924092  1
  Hf  Hf2  1  0.25000000  0.66461852  0.54924092  1
  Hf  Hf3  1  0.75000000  0.33538148  0.45075908  1
  Pb  Pb4  1  0.25000000  0.52239521  0.17364681  1
  Pb  Pb5  1  0.75000000  0.47760479  0.82635319  1
  Pb  Pb6  1  0.25000000  0.02239521  0.32635319  1
  Pb  Pb7  1  0.75000000  0.97760479  0.67364681  1
  S  S8  1  0.25000000  0.01074005  0.10374297  1
  S  S9  1  0.75000000  0.98925995  0.89625703  1
  S  S10  1  0.25000000  0.51074005  0.39625703  1
  S  S11  1  0.75000000  0.48925995  0.60374297  1
  S  S12  1  0.25000000  0.17212158  0.50884507  1
  S  S13  1  0.75000000  0.82787842  0.49115493  1
  S  S14  1  0.25000000  0.67212158  0.99115493  1
  S  S15  1  0.75000000  0.32787842  0.00884507  1
  S  S16  1  0.75000000  0.23004924  0.28696414  1
  S  S17  1  0.25000000  0.76995076  0.71303586  1
  S  S18  1  0.75000000  0.73004924  0.21303586  1
  S  S19  1  0.25000000  0.26995076  0.78696414  1
