# generated using pymatgen
data_NaLa4PS5O24
_symmetry_space_group_name_H-M   'P 1'
_cell_length_a   9.58104535
_cell_length_b   9.58005440
_cell_length_c   25.19100200
_cell_angle_alpha   90.00255191
_cell_angle_beta   89.99993193
_cell_angle_gamma   119.86826067
_symmetry_Int_Tables_number   1
_chemical_formula_structural   NaLa4PS5O24
_chemical_formula_sum   'Na3 La12 P3 S15 O72'
_cell_volume   2005.08107520
_cell_formula_units_Z   3
loop_
 _symmetry_equiv_pos_site_id
 _symmetry_equiv_pos_as_xyz
  1  'x, y, z'
loop_
 _atom_site_type_symbol
 _atom_site_label
 _atom_site_symmetry_multiplicity
 _atom_site_fract_x
 _atom_site_fract_y
 _atom_site_fract_z
 _atom_site_occupancy
  Na  Na0  1  0.99905166  0.99216596  0.99731647  1
  Na  Na1  1  0.65904078  0.33203302  0.83851407  1
  Na  Na2  1  0.67266167  0.33208373  0.33003243  1
  La  La3  1  0.99829020  0.00565539  0.35243966  1
  La  La4  1  0.99978061  0.99244425  0.85412028  1
  La  La5  1  0.00073032  0.00047691  0.64794951  1
  La  La6  1  0.00174367  0.00768257  0.15104002  1
  La  La7  1  0.66586734  0.33329029  0.68496097  1
  La  La8  1  0.67465518  0.33449371  0.18318777  1
  La  La9  1  0.65922219  0.33375578  0.97990715  1
  La  La10  1  0.66726623  0.33337152  0.48245276  1
  La  La11  1  0.33955555  0.67428729  0.01663100  1
  La  La12  1  0.33301726  0.66710128  0.51951303  1
  La  La13  1  0.32647620  0.65957183  0.31010319  1
  La  La14  1  0.34170388  0.67358415  0.81730069  1
  P  P15  1  0.99481858  0.29073209  0.25116911  1
  P  P16  1  0.62841708  0.66686506  0.91672353  1
  P  P17  1  0.33410762  0.96212996  0.91666417  1
  S  S18  1  0.29556333  0.00412185  0.25106857  1
  S  S19  1  0.70850569  0.70498734  0.25103000  1
  S  S20  1  0.29357047  0.29268680  0.75026921  1
  S  S21  1  0.99880927  0.70428211  0.74968681  1
  S  S22  1  0.70905664  0.00300772  0.74995048  1
  S  S23  1  0.95920016  0.33334779  0.58345178  1
  S  S24  1  0.37422777  0.04121479  0.58328842  1
  S  S25  1  0.66698447  0.62612669  0.58333012  1
  S  S26  1  0.96084131  0.63012513  0.08248713  1
  S  S27  1  0.66973522  0.04066722  0.08254071  1
  S  S28  1  0.37078774  0.33173259  0.08334160  1
  S  S29  1  0.03848537  0.37191439  0.91657594  1
  S  S30  1  0.62272708  0.95919049  0.41604360  1
  S  S31  1  0.33663760  0.37573505  0.41636154  1
  S  S32  1  0.03931160  0.66513844  0.41612095  1
  O  O33  1  0.21688654  0.02534010  0.29861281  1
  O  O34  1  0.80880652  0.78178983  0.29846204  1
  O  O35  1  0.97222890  0.18426001  0.30104486  1
  O  O36  1  0.21759277  0.19120271  0.79759055  1
  O  O37  1  0.97234973  0.77951861  0.79721051  1
  O  O38  1  0.80874299  0.02701006  0.79751323  1
  O  O39  1  0.78806107  0.98483007  0.70169716  1
  O  O40  1  0.19700656  0.21317217  0.70185703  1
  O  O41  1  0.01645085  0.80222980  0.70171541  1
  O  O42  1  0.78430310  0.80087095  0.20266992  1
  O  O43  1  0.01614900  0.20985780  0.20084659  1
  O  O44  1  0.19859486  0.98198866  0.20285538  1
  O  O45  1  0.88213507  0.35800521  0.63080900  1
  O  O46  1  0.47551255  0.11763769  0.63074870  1
  O  O47  1  0.64243116  0.52457333  0.63074586  1
  O  O48  1  0.88249282  0.53240164  0.13088324  1
  O  O49  1  0.65042046  0.11832250  0.13100585  1
  O  O50  1  0.46867298  0.34987975  0.13140197  1
  O  O51  1  0.44785513  0.30708237  0.03576077  1
  O  O52  1  0.85838655  0.55117846  0.03534709  1
  O  O53  1  0.69241269  0.14165773  0.03520634  1
  O  O54  1  0.45111404  0.14232537  0.53565167  1
  O  O55  1  0.69115412  0.54878919  0.53566555  1
  O  O56  1  0.85806202  0.30907629  0.53571356  1
  O  O57  1  0.54506448  0.68484012  0.96719604  1
  O  O58  1  0.13460183  0.44857540  0.96478415  1
  O  O59  1  0.31355542  0.85972885  0.96699023  1
  O  O60  1  0.54581365  0.86329272  0.46456214  1
  O  O61  1  0.31706867  0.45314930  0.46464646  1
  O  O62  1  0.13587471  0.68385538  0.46446161  1
  O  O63  1  0.11596906  0.64038711  0.36875344  1
  O  O64  1  0.52340953  0.88281375  0.36859071  1
  O  O65  1  0.36027491  0.47561667  0.36884422  1
  O  O66  1  0.11517419  0.46826178  0.86830721  1
  O  O67  1  0.35182615  0.87892123  0.86593009  1
  O  O68  1  0.52665893  0.64637331  0.86610488  1
  O  O69  1  0.02200062  0.80807711  0.40956190  1
  O  O70  1  0.78351814  0.97591963  0.41056833  1
  O  O71  1  0.19367217  0.21525276  0.41034384  1
  O  O72  1  0.02081021  0.20917705  0.91190036  1
  O  O73  1  0.18218536  0.98203316  0.91201064  1
  O  O74  1  0.79861133  0.81988446  0.91190620  1
  O  O75  1  0.97581971  0.18994567  0.59062842  1
  O  O76  1  0.21435897  0.02472501  0.59056948  1
  O  O77  1  0.81015097  0.78573780  0.59067910  1
  O  O78  1  0.97678384  0.79172175  0.08871332  1
  O  O79  1  0.81458562  0.02328835  0.08813227  1
  O  O80  1  0.20949557  0.18542549  0.08846282  1
  O  O81  1  0.69131479  0.14807915  0.74384017  1
  O  O82  1  0.45633291  0.30919200  0.74405115  1
  O  O83  1  0.85237134  0.54252357  0.74361630  1
  O  O84  1  0.68927100  0.54194634  0.24587131  1
  O  O85  1  0.84285698  0.31008446  0.24581929  1
  O  O86  1  0.45725594  0.14885482  0.24574235  1
  O  O87  1  0.64852114  0.51512978  0.92091177  1
  O  O88  1  0.87560094  0.35444567  0.92111895  1
  O  O89  1  0.48708538  0.13224554  0.92116512  1
  O  O90  1  0.64182214  0.12277436  0.42201819  1
  O  O91  1  0.48149921  0.35762871  0.42228650  1
  O  O92  1  0.87672838  0.51970706  0.42210495  1
  O  O93  1  0.35426368  0.47474555  0.07672729  1
  O  O94  1  0.11970120  0.64428492  0.07648653  1
  O  O95  1  0.52559793  0.88127348  0.07733400  1
  O  O96  1  0.35788166  0.88106563  0.57580626  1
  O  O97  1  0.52329664  0.64255405  0.57573712  1
  O  O98  1  0.11902575  0.47679913  0.57577169  1
  O  O99  1  0.31302994  0.86057719  0.25746138  1
  O  O100  1  0.54850352  0.68974508  0.25751373  1
  O  O101  1  0.14546714  0.45786760  0.25881587  1
  O  O102  1  0.30987607  0.45215900  0.75602019  1
  O  O103  1  0.14105434  0.68732899  0.75604516  1
  O  O104  1  0.54901971  0.85964658  0.75516511  1
