# generated using pymatgen
data_Na4MgCr2O8
_symmetry_space_group_name_H-M   'P 1'
_cell_length_a   5.57085574
_cell_length_b   5.57085631
_cell_length_c   7.59406118
_cell_angle_alpha   88.08798136
_cell_angle_beta   91.91201515
_cell_angle_gamma   112.61946218
_symmetry_Int_Tables_number   1
_chemical_formula_structural   Na4MgCr2O8
_chemical_formula_sum   'Na4 Mg1 Cr2 O8'
_cell_volume   217.37404055
_cell_formula_units_Z   1
loop_
 _symmetry_equiv_pos_site_id
 _symmetry_equiv_pos_as_xyz
  1  'x, y, z'
loop_
 _atom_site_type_symbol
 _atom_site_label
 _atom_site_symmetry_multiplicity
 _atom_site_fract_x
 _atom_site_fract_y
 _atom_site_fract_z
 _atom_site_occupancy
  Na  Na0  1  0.20176600  0.79823400  0.73015900  1
  Na  Na1  1  0.79823400  0.20176600  0.26984100  1
  Na  Na2  1  0.50000000  0.50000000  0.50000000  1
  Na  Na3  1  0.50000000  0.50000000  0.00000000  1
  Mg  Mg4  1  0.00000000  0.00000000  0.00000000  1
  Cr  Cr5  1  0.83760100  0.16239900  0.74343500  1
  Cr  Cr6  1  0.16239900  0.83760100  0.25656500  1
  O  O7  1  0.23603700  0.76396300  0.05297500  1
  O  O8  1  0.74283300  0.25716700  0.55172000  1
  O  O9  1  0.76396300  0.23603700  0.94702500  1
  O  O10  1  0.25716700  0.74283300  0.44828000  1
  O  O11  1  0.17808900  0.24492400  0.77685300  1
  O  O12  1  0.82191100  0.75507600  0.22314700  1
  O  O13  1  0.75507600  0.82191100  0.77685300  1
  O  O14  1  0.24492400  0.17808900  0.22314700  1
