# generated using pymatgen
data_Na2LaGaSi(SO6)2
_symmetry_space_group_name_H-M   'P 1'
_cell_length_a   9.13465703
_cell_length_b   9.17404969
_cell_length_c   23.54059655
_cell_angle_alpha   89.15539875
_cell_angle_beta   88.87445668
_cell_angle_gamma   120.15156421
_symmetry_Int_Tables_number   1
_chemical_formula_structural   Na2LaGaSi(SO6)2
_chemical_formula_sum   'Na12 La6 Ga6 Si6 S12 O72'
_cell_volume   1704.81134774
_cell_formula_units_Z   6
loop_
 _symmetry_equiv_pos_site_id
 _symmetry_equiv_pos_as_xyz
  1  'x, y, z'
loop_
 _atom_site_type_symbol
 _atom_site_label
 _atom_site_symmetry_multiplicity
 _atom_site_fract_x
 _atom_site_fract_y
 _atom_site_fract_z
 _atom_site_occupancy
  Na  Na0  1  0.99828127  0.62922338  0.25698111  1
  Na  Na1  1  0.37967423  0.01179236  0.74144367  1
  Na  Na2  1  0.65819091  0.95984784  0.59587559  1
  Na  Na3  1  0.03409602  0.34105494  0.10267927  1
  Na  Na4  1  0.99197638  0.67818250  0.93161458  1
  Na  Na5  1  0.32399645  0.02354255  0.41565625  1
  Na  Na6  1  0.00879215  0.98434262  0.50090553  1
  Na  Na7  1  0.02299577  0.98150620  0.00335449  1
  Na  Na8  1  0.66743361  0.30045143  0.82748467  1
  Na  Na9  1  0.67783139  0.33385344  0.33780416  1
  Na  Na10  1  0.33743352  0.65535088  0.17719839  1
  Na  Na11  1  0.33269998  0.66505773  0.66266357  1
  La  La12  1  0.99403992  0.00984952  0.84257306  1
  La  La13  1  0.00066104  0.98292133  0.16224823  1
  La  La14  1  0.64579848  0.31670524  0.98294479  1
  La  La15  1  0.33620667  0.69188784  0.02390185  1
  La  La16  1  0.31342797  0.67785628  0.51327689  1
  La  La17  1  0.36288865  0.69004746  0.80746764  1
  Ga  Ga18  1  0.96320753  0.98592986  0.34868588  1
  Ga  Ga19  1  0.01577568  0.00194370  0.64611571  1
  Ga  Ga20  1  0.66447877  0.31940924  0.67685241  1
  Ga  Ga21  1  0.69786746  0.32355102  0.19240511  1
  Ga  Ga22  1  0.67365687  0.36033942  0.48861060  1
  Ga  Ga23  1  0.28020039  0.61697346  0.32226327  1
  Si  Si24  1  0.00041636  0.29320236  0.25250016  1
  Si  Si25  1  0.71609474  0.01866010  0.73309378  1
  Si  Si26  1  0.37833612  0.06728228  0.58198515  1
  Si  Si27  1  0.94985283  0.62097337  0.08787661  1
  Si  Si28  1  0.32910266  0.98012582  0.90652464  1
  Si  Si29  1  0.01146847  0.67134487  0.41231294  1
  S  S30  1  0.32537969  0.99640303  0.25797894  1
  S  S31  1  0.67488604  0.68446439  0.25953193  1
  S  S32  1  0.31449391  0.30203270  0.73691641  1
  S  S33  1  0.98531641  0.69288325  0.74010191  1
  S  S34  1  0.94399656  0.32574291  0.58212931  1
  S  S35  1  0.67988627  0.62727382  0.58632823  1
  S  S36  1  0.66467947  0.03587150  0.09558438  1
  S  S37  1  0.36978126  0.33759201  0.09428114  1
  S  S38  1  0.64476560  0.66685835  0.91773632  1
  S  S39  1  0.03874383  0.36633392  0.91838455  1
  S  S40  1  0.63309884  0.96749632  0.41323977  1
  S  S41  1  0.32510165  0.36027580  0.41308005  1
  O  O42  1  0.24413998  0.02617811  0.30772887  1
  O  O43  1  0.80897634  0.78238319  0.30222986  1
  O  O44  1  0.98144853  0.15474944  0.30135192  1
  O  O45  1  0.25050850  0.21302013  0.79311178  1
  O  O46  1  0.96283275  0.75342796  0.79594649  1
  O  O47  1  0.79402739  0.02334772  0.79494927  1
  O  O48  1  0.82934998  0.00058178  0.68031717  1
  O  O49  1  0.20313266  0.19830989  0.69157006  1
  O  O50  1  0.02128599  0.82314167  0.69437388  1
  O  O51  1  0.72987476  0.77499554  0.20339760  1
  O  O52  1  0.02597759  0.23553560  0.19022484  1
  O  O53  1  0.21414081  0.95239961  0.20763703  1
  O  O54  1  0.86508932  0.34418611  0.63488361  1
  O  O55  1  0.49236508  0.14808237  0.63764704  1
  O  O56  1  0.66715386  0.52155275  0.63597946  1
  O  O57  1  0.83980743  0.50327741  0.14550364  1
  O  O58  1  0.65329399  0.13406861  0.14316191  1
  O  O59  1  0.46094806  0.31965062  0.14159774  1
  O  O60  1  0.44644853  0.34020338  0.03787008  1
  O  O61  1  0.86969564  0.53859311  0.02666658  1
  O  O62  1  0.65839374  0.10852250  0.03972741  1
  O  O63  1  0.47472318  0.18241942  0.52209766  1
  O  O64  1  0.69653280  0.55436421  0.53186448  1
  O  O65  1  0.84903832  0.32512801  0.53105303  1
  O  O66  1  0.54186124  0.64220327  0.96958365  1
  O  O67  1  0.12292013  0.44876319  0.97128540  1
  O  O68  1  0.31960312  0.86067881  0.96143718  1
  O  O69  1  0.57933686  0.88202453  0.47079086  1
  O  O70  1  0.30417136  0.43599176  0.46539308  1
  O  O71  1  0.14791844  0.74098806  0.46349661  1
  O  O72  1  0.09846129  0.62557031  0.35756227  1
  O  O73  1  0.51516195  0.86481735  0.36962966  1
  O  O74  1  0.34697569  0.47223155  0.36261657  1
  O  O75  1  0.14683180  0.45642949  0.86731084  1
  O  O76  1  0.33190775  0.89211399  0.84584607  1
  O  O77  1  0.55659505  0.67152188  0.86625041  1
  O  O78  1  -0.00005314  0.84332240  0.39648713  1
  O  O79  1  0.80821854  0.99445725  0.40447030  1
  O  O80  1  0.17544156  0.18790215  0.40777169  1
  O  O81  1  0.99932026  0.18948801  0.92115696  1
  O  O82  1  0.14833457  0.97646080  0.91359542  1
  O  O83  1  0.80856771  0.82655715  0.92170542  1
  O  O84  1  0.94817424  0.16585088  0.58152391  1
  O  O85  1  0.18154282  0.03752085  0.58996089  1
  O  O86  1  0.83280624  0.80035244  0.58804968  1
  O  O87  1  0.97837315  0.81173363  0.08915622  1
  O  O88  1  0.82823820  0.03912603  0.09509975  1
  O  O89  1  0.19138219  0.19169729  0.09162905  1
  O  O90  1  0.68874266  0.18515292  0.73269063  1
  O  O91  1  0.48813532  0.32489044  0.73140547  1
  O  O92  1  0.83350329  0.52881365  0.73034864  1
  O  O93  1  0.67081449  0.51979454  0.25657924  1
  O  O94  1  0.83318011  0.32432600  0.25213873  1
  O  O95  1  0.49204311  0.15330033  0.24516955  1
  O  O96  1  0.68376676  0.52915697  0.91073796  1
  O  O97  1  0.87980709  0.37361504  0.91290494  1
  O  O98  1  0.49676957  0.16611696  0.90712182  1
  O  O99  1  0.64007903  0.13354140  0.41512695  1
  O  O100  1  0.48023042  0.34477827  0.41472277  1
  O  O101  1  0.82876814  0.49866335  0.43075862  1
  O  O102  1  0.35816085  0.49381548  0.09864265  1
  O  O103  1  0.13294200  0.62470337  0.09330141  1
  O  O104  1  0.52014839  0.86224832  0.10200628  1
  O  O105  1  0.37028582  0.88297729  0.57767572  1
  O  O106  1  0.52706707  0.64680424  0.58549100  1
  O  O107  1  0.11960734  0.47036663  0.58090874  1
  O  O108  1  0.34564942  0.84579138  0.26749321  1
  O  O109  1  0.50963468  0.66677585  0.27436535  1
  O  O110  1  0.16263720  0.48813778  0.26118779  1
  O  O111  1  0.32351785  0.46711139  0.73624651  1
  O  O112  1  0.14043484  0.67666585  0.74055208  1
  O  O113  1  0.52108649  0.85479332  0.72913057  1
