# generated using pymatgen
data_Na14Hf3Zn5Si6(SO8)6
_symmetry_space_group_name_H-M   'P 1'
_cell_length_a   18.42881247
_cell_length_b   9.15628846
_cell_length_c   22.22788622
_cell_angle_alpha   89.94369787
_cell_angle_beta   90.53559926
_cell_angle_gamma   119.81645947
_symmetry_Int_Tables_number   1
_chemical_formula_structural   Na14Hf3Zn5Si6(SO8)6
_chemical_formula_sum   'Na42 Hf9 Zn15 Si18 S18 O144'
_cell_volume   3254.04093873
_cell_formula_units_Z   3
loop_
 _symmetry_equiv_pos_site_id
 _symmetry_equiv_pos_as_xyz
  1  'x, y, z'
loop_
 _atom_site_type_symbol
 _atom_site_label
 _atom_site_symmetry_multiplicity
 _atom_site_fract_x
 _atom_site_fract_y
 _atom_site_fract_z
 _atom_site_occupancy
  Na  Na0  1  0.19539327  0.36276179  0.24737674  1
  Na  Na1  1  0.68853064  0.35770654  0.24771519  1
  Na  Na2  1  0.99575412  0.64406943  0.24955376  1
  Na  Na3  1  0.49265455  0.63105046  0.23759688  1
  Na  Na4  1  0.32021905  0.63339338  0.74408820  1
  Na  Na5  1  0.81782736  0.62647257  0.73280579  1
  Na  Na6  1  0.18943749  0.02262219  0.74786462  1
  Na  Na7  1  0.69344819  0.02672077  0.74584279  1
  Na  Na8  1  0.15381131  0.32851725  0.57345578  1
  Na  Na9  1  0.66400015  0.34705340  0.57627295  1
  Na  Na10  1  0.00947613  0.68811189  0.57319291  1
  Na  Na11  1  0.51953781  0.69102770  0.57540320  1
  Na  Na12  1  0.32020140  0.96774498  0.59148420  1
  Na  Na13  1  0.82023227  0.95631249  0.58942187  1
  Na  Na14  1  0.15674759  0.97744975  0.07647480  1
  Na  Na15  1  0.64653685  0.96094429  0.07214848  1
  Na  Na16  1  0.81927353  0.67292995  0.09017707  1
  Na  Na17  1  0.01912028  0.34834731  0.07568446  1
  Na  Na18  1  0.52148302  0.35562397  0.08829808  1
  Na  Na19  1  0.49369989  0.68526768  0.92360480  1
  Na  Na20  1  0.98482205  0.67847843  0.91905405  1
  Na  Na21  1  0.84938452  0.03625348  0.90503507  1
  Na  Na22  1  0.15992624  0.27700364  0.90578592  1
  Na  Na23  1  0.66539010  0.28117502  0.91462569  1
  Na  Na24  1  0.48814860  0.29880450  0.41917159  1
  Na  Na25  1  0.98311240  0.29115001  0.42327627  1
  Na  Na26  1  0.16486914  0.05221322  0.41381138  1
  Na  Na27  1  0.66740087  0.05145819  0.41440514  1
  Na  Na28  1  0.35260793  0.65992271  0.40385119  1
  Na  Na29  1  0.85237861  0.65773278  0.41480886  1
  Na  Na30  1  0.00352029  0.99521441  0.49653925  1
  Na  Na31  1  0.51413788  0.01343945  0.49348721  1
  Na  Na32  1  0.00779461  0.00842824  0.99295447  1
  Na  Na33  1  0.50007751  0.99644150  0.99595791  1
  Na  Na34  1  0.33341069  0.30123955  0.82856681  1
  Na  Na35  1  0.83002028  0.31776883  0.82628799  1
  Na  Na36  1  0.32532937  0.31886093  0.32484920  1
  Na  Na37  1  0.82051068  0.31933197  0.33018988  1
  Na  Na38  1  0.19557893  0.68328520  0.16010896  1
  Na  Na39  1  0.66800557  0.67625126  0.16079833  1
  Na  Na40  1  0.16089200  0.66214428  0.66232621  1
  Na  Na41  1  0.67115981  0.66610036  0.65955656  1
  Hf  Hf42  1  0.00041756  0.00576261  0.64966217  1
  Hf  Hf43  1  0.50365981  0.01380063  0.65270383  1
  Hf  Hf44  1  0.00364791  0.99893444  0.15152256  1
  Hf  Hf45  1  0.49917472  0.98426381  0.14772071  1
  Hf  Hf46  1  0.32573167  0.32679297  0.98463371  1
  Hf  Hf47  1  0.17592937  0.67498636  0.31146172  1
  Hf  Hf48  1  0.67377634  0.67066806  0.31098785  1
  Hf  Hf49  1  0.17226332  0.67745892  0.81188547  1
  Hf  Hf50  1  0.67131942  0.67606244  0.81128478  1
  Zn  Zn51  1  0.01189535  0.00537886  0.34249480  1
  Zn  Zn52  1  0.51168291  0.00507365  0.34194366  1
  Zn  Zn53  1  0.00912583  0.02176866  0.83915577  1
  Zn  Zn54  1  0.50988007  0.02267245  0.84428114  1
  Zn  Zn55  1  0.32041355  0.28968924  0.68580305  1
  Zn  Zn56  1  0.81863852  0.30932253  0.68008016  1
  Zn  Zn57  1  0.32496117  0.35573668  0.18202858  1
  Zn  Zn58  1  0.81583864  0.33387798  0.18607687  1
  Zn  Zn59  1  0.80651609  0.28832768  0.98712266  1
  Zn  Zn60  1  0.31013215  0.32158420  0.48534277  1
  Zn  Zn61  1  0.80292833  0.34227145  0.49423548  1
  Zn  Zn62  1  0.17250188  0.67393137  0.01419084  1
  Zn  Zn63  1  0.65331091  0.66286438  0.01967564  1
  Zn  Zn64  1  0.16460601  0.66310799  0.51307060  1
  Zn  Zn65  1  0.67565779  0.66316712  0.51797877  1
  Si  Si66  1  0.15674190  0.00634776  0.25161633  1
  Si  Si67  1  0.65225119  -0.00041337  0.25159221  1
  Si  Si68  1  0.35729991  0.71309552  0.25651848  1
  Si  Si69  1  0.85594411  0.70814611  0.25326607  1
  Si  Si70  1  0.15399357  0.30405033  0.75010090  1
  Si  Si71  1  0.65338906  0.30477379  0.75473200  1
  Si  Si72  1  0.35684183  0.00146445  0.75303501  1
  Si  Si73  1  0.85647814  0.01103923  0.75435605  1
  Si  Si74  1  0.17930017  0.01675628  0.58118280  1
  Si  Si75  1  0.67665233  0.01802722  0.58193016  1
  Si  Si76  1  0.83705799  0.63384841  0.58418314  1
  Si  Si77  1  0.47712768  0.62416601  0.08520433  1
  Si  Si78  1  0.17977878  0.34347167  0.08498672  1
  Si  Si79  1  0.67889378  0.33792548  0.08188874  1
  Si  Si80  1  0.16413244  0.95925416  0.92042361  1
  Si  Si81  1  0.66430704  0.96206377  0.91857506  1
  Si  Si82  1  0.16354508  0.36978629  0.42003103  1
  Si  Si83  1  0.66178358  0.36525189  0.41835236  1
  S  S84  1  0.00185053  0.30044507  0.25190214  1
  S  S85  1  0.50051348  0.29682904  0.25298024  1
  S  S86  1  0.00255360  0.70589234  0.75316911  1
  S  S87  1  0.50126948  0.70292920  0.75165411  1
  S  S88  1  0.47444292  0.32581595  0.58336130  1
  S  S89  1  0.98001854  0.33086959  0.58310756  1
  S  S90  1  0.33816675  0.63349534  0.58452784  1
  S  S91  1  0.97880397  0.63082776  0.08422643  1
  S  S92  1  0.33402460  0.04300327  0.08604873  1
  S  S93  1  0.84033961  0.05040572  0.08381661  1
  S  S94  1  0.31408125  0.66144077  0.91792431  1
  S  S95  1  0.81416033  0.66568652  0.91979077  1
  S  S96  1  0.01963159  0.37789270  0.91859661  1
  S  S97  1  0.51588771  0.37169296  0.91758960  1
  S  S98  1  0.31526683  0.96598369  0.42061302  1
  S  S99  1  0.81573733  0.96447363  0.41827419  1
  S  S100  1  0.01910917  0.66268402  0.41530929  1
  S  S101  1  0.51887986  0.65901935  0.41926935  1
  O  O102  1  0.11823911  0.04292263  0.31178697  1
  O  O103  1  0.61691158  0.03755801  0.31270105  1
  O  O104  1  0.40698271  0.80624869  0.31794663  1
  O  O105  1  0.91132616  0.80382121  0.31246250  1
  O  O106  1  0.49563858  0.20647563  0.30903725  1
  O  O107  1  0.99083133  0.20530764  0.30731983  1
  O  O108  1  0.11732231  0.18812081  0.81008012  1
  O  O109  1  0.61616919  0.19290847  0.81456985  1
  O  O110  1  0.49108106  0.77350390  0.80803295  1
  O  O111  1  0.99403038  0.78252893  0.80910190  1
  O  O112  1  0.40763105  0.98943352  0.80960750  1
  O  O113  1  0.90474775  0.01242353  0.81625734  1
  O  O114  1  0.39511107  0.96709092  0.68973070  1
  O  O115  1  0.90142845  0.97289287  0.69693301  1
  O  O116  1  0.09515171  0.20479485  0.69118292  1
  O  O117  1  0.59195296  0.20113141  0.69554053  1
  O  O118  1  0.01474297  0.81919619  0.70020281  1
  O  O119  1  0.51343070  0.82092372  0.69933173  1
  O  O120  1  0.40341289  0.83087985  0.19776513  1
  O  O121  1  0.90083444  0.82059003  0.19140506  1
  O  O122  1  0.01301941  0.20857503  0.19866981  1
  O  O123  1  0.51042845  0.21080807  0.19897366  1
  O  O124  1  0.08940460  0.97756311  0.19441224  1
  O  O125  1  0.58906749  0.97901599  0.19395385  1
  O  O126  1  0.42996828  0.34277220  0.63476761  1
  O  O127  1  0.93447725  0.34350299  0.63443291  1
  O  O128  1  0.24085104  0.09371930  0.63969544  1
  O  O129  1  0.73501869  0.09583966  0.64145857  1
  O  O130  1  0.33365942  0.53555313  0.63821774  1
  O  O131  1  0.82834620  0.51669522  0.64162563  1
  O  O132  1  0.43352757  0.50640751  0.14320787  1
  O  O133  1  0.93718184  0.53312591  0.13832224  1
  O  O134  1  0.32264611  0.12323915  0.13877535  1
  O  O135  1  0.83628755  0.14755071  0.13432619  1
  O  O136  1  0.22636392  0.36091070  0.14764282  1
  O  O137  1  0.74127571  0.38180208  0.13980386  1
  O  O138  1  0.23018213  0.30830988  0.02893082  1
  O  O139  1  0.71275196  0.28327823  0.02284920  1
  O  O140  1  0.42344490  0.52833591  0.02254676  1
  O  O141  1  0.93226720  0.54990203  0.02810472  1
  O  O142  1  0.34029660  0.14452113  0.03005605  1
  O  O143  1  0.85394014  0.14425036  0.02529583  1
  O  O144  1  0.21637919  0.13652779  0.52189212  1
  O  O145  1  0.71191122  0.13572902  0.52160264  1
  O  O146  1  0.35002476  0.55786179  0.52853129  1
  O  O147  1  0.86117907  0.56905864  0.52192825  1
  O  O148  1  0.42924651  0.30676597  0.52563054  1
  O  O149  1  0.93721551  0.31282243  0.52494564  1
  O  O150  1  0.27212885  0.67496504  0.97113436  1
  O  O151  1  0.77290257  0.67713549  0.97435995  1
  O  O152  1  0.06461370  0.45308476  0.97583464  1
  O  O153  1  0.55991473  0.44514815  0.97522248  1
  O  O154  1  0.15391182  0.85023118  0.98132429  1
  O  O155  1  0.65607181  0.85385860  0.97904469  1
  O  O156  1  0.27426629  0.87350861  0.47601374  1
  O  O157  1  0.77589437  0.87433438  0.47418664  1
  O  O158  1  0.15481267  0.45713756  0.48191799  1
  O  O159  1  0.64912280  0.44789698  0.47984859  1
  O  O160  1  0.06602603  0.67778439  0.47174949  1
  O  O161  1  0.56691876  0.67098701  0.47442946  1
  O  O162  1  0.06998001  0.66611247  0.36207778  1
  O  O163  1  0.56588924  0.65499559  0.36463399  1
  O  O164  1  0.25996747  0.86860857  0.36734799  1
  O  O165  1  0.75919557  0.86439093  0.36572750  1
  O  O166  1  0.17016863  0.49191809  0.36254947  1
  O  O167  1  0.66911011  0.48748591  0.36062814  1
  O  O168  1  0.07157851  0.48251345  0.86706371  1
  O  O169  1  0.56435181  0.48294401  0.86653124  1
  O  O170  1  0.17200813  0.85771149  0.86144085  1
  O  O171  1  0.67027443  0.85587218  0.86004569  1
  O  O172  1  0.26296332  0.64544121  0.86230847  1
  O  O173  1  0.76062502  0.65337006  0.86524609  1
  O  O174  1  0.00648083  0.81106840  0.41449837  1
  O  O175  1  0.50726443  0.80863899  0.41819855  1
  O  O176  1  0.39830599  0.98093765  0.41710479  1
  O  O177  1  0.89846291  0.97625051  0.41393145  1
  O  O178  1  0.07872948  0.18192826  0.41546059  1
  O  O179  1  0.57746650  0.17750324  0.41307963  1
  O  O180  1  0.00786283  0.20474035  0.91553528  1
  O  O181  1  0.50528775  0.20226922  0.91280470  1
  O  O182  1  0.07979104  0.97805740  0.91523332  1
  O  O183  1  0.57944785  0.97971843  0.91529127  1
  O  O184  1  0.40044380  0.79791453  0.91462440  1
  O  O185  1  0.89842801  0.81723585  0.91600570  1
  O  O186  1  0.48093198  0.16432524  0.58797413  1
  O  O187  1  0.98881674  0.17274669  0.58780946  1
  O  O188  1  0.08684189  0.00362888  0.58987752  1
  O  O189  1  0.58099020  0.00030302  0.58953666  1
  O  O190  1  0.41474120  0.80767671  0.58732828  1
  O  O191  1  0.91850818  0.82691791  0.59070977  1
  O  O192  1  0.48648009  0.81530330  0.08502183  1
  O  O193  1  0.98303991  0.80405832  0.08588930  1
  O  O194  1  0.41448155  0.04094387  0.08692096  1
  O  O195  1  0.91701316  0.02986131  0.08845118  1
  O  O196  1  0.08536675  0.16293097  0.08509386  1
  O  O197  1  0.58338780  0.17422668  0.09129064  1
  O  O198  1  0.34109900  0.16004935  0.74999288  1
  O  O199  1  0.83993581  0.16723378  0.74733414  1
  O  O200  1  0.25026659  0.33938215  0.74389898  1
  O  O201  1  0.74713181  0.33365418  0.74733723  1
  O  O202  1  0.42864118  0.53843891  0.73992657  1
  O  O203  1  0.93074319  0.53902760  0.74517924  1
  O  O204  1  0.34701360  0.52584969  0.25379186  1
  O  O205  1  0.84752927  0.52142578  0.25025986  1
  O  O206  1  0.42991221  0.32624113  0.24847980  1
  O  O207  1  0.93326132  0.33339497  0.24132049  1
  O  O208  1  0.24773541  0.16624028  0.24120060  1
  O  O209  1  0.74537009  0.15841145  0.24315126  1
  O  O210  1  0.31501815  0.49514011  0.91825710  1
  O  O211  1  0.82255641  0.51200818  0.91720146  1
  O  O212  1  0.43205006  0.36544630  0.91676129  1
  O  O213  1  0.93779184  0.37214487  0.91574156  1
  O  O214  1  0.24883256  0.15176971  0.92165437  1
  O  O215  1  0.75374846  0.14401008  0.91543255  1
  O  O216  1  0.32240345  0.13472839  0.41717440  1
  O  O217  1  0.82396102  0.13292638  0.41487584  1
  O  O218  1  0.25219741  0.36384051  0.41683521  1
  O  O219  1  0.74993968  0.35885946  0.41541298  1
  O  O220  1  0.43588938  0.50178059  0.41793385  1
  O  O221  1  0.93870511  0.50360641  0.41189939  1
  O  O222  1  0.16374060  0.50215186  0.07419816  1
  O  O223  1  0.67263343  0.51003520  0.07423258  1
  O  O224  1  0.06598421  0.66319943  0.08437620  1
  O  O225  1  0.57324194  0.65787600  0.08454150  1
  O  O226  1  0.26137619  0.87156301  0.07942584  1
  O  O227  1  0.76564507  0.88038769  0.08205678  1
  O  O228  1  0.16591149  0.82455232  0.57452649  1
  O  O229  1  0.66332602  0.82799141  0.57476824  1
  O  O230  1  0.26259473  0.65231233  0.58230065  1
  O  O231  1  0.75217859  0.65010306  0.58217031  1
  O  O232  1  0.06685130  0.47833020  0.58456279  1
  O  O233  1  0.56078737  0.46999809  0.58405586  1
  O  O234  1  0.14952395  0.81837216  0.25462607  1
  O  O235  1  0.64649161  0.81331040  0.25446180  1
  O  O236  1  0.25941550  0.68173525  0.25554916  1
  O  O237  1  0.75863997  0.67821828  0.25454635  1
  O  O238  1  0.08292175  0.46697786  0.25335999  1
  O  O239  1  0.58106563  0.46844697  0.25333245  1
  O  O240  1  0.15919765  0.48868957  0.75648335  1
  O  O241  1  0.65723537  0.48822049  0.75581628  1
  O  O242  1  0.08308061  0.69919888  0.75385485  1
  O  O243  1  0.58108127  0.69569985  0.75191314  1
  O  O244  1  0.25912370  0.82997232  0.75471578  1
  O  O245  1  0.76013398  0.83325635  0.75574789  1
