# generated using pymatgen
data_Bi2(MoO4)3
_symmetry_space_group_name_H-M   'P 1'
_cell_length_a   11.40764953
_cell_length_b   7.69546795
_cell_length_c   11.84755261
_cell_angle_alpha   65.68518407
_cell_angle_beta   89.99998247
_cell_angle_gamma   89.99997052
_symmetry_Int_Tables_number   1
_chemical_formula_structural   Bi2(MoO4)3
_chemical_formula_sum   'Bi8 Mo12 O48'
_cell_volume   947.80656234
_cell_formula_units_Z   4
loop_
 _symmetry_equiv_pos_site_id
 _symmetry_equiv_pos_as_xyz
  1  'x, y, z'
loop_
 _atom_site_type_symbol
 _atom_site_label
 _atom_site_symmetry_multiplicity
 _atom_site_fract_x
 _atom_site_fract_y
 _atom_site_fract_z
 _atom_site_occupancy
  Bi  Bi0  1  0.62930154  0.90701044  0.42237178  1
  Bi  Bi1  1  0.12930245  0.09298882  0.07762892  1
  Bi  Bi2  1  0.37069813  0.09298996  0.57762956  1
  Bi  Bi3  1  0.87069753  0.90700936  0.92237164  1
  Bi  Bi4  1  0.86722362  0.26106373  0.24182467  1
  Bi  Bi5  1  0.36722393  0.73893580  0.25817594  1
  Bi  Bi6  1  0.13277690  0.73893765  0.75817542  1
  Bi  Bi7  1  0.63277678  0.26106304  0.74182418  1
  Mo  Mo8  1  0.86820748  0.74055046  0.29519999  1
  Mo  Mo9  1  0.36820555  0.25944791  0.20480229  1
  Mo  Mo10  1  0.13179330  0.25945043  0.70480103  1
  Mo  Mo11  1  0.63179353  0.74055114  0.79519752  1
  Mo  Mo12  1  0.64841370  0.42389763  0.39312171  1
  Mo  Mo13  1  0.14841374  0.57610221  0.10687926  1
  Mo  Mo14  1  0.35158611  0.57610279  0.60687846  1
  Mo  Mo15  1  0.85158698  0.42389789  0.89311988  1
  Mo  Mo16  1  0.61544406  0.04773490  0.08108963  1
  Mo  Mo17  1  0.11544381  0.95226339  0.41891049  1
  Mo  Mo18  1  0.38455603  0.95226393  0.91891055  1
  Mo  Mo19  1  0.88455553  0.04773497  0.58108978  1
  O  O20  1  0.97276887  0.68947758  0.40561388  1
  O  O21  1  0.47276729  0.31052326  0.09438703  1
  O  O22  1  0.02723059  0.31052431  0.59438512  1
  O  O23  1  0.52723213  0.68947611  0.90561250  1
  O  O24  1  0.94251111  0.84742179  0.15353590  1
  O  O25  1  0.44251065  0.15257589  0.34646575  1
  O  O26  1  0.05748946  0.15257808  0.84646463  1
  O  O27  1  0.55748893  0.84742400  0.65353399  1
  O  O28  1  0.95152694  0.14208388  0.42483996  1
  O  O29  1  0.45152734  0.85791523  0.07515981  1
  O  O30  1  0.04847250  0.85791691  0.57516008  1
  O  O31  1  0.54847337  0.14208382  0.92484002  1
  O  O32  1  0.94217348  0.29702748  0.02234726  1
  O  O33  1  0.44217350  0.70297417  0.47765149  1
  O  O34  1  0.05782619  0.70297254  0.97765229  1
  O  O35  1  0.55782709  0.29702538  0.52234866  1
  O  O36  1  0.79246370  0.95288438  0.30116689  1
  O  O37  1  0.81110794  0.51688103  0.28965419  1
  O  O38  1  0.18888967  0.48312250  0.71034286  1
  O  O39  1  0.68889317  0.51688173  0.78965220  1
  O  O40  1  0.95214672  0.54205758  0.78017700  1
  O  O41  1  0.45214662  0.45794290  0.71982233  1
  O  O42  1  0.04785306  0.45794200  0.21982326  1
  O  O43  1  0.54785337  0.54205708  0.28017883  1
  O  O44  1  0.94829816  0.94096725  0.73841802  1
  O  O45  1  0.44829811  0.05903313  0.76158177  1
  O  O46  1  0.05170130  0.05903324  0.26158174  1
  O  O47  1  0.55170145  0.94096674  0.23841781  1
  O  O48  1  0.80392548  0.21998621  0.85355061  1
  O  O49  1  0.30392584  0.78001215  0.64644990  1
  O  O50  1  0.19607495  0.78001343  0.14644880  1
  O  O51  1  0.69607520  0.21998762  0.35355090  1
  O  O52  1  0.78811663  0.87564913  0.57688012  1
  O  O53  1  0.28811925  0.12435211  0.92312226  1
  O  O54  1  0.21188331  0.12434963  0.42312052  1
  O  O55  1  0.71188364  0.87564898  0.07687956  1
  O  O56  1  0.79261639  0.23280296  0.57209823  1
  O  O57  1  0.29261681  0.76719815  0.92790151  1
  O  O58  1  0.20738253  0.76719540  0.42790377  1
  O  O59  1  0.70738302  0.23280272  0.07209810  1
  O  O60  1  0.79322373  0.62150009  0.93066121  1
  O  O61  1  0.29322469  0.37850068  0.56933615  1
  O  O62  1  0.20677632  0.37849898  0.06933819  1
  O  O63  1  0.70677669  0.62149987  0.43066375  1
  O  O64  1  0.70753637  0.95288448  0.80116719  1
  O  O65  1  0.20753684  0.04711703  0.69883178  1
  O  O66  1  0.29246267  0.04711443  0.19883252  1
  O  O67  1  0.31110726  0.48311851  0.21034693  1
