# generated using pymatgen
data_La2MgFe2(WO6)2
_symmetry_space_group_name_H-M   'P 1'
_cell_length_a   5.68197809
_cell_length_b   5.47799327
_cell_length_c   7.88459203
_cell_angle_alpha   90.06604504
_cell_angle_beta   90.31153199
_cell_angle_gamma   88.49803751
_symmetry_Int_Tables_number   1
_chemical_formula_structural   La2MgFe2(WO6)2
_chemical_formula_sum   'La2 Mg1 Fe2 W2 O12'
_cell_volume   245.32646298
_cell_formula_units_Z   1
loop_
 _symmetry_equiv_pos_site_id
 _symmetry_equiv_pos_as_xyz
  1  'x, y, z'
loop_
 _atom_site_type_symbol
 _atom_site_label
 _atom_site_symmetry_multiplicity
 _atom_site_fract_x
 _atom_site_fract_y
 _atom_site_fract_z
 _atom_site_occupancy
  La  La0  1  0.05269328  0.98545789  0.24605266  1
  La  La1  1  0.44295725  0.48866989  0.74879469  1
  Mg  Mg2  1  0.54705916  0.50707850  0.22146786  1
  Fe  Fe3  1  0.50500228  0.00392752  0.99954365  1
  Fe  Fe4  1  0.99711685  0.49676334  0.50463463  1
  W  W5  1  0.51814241  0.00515739  0.50080102  1
  W  W6  1  0.98689158  0.49287294  0.99758030  1
  O  O7  1  0.01541650  0.57156012  0.76638594  1
  O  O8  1  0.20317833  0.19765165  0.97449813  1
  O  O9  1  0.22900428  0.19632746  0.53178823  1
  O  O10  1  0.29118784  0.68609831  0.05976990  1
  O  O11  1  0.33918497  0.71139089  0.43200129  1
  O  O12  1  0.49098764  0.12097045  0.25704977  1
  O  O13  1  0.51090361  0.91606930  0.74068074  1
  O  O14  1  0.69468192  0.28832035  0.54616270  1
  O  O15  1  0.68125665  0.31011134  0.96472156  1
  O  O16  1  0.79570275  0.80908362  0.45189932  1
  O  O17  1  0.76493356  0.77942985  0.06535121  1
  O  O18  1  0.94560516  0.41226618  0.24119440  1
