# generated using pymatgen
data_Na10Y4Ga4Si5S7O48
_symmetry_space_group_name_H-M   'P 1'
_cell_length_a   18.14706317
_cell_length_b   9.11650649
_cell_length_c   22.87858133
_cell_angle_alpha   89.57430804
_cell_angle_beta   89.15241956
_cell_angle_gamma   120.08936647
_symmetry_Int_Tables_number   1
_chemical_formula_structural   Na10Y4Ga4Si5S7O48
_chemical_formula_sum   'Na30 Y12 Ga12 Si15 S21 O144'
_cell_volume   3274.09482066
_cell_formula_units_Z   3
loop_
 _symmetry_equiv_pos_site_id
 _symmetry_equiv_pos_as_xyz
  1  'x, y, z'
loop_
 _atom_site_type_symbol
 _atom_site_label
 _atom_site_symmetry_multiplicity
 _atom_site_fract_x
 _atom_site_fract_y
 _atom_site_fract_z
 _atom_site_occupancy
  Na  Na0  1  0.32330296  0.00035286  0.24970679  1
  Na  Na1  1  0.82244729  0.99413621  0.25623771  1
  Na  Na2  1  0.18587313  0.37826817  0.24005202  1
  Na  Na3  1  0.67212134  0.36078067  0.24538791  1
  Na  Na4  1  0.99358874  0.63424048  0.26467729  1
  Na  Na5  1  0.49733915  0.62491508  0.25942100  1
  Na  Na6  1  0.82897409  0.65036518  0.73863055  1
  Na  Na7  1  0.99311249  0.35638372  0.75563504  1
  Na  Na8  1  0.49682274  0.35139648  0.75853046  1
  Na  Na9  1  0.17543755  0.99375943  0.73661591  1
  Na  Na10  1  0.01882439  0.71076736  0.58650559  1
  Na  Na11  1  0.33052275  0.98074359  0.59455296  1
  Na  Na12  1  0.02319436  0.32739502  0.08451468  1
  Na  Na13  1  0.51217437  0.33215342  0.08866198  1
  Na  Na14  1  0.16026206  0.30368838  0.93091961  1
  Na  Na15  1  0.66129757  0.29910644  0.93147091  1
  Na  Na16  1  0.16423407  0.01803135  0.42747772  1
  Na  Na17  1  0.66278994  0.03722001  0.42343255  1
  Na  Na18  1  0.99134226  0.99367481  0.50619237  1
  Na  Na19  1  0.51403000  0.99703255  0.49174505  1
  Na  Na20  1  0.00508638  0.01041461  0.00166526  1
  Na  Na21  1  0.50468754  0.00100478  0.00845169  1
  Na  Na22  1  0.34862488  0.33208420  0.83511812  1
  Na  Na23  1  0.85114137  0.31861515  0.82874035  1
  Na  Na24  1  0.35250938  0.36631462  0.33865277  1
  Na  Na25  1  0.84717749  0.36387659  0.34105968  1
  Na  Na26  1  0.17871288  0.65907192  0.17108058  1
  Na  Na27  1  0.67724534  0.65930077  0.16522879  1
  Na  Na28  1  0.17169617  0.67756422  0.67076502  1
  Na  Na29  1  0.68702362  0.72177785  0.65519242  1
  Y  Y30  1  0.98971674  0.98623108  0.35435132  1
  Y  Y31  1  0.99052076  0.98908095  0.84749298  1
  Y  Y32  1  0.49493829  0.01034962  0.84948618  1
  Y  Y33  1  0.51063843  0.00723338  0.64198892  1
  Y  Y34  1  0.99588009  -0.00080177  0.15584153  1
  Y  Y35  1  0.82567452  0.33373277  0.18309600  1
  Y  Y36  1  0.33889424  0.33696478  0.98544418  1
  Y  Y37  1  0.83193089  0.33181729  0.98468817  1
  Y  Y38  1  0.16988437  0.65670724  0.02076727  1
  Y  Y39  1  0.16742983  0.66492228  0.51959581  1
  Y  Y40  1  0.16330920  0.66642748  0.81262640  1
  Y  Y41  1  0.67000880  0.68672578  0.81201078  1
  Ga  Ga42  1  0.48420777  0.96909568  0.34612193  1
  Ga  Ga43  1  0.00459448  0.99164045  0.64738048  1
  Ga  Ga44  1  0.49960687  0.01942686  0.15629723  1
  Ga  Ga45  1  0.33129640  0.32101113  0.67844855  1
  Ga  Ga46  1  0.83173266  0.31126367  0.68177091  1
  Ga  Ga47  1  0.33803622  0.35684517  0.18675713  1
  Ga  Ga48  1  0.33804788  0.34882037  0.48306352  1
  Ga  Ga49  1  0.83910383  0.35352557  0.48463042  1
  Ga  Ga50  1  0.65913807  0.63723033  0.01825990  1
  Ga  Ga51  1  0.65836218  0.71298271  0.51542811  1
  Ga  Ga52  1  0.15885177  0.64308372  0.31689600  1
  Ga  Ga53  1  0.64883003  0.62124505  0.31968303  1
  Si  Si54  1  0.35500126  0.71149404  0.24993293  1
  Si  Si55  1  0.83681333  0.69191483  0.25521912  1
  Si  Si56  1  0.00262672  0.31211560  0.25009599  1
  Si  Si57  1  0.49435874  0.28359778  0.25161750  1
  Si  Si58  1  0.99234604  0.68844568  0.73947862  1
  Si  Si59  1  0.35128303  0.01612956  0.73937683  1
  Si  Si60  1  0.85674050  0.00404685  0.73894236  1
  Si  Si61  1  0.18755441  0.05845808  0.58045653  1
  Si  Si62  1  0.69847684  0.05959779  0.57653838  1
  Si  Si63  1  0.18683778  0.33057289  0.08748941  1
  Si  Si64  1  0.67046782  0.32245740  0.08346238  1
  Si  Si65  1  0.01198412  0.35290088  0.91699874  1
  Si  Si66  1  0.51968869  0.37084887  0.91533522  1
  Si  Si67  1  0.01491996  0.65232867  0.41938499  1
  Si  Si68  1  0.51497841  0.66803684  0.41440371  1
  S  S69  1  0.15520712  0.00132113  0.25325468  1
  S  S70  1  0.63779705  0.98962180  0.25212635  1
  S  S71  1  0.15296751  0.29343685  0.74435258  1
  S  S72  1  0.65553692  0.30127837  0.74963497  1
  S  S73  1  0.49320937  0.68890749  0.74704441  1
  S  S74  1  0.48067893  0.34891370  0.58044129  1
  S  S75  1  0.97643421  0.32487170  0.58403782  1
  S  S76  1  0.33573651  0.61483101  0.58522331  1
  S  S77  1  0.83203824  0.62549905  0.58221927  1
  S  S78  1  0.48672340  0.64159355  0.08837946  1
  S  S79  1  0.98486252  0.64031579  0.08462508  1
  S  S80  1  0.33572097  0.03766896  0.09273048  1
  S  S81  1  0.82546713  0.01152465  0.08358332  1
  S  S82  1  0.31817764  0.66329897  0.91426418  1
  S  S83  1  0.81026849  0.66921179  0.92048400  1
  S  S84  1  0.16795499  0.97121740  0.91624324  1
  S  S85  1  0.66360533  0.95621774  0.92270767  1
  S  S86  1  0.31915235  0.96785466  0.41335094  1
  S  S87  1  0.80462523  0.95341354  0.41754629  1
  S  S88  1  0.17454148  0.37310443  0.41348832  1
  S  S89  1  0.66663828  0.37604228  0.41864457  1
  O  O90  1  0.11578291  0.02868968  0.30689891  1
  O  O91  1  0.60282844  0.02428352  0.30596468  1
  O  O92  1  0.41676742  0.77209666  0.30647655  1
  O  O93  1  0.90976353  0.77185010  0.30505271  1
  O  O94  1  0.47512566  0.14413629  0.30432872  1
  O  O95  1  0.98806176  0.18153301  0.30340651  1
  O  O96  1  0.11801943  0.19397183  0.79960173  1
  O  O97  1  0.62021157  0.20486123  0.80538593  1
  O  O98  1  0.48878859  0.77284454  0.80141873  1
  O  O99  1  0.97284260  0.77175248  0.79608225  1
  O  O100  1  0.41456358  0.05170386  0.79479572  1
  O  O101  1  0.90898809  0.04151361  0.79985562  1
  O  O102  1  0.39532251  0.99648321  0.67995148  1
  O  O103  1  0.91256868  0.98060044  0.68652064  1
  O  O104  1  0.09708463  0.20487621  0.69493320  1
  O  O105  1  0.59777140  0.21133728  0.70162735  1
  O  O106  1  0.01921336  0.81797321  0.68193051  1
  O  O107  1  0.50563045  0.79659397  0.69528048  1
  O  O108  1  0.40023544  0.84654638  0.19501626  1
  O  O109  1  0.87499656  0.81601123  0.19750556  1
  O  O110  1  0.02051548  0.24025350  0.18916865  1
  O  O111  1  0.51995467  0.22226053  0.19113629  1
  O  O112  1  0.09780217  0.96738236  0.20309000  1
  O  O113  1  0.58652438  0.97297209  0.20028300  1
  O  O114  1  0.44414787  0.36906235  0.63674261  1
  O  O115  1  0.93932019  0.35506160  0.63789191  1
  O  O116  1  0.24606404  0.13991504  0.63849809  1
  O  O117  1  0.74989947  0.14911320  0.63544641  1
  O  O118  1  0.33282110  0.51782359  0.63761447  1
  O  O119  1  0.82196819  0.52876636  0.63730908  1
  O  O120  1  0.44757372  0.52529956  0.14078590  1
  O  O121  1  0.94491500  0.54107200  0.13905362  1
  O  O122  1  0.33003338  0.12531294  0.14478608  1
  O  O123  1  0.81539120  0.08327515  0.13927821  1
  O  O124  1  0.24497141  0.33609473  0.14393136  1
  O  O125  1  0.72592299  0.34883375  0.14145165  1
  O  O126  1  0.22925262  0.33159289  0.02367736  1
  O  O127  1  0.71390166  0.30435276  0.02335022  1
  O  O128  1  0.43442488  0.55831536  0.03607778  1
  O  O129  1  0.93491482  0.54799864  0.03370456  1
  O  O130  1  0.34958384  0.14417136  0.03893543  1
  O  O131  1  0.83956165  0.13136438  0.03509899  1
  O  O132  1  0.23818415  0.17018021  0.51993377  1
  O  O133  1  0.74565659  0.16765513  0.51644709  1
  O  O134  1  0.34162222  0.53753869  0.53009724  1
  O  O135  1  0.85049922  0.54351031  0.53166988  1
  O  O136  1  0.42220781  0.32173429  0.53185452  1
  O  O137  1  0.92756309  0.31539726  0.53180903  1
  O  O138  1  0.27949933  0.68374576  0.96848136  1
  O  O139  1  0.76456551  0.68557025  0.97202728  1
  O  O140  1  0.07026773  0.45624094  0.97435942  1
  O  O141  1  0.57606005  0.47276458  0.97288743  1
  O  O142  1  0.16717214  0.87371176  0.96802404  1
  O  O143  1  0.66170242  0.85526528  0.97395426  1
  O  O144  1  0.28125103  0.87113568  0.46972603  1
  O  O145  1  0.76411180  0.84642895  0.47071261  1
  O  O146  1  0.16757303  0.46035557  0.46583924  1
  O  O147  1  0.65808090  0.47079860  0.46833921  1
  O  O148  1  0.07117504  0.67766226  0.47731675  1
  O  O149  1  0.58007387  0.72008183  0.46949087  1
  O  O150  1  0.06459849  0.63450135  0.35957942  1
  O  O151  1  0.55712361  0.63126370  0.35559470  1
  O  O152  1  0.26338153  0.87721083  0.36386489  1
  O  O153  1  0.75904299  0.86968393  0.36413223  1
  O  O154  1  0.18161914  0.46908752  0.35936398  1
  O  O155  1  0.67656605  0.46707766  0.36129710  1
  O  O156  1  0.06098027  0.45329566  0.85598936  1
  O  O157  1  0.56617528  0.46414248  0.85328205  1
  O  O158  1  0.17564817  0.89368233  0.86126452  1
  O  O159  1  0.67448940  0.88566615  0.86703598  1
  O  O160  1  0.26996974  0.66130474  0.86290808  1
  O  O161  1  0.76766961  0.66449300  0.86531335  1
  O  O162  1  0.01379823  0.83116314  0.41645198  1
  O  O163  1  0.51101435  0.84685535  0.40595844  1
  O  O164  1  0.40478903  0.98737451  0.40885481  1
  O  O165  1  0.89360285  0.98033170  0.41878913  1
  O  O166  1  0.09804782  0.19982847  0.41379665  1
  O  O167  1  0.59132371  0.20246879  0.41642986  1
  O  O168  1  0.01140725  0.17223177  0.91894662  1
  O  O169  1  0.51641618  0.18569438  0.91883875  1
  O  O170  1  0.08963719  0.98206854  0.91624378  1
  O  O171  1  0.58426356  0.96553625  0.92089055  1
  O  O172  1  0.40672349  0.80658198  0.91200112  1
  O  O173  1  0.89787412  0.81380037  0.92063902  1
  O  O174  1  0.48651274  0.19156513  0.58238802  1
  O  O175  1  0.98605519  0.17482659  0.58694300  1
  O  O176  1  0.08953761  0.03027083  0.58589671  1
  O  O177  1  0.60157672  0.03164564  0.57626996  1
  O  O178  1  0.41035102  0.78927768  0.58530966  1
  O  O179  1  0.91167317  0.79669260  0.58389039  1
  O  O180  1  0.49375631  0.80665548  0.09514756  1
  O  O181  1  0.99222326  0.80769836  0.08580210  1
  O  O182  1  0.41203632  0.01776839  0.09331140  1
  O  O183  1  0.90478248  0.00097024  0.08411697  1
  O  O184  1  0.08999186  0.16498120  0.08824100  1
  O  O185  1  0.57476001  0.15050362  0.09139097  1
  O  O186  1  0.34551924  0.19433751  0.73804422  1
  O  O187  1  0.84369675  0.16915841  0.73600985  1
  O  O188  1  0.23906579  0.31455864  0.73707017  1
  O  O189  1  0.74149541  0.32548970  0.74136878  1
  O  O190  1  0.41499423  0.52177721  0.74354970  1
  O  O191  1  0.90660049  0.50146609  0.73081545  1
  O  O192  1  0.34097436  0.51877776  0.24033573  1
  O  O193  1  0.81960059  0.49884938  0.24808253  1
  O  O194  1  0.41027321  0.31144434  0.24342568  1
  O  O195  1  0.91751953  0.33097757  0.24698043  1
  O  O196  1  0.23869435  0.15419892  0.24493475  1
  O  O197  1  0.72639627  0.13680307  0.24633757  1
  O  O198  1  0.31792152  0.50104076  0.91530454  1
  O  O199  1  0.81123801  0.50826454  0.92282531  1
  O  O200  1  0.42461229  0.34581557  0.91753588  1
  O  O201  1  0.91788627  0.33446803  0.91839034  1
  O  O202  1  0.24205333  0.14636429  0.91693653  1
  O  O203  1  0.73598719  0.13230784  0.92341304  1
  O  O204  1  0.32336696  0.13561928  0.41709347  1
  O  O205  1  0.81042925  0.12112662  0.41928121  1
  O  O206  1  0.25139301  0.35476563  0.41604636  1
  O  O207  1  0.74439359  0.35878347  0.42139262  1
  O  O208  1  0.42082159  0.49553395  0.42757403  1
  O  O209  1  0.91884887  0.48038991  0.42625988  1
  O  O210  1  0.17367490  0.49848095  0.09111179  1
  O  O211  1  0.65888537  0.49432059  0.07870658  1
  O  O212  1  0.07061760  0.65771042  0.08189740  1
  O  O213  1  0.57205111  0.65576027  0.08076006  1
  O  O214  1  0.25768115  0.87142266  0.08794657  1
  O  O215  1  0.74942473  0.84367509  0.07523213  1
  O  O216  1  0.17959861  0.86768403  0.57857268  1
  O  O217  1  0.68801165  0.86539045  0.57518025  1
  O  O218  1  0.25768689  0.63100407  0.58637214  1
  O  O219  1  0.75586436  0.64053843  0.57432502  1
  O  O220  1  0.06389641  0.48181897  0.58160451  1
  O  O221  1  0.56699570  0.49980935  0.57263397  1
  O  O222  1  0.16567687  0.85147531  0.25950132  1
  O  O223  1  0.64502752  0.83523782  0.25612570  1
  O  O224  1  0.25952366  0.69313193  0.26173804  1
  O  O225  1  0.74452095  0.68558764  0.26770268  1
  O  O226  1  0.08921799  0.50200853  0.25625339  1
  O  O227  1  0.57790437  0.47311371  0.26016481  1
  O  O228  1  0.15996671  0.46234978  0.74789312  1
  O  O229  1  0.66176699  0.46936178  0.75188744  1
  O  O230  1  0.07410343  0.65983385  0.74747802  1
  O  O231  1  0.56756819  0.66188076  0.74796394  1
  O  O232  1  0.25471486  0.85618926  0.74736269  1
  O  O233  1  0.76541991  0.82417721  0.74252382  1
