# generated using pymatgen
data_Ta3Br7
_symmetry_space_group_name_H-M   'P 1'
_cell_length_a   9.91826946
_cell_length_b   9.91827050
_cell_length_c   11.84382971
_cell_angle_alpha   90.00000000
_cell_angle_beta   90.00000000
_cell_angle_gamma   91.02793167
_symmetry_Int_Tables_number   1
_chemical_formula_structural   Ta3Br7
_chemical_formula_sum   'Ta12 Br28'
_cell_volume   1164.91465424
_cell_formula_units_Z   4
loop_
 _symmetry_equiv_pos_site_id
 _symmetry_equiv_pos_as_xyz
  1  'x, y, z'
loop_
 _atom_site_type_symbol
 _atom_site_label
 _atom_site_symmetry_multiplicity
 _atom_site_fract_x
 _atom_site_fract_y
 _atom_site_fract_z
 _atom_site_occupancy
  Ta  Ta0  1  0.38014046  0.38014046  0.91932006  1
  Ta  Ta1  1  0.11985854  0.11985854  0.41932006  1
  Ta  Ta2  1  0.88014146  0.88014146  0.58067994  1
  Ta  Ta3  1  0.61985854  0.61985854  0.08067994  1
  Ta  Ta4  1  0.34246236  0.55215459  0.10813042  1
  Ta  Ta5  1  0.15753764  0.94784541  0.60813042  1
  Ta  Ta6  1  0.05215459  0.84246236  0.39186958  1
  Ta  Ta7  1  0.44784541  0.65753764  0.89186958  1
  Ta  Ta8  1  0.65753764  0.44784541  0.89186958  1
  Ta  Ta9  1  0.84246236  0.05215459  0.39186958  1
  Ta  Ta10  1  0.94784541  0.15753764  0.60813042  1
  Ta  Ta11  1  0.55215459  0.34246236  0.10813042  1
  Br  Br12  1  0.11813301  0.61813301  0.25000000  1
  Br  Br13  1  0.38186699  0.88186699  0.75000000  1
  Br  Br14  1  0.88186699  0.38186699  0.75000000  1
  Br  Br15  1  0.61813301  0.11813301  0.25000000  1
  Br  Br16  1  0.14961272  0.39905389  0.02048336  1
  Br  Br17  1  0.35038728  0.10094611  0.52048336  1
  Br  Br18  1  0.89905389  0.64961272  0.47951664  1
  Br  Br19  1  0.60094611  0.85038728  0.97951664  1
  Br  Br20  1  0.85038728  0.60094611  0.97951664  1
  Br  Br21  1  0.64961272  0.89905389  0.47951664  1
  Br  Br22  1  0.10094611  0.35038728  0.52048336  1
  Br  Br23  1  0.39905389  0.14961272  0.02048336  1
  Br  Br24  1  0.37118645  0.37118645  0.26733850  1
  Br  Br25  1  0.12881355  0.12881355  0.76733850  1
  Br  Br26  1  0.87118645  0.87118645  0.23266150  1
  Br  Br27  1  0.62881355  0.62881355  0.73266150  1
  Br  Br28  1  0.75576609  0.24423391  0.00000000  1
  Br  Br29  1  0.74423391  0.25576609  0.50000000  1
  Br  Br30  1  0.24423391  0.75576609  0.00000000  1
  Br  Br31  1  0.25576609  0.74423391  0.50000000  1
  Br  Br32  1  0.72237392  0.47390832  0.23892019  1
  Br  Br33  1  0.77762608  0.02609168  0.73892019  1
  Br  Br34  1  0.97390832  0.22237392  0.26107981  1
  Br  Br35  1  0.52609168  0.27762608  0.76107981  1
  Br  Br36  1  0.27762608  0.52609168  0.76107981  1
  Br  Br37  1  0.22237392  0.97390832  0.26107981  1
  Br  Br38  1  0.02609168  0.77762608  0.73892019  1
  Br  Br39  1  0.47390832  0.72237392  0.23892019  1
