# generated using pymatgen
data_PRhO4
_symmetry_space_group_name_H-M   'P 1'
_cell_length_a   8.97918522
_cell_length_b   8.97920427
_cell_length_c   8.97920034
_cell_angle_alpha   138.19010235
_cell_angle_beta   109.14941201
_cell_angle_gamma   85.79107921
_symmetry_Int_Tables_number   1
_chemical_formula_structural   PRhO4
_chemical_formula_sum   'P6 Rh6 O24'
_cell_volume   438.77671851
_cell_formula_units_Z   6
loop_
 _symmetry_equiv_pos_site_id
 _symmetry_equiv_pos_as_xyz
  1  'x, y, z'
loop_
 _atom_site_type_symbol
 _atom_site_label
 _atom_site_symmetry_multiplicity
 _atom_site_fract_x
 _atom_site_fract_y
 _atom_site_fract_z
 _atom_site_occupancy
  P  P0  1  0.17400383  0.67400428  0.00000045  1
  P  P1  1  0.32599593  0.32599620  0.50000011  1
  P  P2  1  0.82599625  0.32599602  -0.00000010  1
  P  P3  1  0.67400399  0.67400390  0.49999996  1
  P  P4  1  0.74999976  0.83023820  0.08023846  1
  P  P5  1  0.25000023  0.16976205  0.91976179  1
  Rh  Rh6  1  0.11853658  0.11853681  0.50000026  1
  Rh  Rh7  1  0.38146327  0.88146336  -0.00000014  1
  Rh  Rh8  1  0.88146339  0.88146346  0.50000000  1
  Rh  Rh9  1  0.61853675  0.11853698  0.00000049  1
  Rh  Rh10  1  0.50000002  0.49999979  -0.00000023  1
  Rh  Rh11  1  -0.00000002  -0.00000025  -0.00000022  1
  O  O12  1  0.14398438  0.78423028  0.91504315  1
  O  O13  1  0.35601538  0.27105978  0.64024661  1
  O  O14  1  0.13081258  0.21576911  0.35975379  1
  O  O15  1  0.36918727  0.72894091  0.08495603  1
  O  O16  1  0.85601567  0.21576979  0.08495693  1
  O  O17  1  0.64398459  0.72894029  0.35975346  1
  O  O18  1  0.86918741  0.78423096  0.64024625  1
  O  O19  1  0.63081273  0.27105916  0.91504407  1
  O  O20  1  0.91399888  0.57792990  0.21506898  1
  O  O21  1  0.58600131  0.80107064  0.66393132  1
  O  O22  1  0.63713965  0.42207011  0.33606897  1
  O  O23  1  0.86286028  0.19892902  0.78493063  1
  O  O24  1  0.15363013  0.20172775  0.04809710  1
  O  O25  1  0.34636955  0.39446633  0.04809708  1
  O  O26  1  0.84636982  0.79827233  0.95190301  1
  O  O27  1  0.65363049  0.60553384  0.95190305  1
  O  O28  1  0.62798977  0.97606186  0.10405154  1
  O  O29  1  0.87200992  0.97606174  0.34807197  1
  O  O30  1  0.12799006  0.02393868  0.65192843  1
  O  O31  1  0.37201024  0.02393853  0.89594885  1
  O  O32  1  0.13713957  0.80107030  0.21506874  1
  O  O33  1  0.36286055  0.57792955  0.66393061  1
  O  O34  1  0.41399863  0.19892871  0.33606822  1
  O  O35  1  0.08600117  0.42206962  0.78493040  1
