# generated using pymatgen
data_MgV4O5F7
_symmetry_space_group_name_H-M   'P 1'
_cell_length_a   5.14731847
_cell_length_b   7.52950085
_cell_length_c   5.56022973
_cell_angle_alpha   92.93235555
_cell_angle_beta   88.77634196
_cell_angle_gamma   89.70303438
_symmetry_Int_Tables_number   1
_chemical_formula_structural   MgV4O5F7
_chemical_formula_sum   'Mg1 V4 O5 F7'
_cell_volume   215.16087678
_cell_formula_units_Z   1
loop_
 _symmetry_equiv_pos_site_id
 _symmetry_equiv_pos_as_xyz
  1  'x, y, z'
loop_
 _atom_site_type_symbol
 _atom_site_label
 _atom_site_symmetry_multiplicity
 _atom_site_fract_x
 _atom_site_fract_y
 _atom_site_fract_z
 _atom_site_occupancy
  Mg  Mg0  1  0.00391500  0.70133500  0.59452600  1
  V  V1  1  0.46823800  0.49586900  0.48361600  1
  V  V2  1  0.45627500  0.99445200  0.52053800  1
  V  V3  1  0.03712600  0.48638200  0.01010900  1
  V  V4  1  0.97058200  0.00399400  0.02102500  1
  O  O5  1  0.73493500  0.95450200  0.21781000  1
  O  O6  1  0.36122700  0.75563300  0.47047000  1
  O  O7  1  0.32032700  0.45224000  0.19606900  1
  O  O8  1  0.26923000  0.04844200  0.77056800  1
  O  O9  1  0.21767100  0.46682900  0.69175500  1
  F  F10  1  0.87474800  0.25069200  0.99160300  1
  F  F11  1  0.82299000  0.57039600  0.32435800  1
  F  F12  1  0.78826000  0.92555100  0.70004500  1
  F  F13  1  0.73451100  0.56539900  0.77868600  1
  F  F14  1  0.60328800  0.24703400  0.49727800  1
  F  F15  1  0.22075000  0.06798100  0.26779600  1
  F  F16  1  0.10342500  0.75433500  0.96374900  1
