# generated using pymatgen
data_Na2YScP2SO12
_symmetry_space_group_name_H-M   'P 1'
_cell_length_a   9.08614535
_cell_length_b   9.09454732
_cell_length_c   23.35615078
_cell_angle_alpha   90.33173168
_cell_angle_beta   89.67390796
_cell_angle_gamma   119.84334772
_symmetry_Int_Tables_number   1
_chemical_formula_structural   Na2YScP2SO12
_chemical_formula_sum   'Na12 Y6 Sc6 P12 S6 O72'
_cell_volume   1674.04256344
_cell_formula_units_Z   6
loop_
 _symmetry_equiv_pos_site_id
 _symmetry_equiv_pos_as_xyz
  1  'x, y, z'
loop_
 _atom_site_type_symbol
 _atom_site_label
 _atom_site_symmetry_multiplicity
 _atom_site_fract_x
 _atom_site_fract_y
 _atom_site_fract_z
 _atom_site_occupancy
  Na  Na0  1  0.99507660  0.63028723  0.25446820  1
  Na  Na1  1  0.37258030  0.00915795  0.74978675  1
  Na  Na2  1  0.66318568  0.96039824  0.58676418  1
  Na  Na3  1  0.03894450  0.33772499  0.08776687  1
  Na  Na4  1  0.32613509  0.29584809  0.91948506  1
  Na  Na5  1  0.70293566  0.67273042  0.41793701  1
  Na  Na6  1  0.02257230  0.99456814  0.49996824  1
  Na  Na7  1  0.00969202  0.98061012  0.00056131  1
  Na  Na8  1  0.68800666  0.32494196  0.83220974  1
  Na  Na9  1  0.67107051  0.31238510  0.33437853  1
  Na  Na10  1  0.35339893  0.65919951  0.17020117  1
  Na  Na11  1  0.34070360  0.64671822  0.66648035  1
  Y  Y12  1  0.99414688  0.00551801  0.84772368  1
  Y  Y13  1  0.00079349  0.99816345  0.15309415  1
  Y  Y14  1  0.66874459  0.33147337  0.98278923  1
  Y  Y15  1  0.32805255  0.67396487  0.01976079  1
  Y  Y16  1  0.32731312  0.67170970  0.51698541  1
  Y  Y17  1  0.33367297  0.66417319  0.81244964  1
  Sc  Sc18  1  0.98854911  0.00191986  0.34912162  1
  Sc  Sc19  1  0.00287738  0.00050464  0.64695011  1
  Sc  Sc20  1  0.65840638  0.33686801  0.68227950  1
  Sc  Sc21  1  0.66351049  0.34449569  0.18642306  1
  Sc  Sc22  1  0.66515935  0.33134881  0.48211313  1
  Sc  Sc23  1  0.33392399  0.66765682  0.31830578  1
  P  P24  1  0.69751098  0.70148630  0.25329484  1
  P  P25  1  0.00028868  0.30280281  0.25042292  1
  P  P26  1  0.29612054  0.29218027  0.74670582  1
  P  P27  1  0.70363561  0.00701040  0.74319250  1
  P  P28  1  0.37563945  0.04941041  0.58441154  1
  P  P29  1  0.67232558  0.62831922  0.58208641  1
  P  P30  1  0.95823164  0.62669479  0.08729301  1
  P  P31  1  0.37105253  0.33435598  0.08409377  1
  P  P32  1  0.03662912  0.36898147  0.91773009  1
  P  P33  1  0.33217297  0.96876238  0.91329140  1
  P  P34  1  0.62909078  0.96490146  0.41655094  1
  P  P35  1  0.03074917  0.66758637  0.41329516  1
  S  S36  1  0.29965608  0.00003046  0.25351863  1
  S  S37  1  0.99313795  0.70180142  0.74608580  1
  S  S38  1  0.95237576  0.32886551  0.58441918  1
  S  S39  1  0.66700014  0.04194614  0.08770094  1
  S  S40  1  0.63144174  0.66744994  0.91708202  1
  S  S41  1  0.33144015  0.36763473  0.41534251  1
  O  O42  1  0.21287224  0.02404815  0.30331984  1
  O  O43  1  0.81649481  0.78696423  0.30581067  1
  O  O44  1  0.98102311  0.18253201  0.30029933  1
  O  O45  1  0.22610330  0.19256182  0.80360836  1
  O  O46  1  0.97105142  0.77543876  0.79990620  1
  O  O47  1  0.80288516  0.02177622  0.79815254  1
  O  O48  1  0.79373073  0.98572582  0.68969708  1
  O  O49  1  0.17809080  0.18740573  0.69699511  1
  O  O50  1  0.01442430  0.81271516  0.69677536  1
  O  O51  1  0.77946247  0.80911723  0.19971269  1
  O  O52  1  0.02905670  0.23323213  0.19336610  1
  O  O53  1  0.19525215  0.96787648  0.20111687  1
  O  O54  1  0.87058512  0.34883336  0.63593158  1
  O  O55  1  0.48358546  0.13009624  0.63891582  1
  O  O56  1  0.65655655  0.51825176  0.63413376  1
  O  O57  1  0.86747525  0.51824066  0.14139250  1
  O  O58  1  0.65220002  0.13211816  0.13811811  1
  O  O59  1  0.48280567  0.34165631  0.13524555  1
  O  O60  1  0.44559563  0.31652505  0.02649292  1
  O  O61  1  0.85815110  0.53776630  0.03312406  1
  O  O62  1  0.68513493  0.13653199  0.03427719  1
  O  O63  1  0.46974683  0.15873151  0.53143860  1
  O  O64  1  0.69008208  0.54477235  0.52592542  1
  O  O65  1  0.84979374  0.30832718  0.53236353  1
  O  O66  1  0.54890254  0.68512399  0.96919993  1
  O  O67  1  0.13927878  0.44983396  0.97342490  1
  O  O68  1  0.32365405  0.86466828  0.96630309  1
  O  O69  1  0.56040577  0.85626173  0.47190517  1
  O  O70  1  0.30350126  0.44150975  0.46814429  1
  O  O71  1  0.13915427  0.69132198  0.46671517  1
  O  O72  1  0.11668470  0.64297116  0.35925601  1
  O  O73  1  0.51000528  0.86677035  0.36614327  1
  O  O74  1  0.35901265  0.48063762  0.36583524  1
  O  O75  1  0.13400271  0.47639551  0.86544030  1
  O  O76  1  0.34902239  0.88643036  0.85724458  1
  O  O77  1  0.52977252  0.65035698  0.86552803  1
  O  O78  1  0.00782993  0.82649949  0.40721779  1
  O  O79  1  0.80682459  0.97972084  0.40666107  1
  O  O80  1  0.18455723  0.19589959  0.40694271  1
  O  O81  1  0.02637782  0.19310183  0.91413196  1
  O  O82  1  0.17061682  0.98662905  0.91294626  1
  O  O83  1  0.80346786  0.81556706  0.91321587  1
  O  O84  1  0.96394177  0.16979520  0.58801121  1
  O  O85  1  0.19598834  0.02775148  0.58927152  1
  O  O86  1  0.83023495  0.81129433  0.58792359  1
  O  O87  1  0.98180707  0.80581613  0.08982455  1
  O  O88  1  0.82524329  0.03097371  0.09049935  1
  O  O89  1  0.18771747  0.17986366  0.08863054  1
  O  O90  1  0.68300951  0.16687877  0.73957769  1
  O  O91  1  0.47392339  0.30726043  0.74000365  1
  O  O92  1  0.84704190  0.52970589  0.73978355  1
  O  O93  1  0.68849327  0.52521111  0.24648249  1
  O  O94  1  0.83860379  0.32228479  0.24658661  1
  O  O95  1  0.47025558  0.15070900  0.24652611  1
  O  O96  1  0.63939683  0.50794975  0.91929258  1
  O  O97  1  0.85875469  0.34899037  0.91874156  1
  O  O98  1  0.48728873  0.15187530  0.91643327  1
  O  O99  1  0.64720951  0.14236938  0.42354435  1
  O  O100  1  0.49223871  0.35983858  0.42090496  1
  O  O101  1  0.84844863  0.50919841  0.42056606  1
  O  O102  1  0.35375044  0.49665333  0.08447924  1
  O  O103  1  0.13368858  0.63380741  0.08566859  1
  O  O104  1  0.51679326  0.87007984  0.08503798  1
  O  O105  1  0.36512037  0.87267811  0.57962970  1
  O  O106  1  0.51287816  0.65151144  0.57991882  1
  O  O107  1  0.12564456  0.47763483  0.57978452  1
  O  O108  1  0.31288856  0.84326330  0.26003217  1
  O  O109  1  0.51883200  0.67803334  0.26198947  1
  O  O110  1  0.15548669  0.48489832  0.25978617  1
  O  O111  1  0.31315286  0.46917684  0.74866932  1
  O  O112  1  0.15472368  0.69511802  0.74894615  1
  O  O113  1  0.52016162  0.84994832  0.74655841  1
