# generated using pymatgen
data_VSbO4
_symmetry_space_group_name_H-M   'P 1'
_cell_length_a   5.56302352
_cell_length_b   5.56302562
_cell_length_c   9.01144120
_cell_angle_alpha   87.79029374
_cell_angle_beta   87.79040947
_cell_angle_gamma   71.76370870
_symmetry_Int_Tables_number   1
_chemical_formula_structural   VSbO4
_chemical_formula_sum   'V4 Sb4 O16'
_cell_volume   264.57220186
_cell_formula_units_Z   4
loop_
 _symmetry_equiv_pos_site_id
 _symmetry_equiv_pos_as_xyz
  1  'x, y, z'
loop_
 _atom_site_type_symbol
 _atom_site_label
 _atom_site_symmetry_multiplicity
 _atom_site_fract_x
 _atom_site_fract_y
 _atom_site_fract_z
 _atom_site_occupancy
  V  V0  1  0.49673007  0.49672995  0.50430554  1
  V  V1  1  0.87109358  0.87109243  0.62833250  1
  V  V2  1  0.99673240  0.99673189  0.00430981  1
  V  V3  1  0.37108920  0.37108896  0.12833456  1
  Sb  Sb4  1  0.75275059  0.75275171  0.24703282  1
  Sb  Sb5  1  0.25277543  0.25277462  0.74702987  1
  Sb  Sb6  1  0.62805250  0.62805176  0.87228493  1
  Sb  Sb7  1  0.12805621  0.12805716  0.37228993  1
  O  O8  1  0.64887434  0.64887281  0.65286671  1
  O  O9  1  0.14887373  0.14887348  0.15285931  1
  O  O10  1  0.17481430  0.57125022  0.62694253  1
  O  O11  1  0.67479210  0.07126850  0.12693614  1
  O  O12  1  0.07126734  0.67479255  0.12693643  1
  O  O13  1  0.57124993  0.17481389  0.62694248  1
  O  O14  1  0.84671579  0.84671513  0.85127760  1
  O  O15  1  0.34670668  0.34670668  0.35126249  1
  O  O16  1  0.59860781  0.59860842  0.09372089  1
  O  O17  1  0.09861210  0.09861227  0.59371508  1
  O  O18  1  0.81953752  0.43513433  0.37251614  1
  O  O19  1  0.31953511  0.93511674  0.87251356  1
  O  O20  1  0.93511760  0.31953423  0.87251423  1
  O  O21  1  0.43513393  0.81953767  0.37251650  1
  O  O22  1  0.40644185  0.40644175  0.90128954  1
  O  O23  1  0.90643490  0.90643484  0.40127743  1
