# generated using pymatgen
data_Na2ZnGe3P4(SO12)2
_symmetry_space_group_name_H-M   'P 1'
_cell_length_a   8.43884668
_cell_length_b   8.44828167
_cell_length_c   21.95377679
_cell_angle_alpha   89.83410630
_cell_angle_beta   89.81707371
_cell_angle_gamma   119.90971225
_symmetry_Int_Tables_number   1
_chemical_formula_structural   Na2ZnGe3P4(SO12)2
_chemical_formula_sum   'Na6 Zn3 Ge9 P12 S6 O72'
_cell_volume   1356.68095072
_cell_formula_units_Z   3
loop_
 _symmetry_equiv_pos_site_id
 _symmetry_equiv_pos_as_xyz
  1  'x, y, z'
loop_
 _atom_site_type_symbol
 _atom_site_label
 _atom_site_symmetry_multiplicity
 _atom_site_fract_x
 _atom_site_fract_y
 _atom_site_fract_z
 _atom_site_occupancy
  Na  Na0  1  0.00014876  0.99487068  0.50449448  1
  Na  Na1  1  0.00531610  0.99921675  0.00187553  1
  Na  Na2  1  0.66400068  0.32961452  0.83233978  1
  Na  Na3  1  0.66750340  0.33329928  0.33707179  1
  Na  Na4  1  0.32996649  0.66277710  0.16895455  1
  Na  Na5  1  0.34116175  0.66864771  0.66566133  1
  Zn  Zn6  1  0.99862741  0.99938617  0.64671869  1
  Zn  Zn7  1  0.00739328  0.99943265  0.14375157  1
  Zn  Zn8  1  0.33375411  0.66858205  0.32239719  1
  Ge  Ge9  1  0.00200974  0.00099692  0.35903771  1
  Ge  Ge10  1  0.00169474  0.00909844  0.85242398  1
  Ge  Ge11  1  0.64523253  0.31774704  0.68464463  1
  Ge  Ge12  1  0.66998331  0.34387934  0.18408142  1
  Ge  Ge13  1  0.66467129  0.33847673  0.97707887  1
  Ge  Ge14  1  0.66127785  0.33550767  0.47992638  1
  Ge  Ge15  1  0.32611295  0.65811127  0.01792618  1
  Ge  Ge16  1  0.34248299  0.67288950  0.51711535  1
  Ge  Ge17  1  0.33971040  0.66768842  0.81557685  1
  P  P18  1  0.28876035  0.29301755  0.75049388  1
  P  P19  1  0.70853373  0.00055145  0.75005572  1
  P  P20  1  0.37878958  0.04079120  0.58093284  1
  P  P21  1  0.66227535  0.61648101  0.58220410  1
  P  P22  1  0.95436990  0.61627916  0.08046289  1
  P  P23  1  0.38397762  0.33940289  0.08082523  1
  P  P24  1  0.62319763  0.67067972  0.91696719  1
  P  P25  1  0.04479847  0.37868949  0.91639902  1
  P  P26  1  0.33180664  0.95264658  0.91702816  1
  P  P27  1  0.62579942  0.96327599  0.41627457  1
  P  P28  1  0.33500979  0.37795703  0.41665851  1
  P  P29  1  0.04083946  0.66260363  0.41730299  1
  S  S30  1  0.29541096  0.00290295  0.24909131  1
  S  S31  1  0.71017001  0.70958333  0.24906097  1
  S  S32  1  0.99655000  0.28978934  0.24837097  1
  S  S33  1  0.00074043  0.70657631  0.75150232  1
  S  S34  1  0.95382592  0.33910679  0.58224406  1
  S  S35  1  0.66087981  0.04542621  0.08153170  1
  O  O36  1  0.21547035  0.03947966  0.30556174  1
  O  O37  1  0.82492948  0.78781092  0.30529390  1
  O  O38  1  0.96104672  0.17488628  0.30523602  1
  O  O39  1  0.21037961  0.17053726  0.80926227  1
  O  O40  1  0.96380737  0.78621088  0.80767431  1
  O  O41  1  0.82732786  0.03854029  0.80912209  1
  O  O42  1  0.77958672  0.95793516  0.69364140  1
  O  O43  1  0.17913701  0.21975355  0.69368161  1
  O  O44  1  0.03827568  0.81452062  0.69654527  1
  O  O45  1  0.79280600  0.81452066  0.19372531  1
  O  O46  1  0.01901064  0.20652477  0.19344924  1
  O  O47  1  0.18956653  0.97828461  0.19425071  1
  O  O48  1  0.87397570  0.37230462  0.63912021  1
  O  O49  1  0.49808441  0.11577361  0.64024462  1
  O  O50  1  0.62546463  0.49622263  0.64150631  1
  O  O51  1  0.87678710  0.49586132  0.13984850  1
  O  O52  1  0.62519407  0.12347705  0.13829042  1
  O  O53  1  0.50233348  0.37667668  0.13993768  1
  O  O54  1  0.47040066  0.30322313  0.02422586  1
  O  O55  1  0.83601985  0.52531523  0.02396157  1
  O  O56  1  0.69236423  0.15887713  0.02606715  1
  O  O57  1  0.47238396  0.16158988  0.52510169  1
  O  O58  1  0.69489452  0.52941339  0.52557297  1
  O  O59  1  0.84194327  0.31071523  0.52718149  1
  O  O60  1  0.54140924  0.70893486  0.97460047  1
  O  O61  1  0.16332205  0.45527951  0.97423261  1
  O  O62  1  0.29407381  0.83331819  0.97515960  1
  O  O63  1  0.54720218  0.83836202  0.47369916  1
  O  O64  1  0.29262180  0.45890783  0.47414608  1
  O  O65  1  0.16521132  0.70486237  0.47436839  1
  O  O66  1  0.10526399  0.62338301  0.35870177  1
  O  O67  1  0.51876569  0.89770868  0.35868762  1
  O  O68  1  0.37515005  0.48313238  0.35837787  1
  O  O69  1  0.12734672  0.50115520  0.86011209  1
  O  O70  1  0.37078344  0.87110059  0.86033609  1
  O  O71  1  0.50221500  0.62828831  0.86051269  1
  O  O72  1  0.02081908  0.83815288  0.41130996  1
  O  O73  1  0.81936991  0.98017549  0.41021879  1
  O  O74  1  0.16039859  0.18288994  0.41127804  1
  O  O75  1  0.02624418  0.18794183  0.90967002  1
  O  O76  1  0.15960922  0.97146283  0.90917631  1
  O  O77  1  0.81471279  0.84042545  0.90872808  1
  O  O78  1  0.97283319  0.17792194  0.58626311  1
  O  O79  1  0.19425821  0.02586740  0.58626427  1
  O  O80  1  0.82778096  0.80385656  0.58663289  1
  O  O81  1  0.97000873  0.80128950  0.08511366  1
  O  O82  1  0.82189300  0.02633552  0.08672302  1
  O  O83  1  0.19520208  0.17520843  0.08535916  1
  O  O84  1  0.69160498  0.17730235  0.74388285  1
  O  O85  1  0.48510701  0.31521263  0.74554916  1
  O  O86  1  0.83642899  0.52173440  0.74639984  1
  O  O87  1  0.69920033  0.52179830  0.24515425  1
  O  O88  1  0.81958915  0.30008632  0.24424938  1
  O  O89  1  0.48204235  0.17796475  0.24395923  1
  O  O90  1  0.64161642  0.49728940  0.92310947  1
  O  O91  1  0.85207911  0.35687074  0.92392828  1
  O  O92  1  0.50546319  0.14397510  0.92427485  1
  O  O93  1  0.65498325  0.15631937  0.42772073  1
  O  O94  1  0.50134474  0.35021616  0.42602577  1
  O  O95  1  0.84806719  0.49617565  0.42781246  1
  O  O96  1  0.37687408  0.52023937  0.07478089  1
  O  O97  1  0.14622088  0.63097779  0.07518262  1
  O  O98  1  0.49072641  0.86413394  0.07663660  1
  O  O99  1  0.36653526  0.85063525  0.57476393  1
  O  O100  1  0.48065042  0.62322088  0.57557558  1
  O  O101  1  0.13565641  0.50951846  0.57698680  1
  O  O102  1  0.32060915  0.84597384  0.25538599  1
  O  O103  1  0.52712364  0.68231892  0.25495930  1
  O  O104  1  0.15291683  0.47192497  0.25432677  1
  O  O105  1  0.31067936  0.48545530  0.76125179  1
  O  O106  1  0.16686360  0.68765268  0.76053147  1
  O  O107  1  0.51314930  0.83260532  0.76089520  1
