# generated using pymatgen
data_Ta2Si3Sn2(SO8)3
_symmetry_space_group_name_H-M   'P 1'
_cell_length_a   8.86046064
_cell_length_b   8.86644573
_cell_length_c   22.90109190
_cell_angle_alpha   89.89627922
_cell_angle_beta   90.29710183
_cell_angle_gamma   119.74857347
_symmetry_Int_Tables_number   1
_chemical_formula_structural   Ta2Si3Sn2(SO8)3
_chemical_formula_sum   'Ta6 Si9 Sn6 S9 O72'
_cell_volume   1562.00137825
_cell_formula_units_Z   3
loop_
 _symmetry_equiv_pos_site_id
 _symmetry_equiv_pos_as_xyz
  1  'x, y, z'
loop_
 _atom_site_type_symbol
 _atom_site_label
 _atom_site_symmetry_multiplicity
 _atom_site_fract_x
 _atom_site_fract_y
 _atom_site_fract_z
 _atom_site_occupancy
  Ta  Ta0  1  0.98759637  0.00942643  0.64301073  1
  Ta  Ta1  1  0.01105940  0.01479163  0.13833205  1
  Ta  Ta2  1  0.65751365  0.33793684  0.97552680  1
  Ta  Ta3  1  0.67392349  0.32967540  0.48179115  1
  Ta  Ta4  1  0.33416641  0.66913283  0.31052630  1
  Ta  Ta5  1  0.34183756  0.67818480  0.80516181  1
  Si  Si6  1  0.99486093  0.28791493  0.24863134  1
  Si  Si7  1  0.29172479  0.28770755  0.74878900  1
  Si  Si8  1  0.72012289  0.00921533  0.75134624  1
  Si  Si9  1  0.96083489  0.34320678  0.58520610  1
  Si  Si10  1  0.67363343  0.62120314  0.58461864  1
  Si  Si11  1  0.95442495  0.62087217  0.08234750  1
  Si  Si12  1  0.38944399  0.34505455  0.08331908  1
  Si  Si13  1  0.32829897  0.95080347  0.91582385  1
  Si  Si14  1  0.61913310  0.95538755  0.41751489  1
  Sn  Sn15  1  0.98860709  0.00552933  0.35486464  1
  Sn  Sn16  1  0.01464932  0.01140384  0.85150300  1
  Sn  Sn17  1  0.66782823  0.33614943  0.68931258  1
  Sn  Sn18  1  0.67786652  0.34262939  0.18462465  1
  Sn  Sn19  1  0.31997552  0.66362940  0.02113507  1
  Sn  Sn20  1  0.34715215  0.66902158  0.52540989  1
  S  S21  1  0.28630692  0.00093254  0.25033674  1
  S  S22  1  0.71168861  0.71165660  0.25016311  1
  S  S23  1  0.00010290  0.71341529  0.74988611  1
  S  S24  1  0.37580970  0.04543308  0.58314494  1
  S  S25  1  0.66495476  0.04465532  0.08250568  1
  S  S26  1  0.62169271  0.67110897  0.91596607  1
  S  S27  1  0.04235073  0.37676656  0.91610682  1
  S  S28  1  0.33420229  0.37745015  0.41576064  1
  S  S29  1  0.04548876  0.66877837  0.41565123  1
  O  O30  1  0.20859601  0.02606824  0.30396444  1
  O  O31  1  0.81970226  0.78437535  0.30356650  1
  O  O32  1  0.96953097  0.17415063  0.30657869  1
  O  O33  1  0.21457292  0.17539941  0.80745797  1
  O  O34  1  0.96899589  0.78563392  0.80377102  1
  O  O35  1  0.82645618  0.02606410  0.81068254  1
  O  O36  1  0.80378632  0.96530997  0.69366926  1
  O  O37  1  0.16250192  0.18879525  0.69253482  1
  O  O38  1  0.03538212  0.82304230  0.69822950  1
  O  O39  1  0.78787603  0.82168094  0.19879372  1
  O  O40  1  0.02672090  0.18886766  0.19314414  1
  O  O41  1  0.17335230  0.96643847  0.19817775  1
  O  O42  1  0.87054667  0.36884034  0.64082973  1
  O  O43  1  0.48561709  0.11706349  0.63482360  1
  O  O44  1  0.63393049  0.49868954  0.64005269  1
  O  O45  1  0.87822959  0.50780425  0.14098227  1
  O  O46  1  0.63211048  0.11515139  0.13644040  1
  O  O47  1  0.49198839  0.36080049  0.14361729  1
  O  O48  1  0.47565267  0.30206314  0.02662338  1
  O  O49  1  0.82760940  0.52371357  0.02571839  1
  O  O50  1  0.70125761  0.15785952  0.03124326  1
  O  O51  1  0.46108026  0.15849607  0.52951799  1
  O  O52  1  0.69325038  0.52101142  0.52487015  1
  O  O53  1  0.83097612  0.30071511  0.52591602  1
  O  O54  1  0.54543047  0.69574614  0.96976397  1
  O  O55  1  0.15107238  0.44848976  0.96969042  1
  O  O56  1  0.30681860  0.83981387  0.97449617  1
  O  O57  1  0.52415519  0.83184437  0.47203584  1
  O  O58  1  0.29493666  0.44970236  0.46708554  1
  O  O59  1  0.15162449  0.69943306  0.46776234  1
  O  O60  1  0.12917554  0.63809750  0.36253268  1
  O  O61  1  0.49326870  0.85362353  0.35919140  1
  O  O62  1  0.35823959  0.49043006  0.36279176  1
  O  O63  1  0.12215999  0.48741062  0.86505969  1
  O  O64  1  0.35852026  0.85237273  0.86008391  1
  O  O65  1  0.50782523  0.63436434  0.86430579  1
  O  O66  1  0.02818004  0.82455909  0.40449274  1
  O  O67  1  0.80769014  0.97020961  0.40976595  1
  O  O68  1  0.18359156  0.20065519  0.40674237  1
  O  O69  1  0.01742178  0.20045127  0.91069477  1
  O  O70  1  0.15856200  0.97275231  0.90905139  1
  O  O71  1  0.79653975  0.81803112  0.90855522  1
  O  O72  1  0.97541896  0.16643893  0.59067136  1
  O  O73  1  0.20470992  0.03054497  0.58918737  1
  O  O74  1  0.85065714  0.80879388  0.59377903  1
  O  O75  1  0.96718784  0.81141631  0.09738925  1
  O  O76  1  0.82560531  0.02870825  0.09203900  1
  O  O77  1  0.19537464  0.16688897  0.09308732  1
  O  O78  1  0.68980716  0.16877250  0.74093946  1
  O  O79  1  0.48333034  0.31752513  0.74102447  1
  O  O80  1  0.85149022  0.53851068  0.74438663  1
  O  O81  1  0.68323154  0.53460770  0.24455260  1
  O  O82  1  0.82351270  0.30667484  0.24152218  1
  O  O83  1  0.46064439  0.14969312  0.24241342  1
  O  O84  1  0.63674459  0.50821933  0.92375568  1
  O  O85  1  0.86847487  0.36176630  0.92629067  1
  O  O86  1  0.50661473  0.14358163  0.92836399  1
  O  O87  1  0.63390808  0.14579829  0.42619986  1
  O  O88  1  0.49192573  0.36427237  0.42216745  1
  O  O89  1  0.87136372  0.51215404  0.42194604  1
  O  O90  1  0.36374080  0.50765198  0.07129168  1
  O  O91  1  0.14644842  0.65018313  0.07623174  1
  O  O92  1  0.51914834  0.86915168  0.07486206  1
  O  O93  1  0.35474285  0.87203529  0.57351012  1
  O  O94  1  0.50718450  0.64576429  0.57632985  1
  O  O95  1  0.14336909  0.50891916  0.56923993  1
  O  O96  1  0.30138048  0.83922722  0.25908735  1
  O  O97  1  0.53469566  0.69539167  0.26023705  1
  O  O98  1  0.16984652  0.48055190  0.26304847  1
  O  O99  1  0.30126411  0.47678819  0.76361462  1
  O  O100  1  0.15909877  0.69451535  0.75897336  1
  O  O101  1  0.52689217  0.83035813  0.76023385  1
