# generated using pymatgen
data_Na2CdCl4
_symmetry_space_group_name_H-M   'P 1'
_cell_length_a   3.93016405
_cell_length_b   7.00480877
_cell_length_c   11.94259020
_cell_angle_alpha   90.00000000
_cell_angle_beta   90.00000000
_cell_angle_gamma   90.00000000
_symmetry_Int_Tables_number   1
_chemical_formula_structural   Na2CdCl4
_chemical_formula_sum   'Na4 Cd2 Cl8'
_cell_volume   328.78007673
_cell_formula_units_Z   2
loop_
 _symmetry_equiv_pos_site_id
 _symmetry_equiv_pos_as_xyz
  1  'x, y, z'
loop_
 _atom_site_type_symbol
 _atom_site_label
 _atom_site_symmetry_multiplicity
 _atom_site_fract_x
 _atom_site_fract_y
 _atom_site_fract_z
 _atom_site_occupancy
  Na  Na0  1  0.50000000  0.08802138  0.68351889  1
  Na  Na1  1  0.50000000  0.91197862  0.31648111  1
  Na  Na2  1  0.50000000  0.41197862  0.18351889  1
  Na  Na3  1  0.50000000  0.58802138  0.81648111  1
  Cd  Cd4  1  -0.00000000  0.50000000  0.50000000  1
  Cd  Cd5  1  -0.00000000  0.00000000  -0.00000000  1
  Cl  Cl6  1  0.50000000  0.74797767  0.54384602  1
  Cl  Cl7  1  0.50000000  0.25202233  0.45615398  1
  Cl  Cl8  1  0.00000000  0.12594517  0.20437229  1
  Cl  Cl9  1  -0.00000000  0.87405483  0.79562771  1
  Cl  Cl10  1  -0.00000000  0.62594517  0.29562771  1
  Cl  Cl11  1  -0.00000000  0.37405483  0.70437229  1
  Cl  Cl12  1  0.50000000  0.24797767  0.95615398  1
  Cl  Cl13  1  0.50000000  0.75202233  0.04384602  1
