# generated using pymatgen
data_Na6Mg3Si2Ge(SO6)4
_symmetry_space_group_name_H-M   'P 1'
_cell_length_a   8.92977540
_cell_length_b   8.95446454
_cell_length_c   22.10134302
_cell_angle_alpha   90.45851074
_cell_angle_beta   88.73262739
_cell_angle_gamma   120.33877447
_symmetry_Int_Tables_number   1
_chemical_formula_structural   Na6Mg3Si2Ge(SO6)4
_chemical_formula_sum   'Na18 Mg9 Si6 Ge3 S12 O72'
_cell_volume   1524.85154399
_cell_formula_units_Z   3
loop_
 _symmetry_equiv_pos_site_id
 _symmetry_equiv_pos_as_xyz
  1  'x, y, z'
loop_
 _atom_site_type_symbol
 _atom_site_label
 _atom_site_symmetry_multiplicity
 _atom_site_fract_x
 _atom_site_fract_y
 _atom_site_fract_z
 _atom_site_occupancy
  Na  Na0  1  0.63294974  0.99652114  0.25779214  1
  Na  Na1  1  0.36785709  0.36389872  0.24396318  1
  Na  Na2  1  0.63806440  0.64591215  0.74285224  1
  Na  Na3  1  0.31060593  0.34121458  0.58814116  1
  Na  Na4  1  0.02429957  0.69949433  0.58378329  1
  Na  Na5  1  0.66561296  0.94647932  0.58456749  1
  Na  Na6  1  0.29833384  0.97405680  0.07684450  1
  Na  Na7  1  0.05221977  0.33792185  0.07666064  1
  Na  Na8  1  0.97970927  0.67396264  0.91664141  1
  Na  Na9  1  0.70549345  0.03392555  0.90601142  1
  Na  Na10  1  0.31566764  0.28934307  0.91818927  1
  Na  Na11  1  0.69604652  0.68278810  0.42100833  1
  Na  Na12  1  0.98716850  0.99828729  0.49546564  1
  Na  Na13  1  0.01103305  0.00978003  0.99703687  1
  Na  Na14  1  0.66793621  0.30911054  0.82657722  1
  Na  Na15  1  0.67307639  0.32363129  0.33697829  1
  Na  Na16  1  0.33599647  0.65633587  0.16288895  1
  Na  Na17  1  0.34632204  0.67211514  0.67062602  1
  Mg  Mg18  1  0.99828577  0.00607072  0.35299419  1
  Mg  Mg19  1  0.99956107  0.01196824  0.84993750  1
  Mg  Mg20  1  0.97817308  0.98470592  0.65400394  1
  Mg  Mg21  1  0.00767247  0.00215099  0.14673295  1
  Mg  Mg22  1  0.66013264  0.32364085  0.68796162  1
  Mg  Mg23  1  0.66575507  0.34215044  0.18282029  1
  Mg  Mg24  1  0.33267948  0.66073368  0.01755340  1
  Mg  Mg25  1  0.34691068  0.66958239  0.51477062  1
  Mg  Mg26  1  0.34011972  0.68457367  0.32225099  1
  Si  Si27  1  0.69477707  0.99846645  0.75307495  1
  Si  Si28  1  0.66427482  0.61884808  0.58397117  1
  Si  Si29  1  0.37846508  0.34175561  0.08579224  1
  Si  Si30  1  0.04249187  0.37944213  0.91912453  1
  Si  Si31  1  0.33017548  0.95923155  0.92161138  1
  Si  Si32  1  0.63546980  0.97452254  0.41828687  1
  Ge  Ge33  1  0.65438760  0.31615129  0.97860277  1
  Ge  Ge34  1  0.67442326  0.33031156  0.48295604  1
  Ge  Ge35  1  0.32111487  0.69102945  0.81704987  1
  S  S36  1  0.29090802  0.99477863  0.24927391  1
  S  S37  1  0.70980224  0.70600497  0.25092300  1
  S  S38  1  0.00123871  0.29691966  0.24917587  1
  S  S39  1  0.29282157  0.29608545  0.74981776  1
  S  S40  1  0.00303841  0.70617864  0.75071273  1
  S  S41  1  0.95845174  0.33565948  0.58258068  1
  S  S42  1  0.37456721  0.04331058  0.58331225  1
  S  S43  1  0.95420856  0.62434026  0.08321540  1
  S  S44  1  0.66810432  0.04159348  0.08440116  1
  S  S45  1  0.62567919  0.66274237  0.91676064  1
  S  S46  1  0.33329577  0.36936634  0.41619939  1
  S  S47  1  0.03837968  0.66400055  0.41840337  1
  O  O48  1  0.20456920  0.02265558  0.30239640  1
  O  O49  1  0.80838012  0.78727063  0.30620441  1
  O  O50  1  0.97157277  0.18362136  0.30191271  1
  O  O51  1  0.21161664  0.19104243  0.80477498  1
  O  O52  1  0.98274353  0.78956515  0.80545373  1
  O  O53  1  0.80250281  0.01077449  0.81209963  1
  O  O54  1  0.76076561  0.94362034  0.69115813  1
  O  O55  1  0.19234989  0.21150376  0.69459399  1
  O  O56  1  0.03467020  0.81043167  0.69508123  1
  O  O57  1  0.79435385  0.81810752  0.19745856  1
  O  O58  1  0.02832499  0.21815628  0.19306584  1
  O  O59  1  0.19415657  0.97742764  0.19365139  1
  O  O60  1  0.87636231  0.36286975  0.63586324  1
  O  O61  1  0.48755930  0.11944931  0.63502098  1
  O  O62  1  0.63653955  0.49868316  0.64126822  1
  O  O63  1  0.87103874  0.50918186  0.13556226  1
  O  O64  1  0.64354087  0.12521941  0.13864274  1
  O  O65  1  0.48194128  0.35590383  0.14589115  1
  O  O66  1  0.47777986  0.30190443  0.02339469  1
  O  O67  1  0.85420120  0.54560878  0.02648936  1
  O  O68  1  0.70579071  0.15543840  0.02793094  1
  O  O69  1  0.45619040  0.15572393  0.52742656  1
  O  O70  1  0.69803654  0.51814921  0.52086576  1
  O  O71  1  0.84402522  0.29389041  0.52755691  1
  O  O72  1  0.54650052  0.69538667  0.97062154  1
  O  O73  1  0.15565715  0.45679509  0.97782755  1
  O  O74  1  0.30564908  0.85056826  0.98162507  1
  O  O75  1  0.54762146  0.85518164  0.47750367  1
  O  O76  1  0.30449136  0.44571032  0.47162549  1
  O  O77  1  0.13228688  0.68051135  0.47404960  1
  O  O78  1  0.11949652  0.63571519  0.36437229  1
  O  O79  1  0.52636350  0.90381638  0.35605272  1
  O  O80  1  0.36145855  0.47913408  0.36195042  1
  O  O81  1  0.13636385  0.51673109  0.85885025  1
  O  O82  1  0.38065245  0.87747656  0.86183593  1
  O  O83  1  0.51703556  0.62624056  0.86240757  1
  O  O84  1  0.01679480  0.81701988  0.41199074  1
  O  O85  1  0.82447365  0.98784789  0.41225290  1
  O  O86  1  0.18552939  0.19304634  0.40957866  1
  O  O87  1  0.00853884  0.18604948  0.91061957  1
  O  O88  1  0.16317952  0.98001056  0.91065100  1
  O  O89  1  0.80303160  0.81253599  0.91028306  1
  O  O90  1  0.98529686  0.18540394  0.58728787  1
  O  O91  1  0.20350015  0.03323615  0.58990307  1
  O  O92  1  0.84295685  0.80948596  0.58132643  1
  O  O93  1  0.97049619  0.79627948  0.08964697  1
  O  O94  1  0.82410359  0.02548616  0.08860414  1
  O  O95  1  0.18652837  0.16051081  0.08336663  1
  O  O96  1  0.67049194  0.16298291  0.74571589  1
  O  O97  1  0.47168238  0.32512325  0.74584126  1
  O  O98  1  0.84551007  0.53482269  0.74557246  1
  O  O99  1  0.68864026  0.53060737  0.24626044  1
  O  O100  1  0.84128082  0.31006489  0.24404616  1
  O  O101  1  0.47149762  0.15265956  0.24611706  1
  O  O102  1  0.64236042  0.50281993  0.92267732  1
  O  O103  1  0.84389015  0.36725333  0.92656872  1
  O  O104  1  0.51461742  0.15662157  0.92207512  1
  O  O105  1  0.65101870  0.17430500  0.42826968  1
  O  O106  1  0.50092483  0.36581032  0.42077574  1
  O  O107  1  0.85500926  0.50473553  0.42120612  1
  O  O108  1  0.35170849  0.50708774  0.08035514  1
  O  O109  1  0.13216475  0.64833385  0.07943610  1
  O  O110  1  0.50872869  0.87319720  0.07781911  1
  O  O111  1  0.34367234  0.86488979  0.57566097  1
  O  O112  1  0.49017943  0.63548242  0.57853475  1
  O  O113  1  0.12957317  0.49585095  0.57308424  1
  O  O114  1  0.31066419  0.84011730  0.25370464  1
  O  O115  1  0.52955244  0.68295744  0.25527981  1
  O  O116  1  0.15989229  0.46892861  0.25604609  1
  O  O117  1  0.30729713  0.47030609  0.75457238  1
  O  O118  1  0.16261599  0.68690132  0.75451347  1
  O  O119  1  0.49291727  0.79870036  0.76090383  1
