# generated using pymatgen
data_YGeP(SO6)2
_symmetry_space_group_name_H-M   'P 1'
_cell_length_a   8.82847004
_cell_length_b   8.88455045
_cell_length_c   21.98396119
_cell_angle_alpha   89.15544055
_cell_angle_beta   90.00000000
_cell_angle_gamma   119.79141528
_symmetry_Int_Tables_number   1
_chemical_formula_structural   YGeP(SO6)2
_chemical_formula_sum   'Y6 Ge6 P6 S12 O72'
_cell_volume   1496.24881802
_cell_formula_units_Z   6
loop_
 _symmetry_equiv_pos_site_id
 _symmetry_equiv_pos_as_xyz
  1  'x, y, z'
loop_
 _atom_site_type_symbol
 _atom_site_label
 _atom_site_symmetry_multiplicity
 _atom_site_fract_x
 _atom_site_fract_y
 _atom_site_fract_z
 _atom_site_occupancy
  Y  Y0  1  0.00592275  0.00225429  0.36800438  1
  Y  Y1  1  0.99633154  0.00225429  0.86800438  1
  Y  Y2  1  0.67329212  0.33719484  0.70172693  1
  Y  Y3  1  0.66390372  0.33719484  0.20172693  1
  Y  Y4  1  0.32902159  0.65622769  0.03426421  1
  Y  Y5  1  0.32720510  0.65622769  0.53426421  1
  Ge  Ge6  1  0.99691088  0.99555625  0.64486848  1
  Ge  Ge7  1  0.99864537  0.99555625  0.14486848  1
  Ge  Ge8  1  0.65707446  0.32481838  0.97969510  1
  Ge  Ge9  1  0.66774492  0.32481838  0.47969510  1
  Ge  Ge10  1  0.35503580  0.66136412  0.31181027  1
  Ge  Ge11  1  0.30632732  0.66136412  0.81181027  1
  P  P12  1  0.71096032  0.74567622  0.24930486  1
  P  P13  1  0.03471590  0.74567622  0.74930486  1
  P  P14  1  0.92293009  0.28622114  0.58313944  1
  P  P15  1  0.36329204  0.28622114  0.08313944  1
  P  P16  1  0.02463891  0.40273443  0.91777446  1
  P  P17  1  0.37809453  0.40273443  0.41777446  1
  S  S18  1  0.26727407  0.95325896  0.25080055  1
  S  S19  1  0.04508508  0.30828362  0.24938556  1
  S  S20  1  0.26319854  0.30828362  0.74938556  1
  S  S21  1  0.68598489  0.95325896  0.75080055  1
  S  S22  1  0.36351110  0.06789465  0.58383867  1
  S  S23  1  0.70686342  0.63780474  0.58274593  1
  S  S24  1  0.93094232  0.63780474  0.08274593  1
  S  S25  1  0.70438454  0.06789465  0.08383867  1
  S  S26  1  0.59322998  0.62440452  0.91611111  1
  S  S27  1  0.37161754  0.97054558  0.91648863  1
  S  S28  1  0.59892704  0.97054558  0.41648863  1
  S  S29  1  0.03117355  0.62440452  0.41611111  1
  O  O30  1  0.19527299  0.99355068  0.30364730  1
  O  O31  1  0.81902546  0.82428670  0.30478805  1
  O  O32  1  0.01210324  0.20311215  0.30436007  1
  O  O33  1  0.19100891  0.20311215  0.80436007  1
  O  O34  1  0.00526123  0.82428670  0.80478805  1
  O  O35  1  0.79827769  0.99355068  0.80364730  1
  O  O36  1  0.77020666  0.92912515  0.69499870  1
  O  O37  1  0.15306257  0.22645069  0.69438434  1
  O  O38  1  0.06777633  0.86784287  0.69091631  1
  O  O39  1  0.80006654  0.86784287  0.19091631  1
  O  O40  1  0.07338812  0.22645069  0.19438434  1
  O  O41  1  0.15891850  0.92912515  0.19499870  1
  O  O42  1  0.84237711  0.31795957  0.63819732  1
  O  O43  1  0.46660097  0.14199949  0.63809682  1
  O  O44  1  0.66280049  0.52713537  0.63681092  1
  O  O45  1  0.86433588  0.52713537  0.13681092  1
  O  O46  1  0.67539952  0.14199949  0.13809682  1
  O  O47  1  0.47558346  0.31795957  0.13819732  1
  O  O48  1  0.45268345  0.25586929  0.02494675  1
  O  O49  1  0.82122138  0.55463652  0.02816206  1
  O  O50  1  0.73126015  0.18025327  0.02761366  1
  O  O51  1  0.44899412  0.18025327  0.52761366  1
  O  O52  1  0.73341614  0.55463652  0.52816206  1
  O  O53  1  0.80318685  0.25586929  0.52494675  1
  O  O54  1  0.52616016  0.66385819  0.97054229  1
  O  O55  1  0.14402023  0.48428909  0.97086151  1
  O  O56  1  0.34522140  0.86644738  0.97109408  1
  O  O57  1  0.52122498  0.86644738  0.47109408  1
  O  O58  1  0.34026786  0.48428909  0.47086151  1
  O  O59  1  0.13769702  0.66385819  0.47054229  1
  O  O60  1  0.11796393  0.60005752  0.36162339  1
  O  O61  1  0.49171746  0.88757737  0.36064890  1
  O  O62  1  0.41405402  0.52268774  0.35791286  1
  O  O63  1  0.10863272  0.52268774  0.85791286  1
  O  O64  1  0.39585891  0.88757737  0.86064890  1
  O  O65  1  0.48209259  0.60005752  0.86162339  1
  O  O66  1  0.99036389  0.76381953  0.40671250  1
  O  O67  1  0.77805240  0.00456961  0.40964929  1
  O  O68  1  0.23129988  0.22062157  0.40651627  1
  O  O69  1  0.98932168  0.22062157  0.90651627  1
  O  O70  1  0.22651721  0.00456961  0.90964929  1
  O  O71  1  0.77345564  0.76381953  0.90671250  1
  O  O72  1  0.92821972  0.11246655  0.59241469  1
  O  O73  1  0.19264368  0.06697658  0.58820885  1
  O  O74  1  0.87836564  0.80276943  0.59016483  1
  O  O75  1  0.92440379  0.80276943  0.09016483  1
  O  O76  1  0.87433289  0.06697658  0.08820885  1
  O  O77  1  0.18424684  0.11246655  0.09241469  1
  O  O78  1  0.64381143  0.09179194  0.74166215  1
  O  O79  1  0.44186210  0.34263612  0.74054348  1
  O  O80  1  0.88592963  0.56393539  0.73886533  1
  O  O81  1  0.67800676  0.56393539  0.23886533  1
  O  O82  1  0.90077502  0.34263612  0.24054348  1
  O  O83  1  0.44798151  0.09179194  0.24166215  1
  O  O84  1  0.59173079  0.45532274  0.92433231  1
  O  O85  1  0.84746551  0.39984361  0.92847915  1
  O  O86  1  0.53993973  0.14109735  0.92065943  1
  O  O87  1  0.60115862  0.14109735  0.42065943  1
  O  O88  1  0.55237910  0.39984361  0.42847915  1
  O  O89  1  0.86359295  0.45532274  0.42433231  1
  O  O90  1  0.32767772  0.43393918  0.07222673  1
  O  O91  1  0.11341079  0.68378387  0.07372183  1
  O  O92  1  0.55963887  0.89214648  0.07531483  1
  O  O93  1  0.33250661  0.89214648  0.57531483  1
  O  O94  1  0.57037208  0.68378387  0.57372183  1
  O  O95  1  0.10626046  0.43393918  0.57222673  1
  O  O96  1  0.26250140  0.78293751  0.26022637  1
  O  O97  1  0.53084791  0.74124724  0.25514771  1
  O  O98  1  0.21280367  0.47871683  0.25559034  1
  O  O99  1  0.26591216  0.47871683  0.75559034  1
  O  O100  1  0.21039834  0.74124724  0.75514771  1
  O  O101  1  0.52043510  0.78293751  0.76022637  1
