# generated using pymatgen
data_Na10Al4In4Si5S7O48
_symmetry_space_group_name_H-M   'P 1'
_cell_length_a   17.72281881
_cell_length_b   8.91497896
_cell_length_c   22.33319384
_cell_angle_alpha   89.58127215
_cell_angle_beta   88.88533520
_cell_angle_gamma   120.01976341
_symmetry_Int_Tables_number   1
_chemical_formula_structural   Na10Al4In4Si5S7O48
_chemical_formula_sum   'Na30 Al12 In12 Si15 S21 O144'
_cell_volume   3054.08919183
_cell_formula_units_Z   3
loop_
 _symmetry_equiv_pos_site_id
 _symmetry_equiv_pos_as_xyz
  1  'x, y, z'
loop_
 _atom_site_type_symbol
 _atom_site_label
 _atom_site_symmetry_multiplicity
 _atom_site_fract_x
 _atom_site_fract_y
 _atom_site_fract_z
 _atom_site_occupancy
  Na  Na0  1  0.32738526  -0.00000826  0.24926616  1
  Na  Na1  1  0.82220291  0.99852920  0.25420443  1
  Na  Na2  1  0.18493503  0.37647495  0.24042998  1
  Na  Na3  1  0.67578555  0.36257442  0.24484299  1
  Na  Na4  1  0.99316689  0.63394657  0.26151573  1
  Na  Na5  1  0.49636553  0.62478135  0.25943254  1
  Na  Na6  1  0.82757243  0.65166137  0.74323968  1
  Na  Na7  1  0.99335767  0.35916932  0.75627922  1
  Na  Na8  1  0.49753339  0.35319905  0.75781683  1
  Na  Na9  1  0.17700217  0.98993937  0.73999612  1
  Na  Na10  1  0.01997257  0.71118718  0.58505304  1
  Na  Na11  1  0.32997483  0.97339272  0.59090906  1
  Na  Na12  1  0.02244992  0.32822460  0.08297493  1
  Na  Na13  1  0.51453302  0.33103597  0.08635991  1
  Na  Na14  1  0.16158039  0.30207640  0.92758139  1
  Na  Na15  1  0.66454557  0.30071216  0.92716225  1
  Na  Na16  1  0.16290443  0.01732257  0.42702724  1
  Na  Na17  1  0.66135560  0.02960359  0.42562536  1
  Na  Na18  1  0.99381042  0.99530576  0.50240101  1
  Na  Na19  1  0.51063209  0.99310730  0.49569651  1
  Na  Na20  1  0.00297028  0.00304777  0.00070933  1
  Na  Na21  1  0.50128679  0.99602646  0.00547598  1
  Na  Na22  1  0.34600487  0.33295840  0.83559584  1
  Na  Na23  1  0.84745679  0.31875814  0.82998597  1
  Na  Na24  1  0.35243860  0.36722904  0.33812231  1
  Na  Na25  1  0.84606600  0.36159861  0.33958358  1
  Na  Na26  1  0.17568848  0.66136982  0.16909465  1
  Na  Na27  1  0.67693421  0.65930798  0.16578467  1
  Na  Na28  1  0.17154792  0.67242548  0.66814652  1
  Na  Na29  1  0.68062174  0.71451425  0.65871441  1
  Al  Al30  1  0.48548605  0.96939766  0.34761220  1
  Al  Al31  1  0.00152958  0.99244975  0.64733143  1
  Al  Al32  1  0.49940547  0.01482631  0.15359476  1
  Al  Al33  1  0.33042361  0.32061166  0.68008676  1
  Al  Al34  1  0.82970190  0.31289228  0.68388424  1
  Al  Al35  1  0.33821990  0.35268074  0.18820693  1
  Al  Al36  1  0.33772998  0.34845019  0.48242935  1
  Al  Al37  1  0.83732301  0.34962781  0.48387196  1
  Al  Al38  1  0.66137952  0.64497676  0.01941089  1
  Al  Al39  1  0.65788397  0.70151908  0.51769696  1
  Al  Al40  1  0.16051251  0.64817859  0.31563559  1
  Al  Al41  1  0.65125846  0.62548710  0.31691662  1
  In  In42  1  0.98792591  0.98469519  0.35287208  1
  In  In43  1  0.98886965  0.99027322  0.84667305  1
  In  In44  1  0.49606652  0.01489008  0.85082136  1
  In  In45  1  0.50784435  0.00277250  0.64268622  1
  In  In46  1  0.99815821  0.00341677  0.15506330  1
  In  In47  1  0.82787070  0.33510355  0.18274249  1
  In  In48  1  0.33818912  0.33608187  0.98638152  1
  In  In49  1  0.83219607  0.33225839  0.98462712  1
  In  In50  1  0.16948418  0.65212029  0.01954310  1
  In  In51  1  0.16508417  0.66949801  0.51827318  1
  In  In52  1  0.16188431  0.66711991  0.81193957  1
  In  In53  1  0.66815580  0.68190276  0.81428295  1
  Si  Si54  1  0.35505160  0.71107767  0.25032407  1
  Si  Si55  1  0.84230388  0.69677818  0.25418187  1
  Si  Si56  1  0.00227761  0.30668127  0.25115548  1
  Si  Si57  1  0.49657515  0.28233486  0.25108536  1
  Si  Si58  1  0.99274089  0.69581390  0.74204200  1
  Si  Si59  1  0.35346341  0.00983726  0.74207880  1
  Si  Si60  1  0.85456838  0.00519973  0.74255969  1
  Si  Si61  1  0.18789827  0.05862799  0.58073277  1
  Si  Si62  1  0.69659247  0.05622728  0.57899957  1
  Si  Si63  1  0.18972655  0.32773262  0.08769518  1
  Si  Si64  1  0.67520484  0.32448698  0.08342772  1
  Si  Si65  1  0.01330100  0.35736304  0.91648957  1
  Si  Si66  1  0.52075844  0.37850593  0.91804505  1
  Si  Si67  1  0.01579643  0.65817312  0.41798945  1
  Si  Si68  1  0.51689391  0.66707989  0.41529136  1
  S  S69  1  0.15539456  0.00194742  0.25222586  1
  S  S70  1  0.63736496  0.99125795  0.25193149  1
  S  S71  1  0.15243813  0.29133576  0.74334048  1
  S  S72  1  0.65409340  0.29672976  0.74916102  1
  S  S73  1  0.49334164  0.69250353  0.74742651  1
  S  S74  1  0.47927381  0.35027841  0.57979924  1
  S  S75  1  0.97369366  0.32319112  0.58406264  1
  S  S76  1  0.33255900  0.60996385  0.58267566  1
  S  S77  1  0.82990053  0.61957244  0.58207121  1
  S  S78  1  0.48465310  0.64100170  0.08713059  1
  S  S79  1  0.98569759  0.64101118  0.08379094  1
  S  S80  1  0.33584468  0.03804818  0.09003096  1
  S  S81  1  0.82507765  0.01390619  0.08199296  1
  S  S82  1  0.31819166  0.66881659  0.91440860  1
  S  S83  1  0.81093256  0.67014489  0.92056505  1
  S  S84  1  0.16707432  0.96534648  0.91649962  1
  S  S85  1  0.66430204  0.95322652  0.92048703  1
  S  S86  1  0.31911209  0.96378270  0.41430481  1
  S  S87  1  0.80603848  0.95351767  0.41897008  1
  S  S88  1  0.17160584  0.37777242  0.41548428  1
  S  S89  1  0.66655031  0.38187667  0.41951496  1
  O  O90  1  0.11961906  0.04327182  0.30594230  1
  O  O91  1  0.59848458  0.02189872  0.30676908  1
  O  O92  1  0.41773308  0.78118429  0.30766264  1
  O  O93  1  0.91582576  0.76806849  0.30503750  1
  O  O94  1  0.47896015  0.14495355  0.30580123  1
  O  O95  1  0.98074151  0.17460849  0.30747211  1
  O  O96  1  0.12198986  0.19275418  0.80162503  1
  O  O97  1  0.62101374  0.19609029  0.80691116  1
  O  O98  1  0.48530776  0.77185850  0.80322851  1
  O  O99  1  0.97203921  0.77062846  0.80338840  1
  O  O100  1  0.41856746  0.06410281  0.79867615  1
  O  O101  1  0.90836689  0.05626203  0.80490705  1
  O  O102  1  0.39607807  0.97908169  0.68103117  1
  O  O103  1  0.91042234  0.97514670  0.68972833  1
  O  O104  1  0.09287078  0.19509114  0.69479704  1
  O  O105  1  0.59276775  0.21195541  0.70041772  1
  O  O106  1  0.01547925  0.82964628  0.68509764  1
  O  O107  1  0.51007738  0.80211871  0.69418354  1
  O  O108  1  0.40277634  0.84752334  0.19413857  1
  O  O109  1  0.88114867  0.82531439  0.19468222  1
  O  O110  1  0.02877642  0.24307212  0.18977200  1
  O  O111  1  0.51900331  0.21072382  0.18995519  1
  O  O112  1  0.09662865  0.95661111  0.20075093  1
  O  O113  1  0.58593848  0.97407836  0.19844149  1
  O  O114  1  0.44070784  0.36988137  0.63768796  1
  O  O115  1  0.93311956  0.35415283  0.63824644  1
  O  O116  1  0.25031629  0.14782061  0.63801867  1
  O  O117  1  0.75018724  0.15288104  0.63786958  1
  O  O118  1  0.33071947  0.51383021  0.63746160  1
  O  O119  1  0.81903965  0.52019985  0.63847776  1
  O  O120  1  0.44187232  0.51520595  0.13949312  1
  O  O121  1  0.94756946  0.53281920  0.13946127  1
  O  O122  1  0.32835432  0.13032579  0.14217261  1
  O  O123  1  0.81195240  0.08308388  0.13941230  1
  O  O124  1  0.25112793  0.33917374  0.14315067  1
  O  O125  1  0.73258856  0.35953439  0.14304058  1
  O  O126  1  0.22868448  0.31781644  0.02158660  1
  O  O127  1  0.71837318  0.29607115  0.02240003  1
  O  O128  1  0.43352533  0.57100053  0.03241186  1
  O  O129  1  0.93520777  0.55269925  0.03077093  1
  O  O130  1  0.35594211  0.14460406  0.03371367  1
  O  O131  1  0.84450140  0.13894531  0.03202332  1
  O  O132  1  0.23981064  0.16850210  0.51883917  1
  O  O133  1  0.74415955  0.17205714  0.51824156  1
  O  O134  1  0.33848768  0.52580891  0.52769607  1
  O  O135  1  0.84919499  0.53523627  0.53041455  1
  O  O136  1  0.42023351  0.32724025  0.53000200  1
  O  O137  1  0.92533128  0.31337835  0.52975634  1
  O  O138  1  0.28246987  0.69879893  0.97094585  1
  O  O139  1  0.75978505  0.68025913  0.97195822  1
  O  O140  1  0.07179402  0.44383725  0.97668491  1
  O  O141  1  0.58049796  0.48405808  0.97420534  1
  O  O142  1  0.16399486  0.86479863  0.97054148  1
  O  O143  1  0.66220570  0.84809189  0.97221270  1
  O  O144  1  0.28496149  0.86533884  0.47318475  1
  O  O145  1  0.75937181  0.84033904  0.47205828  1
  O  O146  1  0.16163444  0.45756690  0.47104200  1
  O  O147  1  0.65688054  0.47435484  0.47086111  1
  O  O148  1  0.07291624  0.70343133  0.47937987  1
  O  O149  1  0.58275211  0.71213310  0.47136243  1
  O  O150  1  0.07090158  0.64323939  0.36002912  1
  O  O151  1  0.56366745  0.63597247  0.35537027  1
  O  O152  1  0.25923869  0.87114337  0.36507547  1
  O  O153  1  0.75954917  0.87250612  0.36315570  1
  O  O154  1  0.18044026  0.48345847  0.36142782  1
  O  O155  1  0.67779139  0.48128102  0.36136916  1
  O  O156  1  0.05895717  0.46319800  0.85357123  1
  O  O157  1  0.56137771  0.47127151  0.85231110  1
  O  O158  1  0.17911699  0.89222190  0.86009966  1
  O  O159  1  0.67839007  0.89130089  0.86241598  1
  O  O160  1  0.26719722  0.65906343  0.86207348  1
  O  O161  1  0.76787683  0.65676231  0.86262539  1
  O  O162  1  0.01230152  0.84018632  0.41409683  1
  O  O163  1  0.51179322  0.84857928  0.40598908  1
  O  O164  1  0.40633966  0.98511267  0.40646272  1
  O  O165  1  0.89514501  0.97666144  0.42125945  1
  O  O166  1  0.09462653  0.20090967  0.41299084  1
  O  O167  1  0.59011174  0.20533481  0.41503684  1
  O  O168  1  0.01251450  0.17207999  0.91432068  1
  O  O169  1  0.51911972  0.18983536  0.92006516  1
  O  O170  1  0.08619166  0.97486745  0.91537133  1
  O  O171  1  0.58161773  0.95914329  0.91965587  1
  O  O172  1  0.40908734  0.81570944  0.91117383  1
  O  O173  1  0.89842943  0.82146516  0.92221707  1
  O  O174  1  0.48374858  0.18767132  0.58118874  1
  O  O175  1  0.98244666  0.16773141  0.58930881  1
  O  O176  1  0.08803609  0.02903252  0.58769633  1
  O  O177  1  0.59660015  0.03069526  0.57915165  1
  O  O178  1  0.40849961  0.78937436  0.58106905  1
  O  O179  1  0.91096270  0.79570223  0.58468570  1
  O  O180  1  0.49440316  0.81115089  0.09828686  1
  O  O181  1  0.99067240  0.80907661  0.08779158  1
  O  O182  1  0.41221849  0.01216465  0.09454671  1
  O  O183  1  0.90399249  0.99614497  0.08357640  1
  O  O184  1  0.08970864  0.15918769  0.08815950  1
  O  O185  1  0.57803935  0.14983519  0.09198216  1
  O  O186  1  0.34339495  0.18496092  0.73570873  1
  O  O187  1  0.84078779  0.17109600  0.73557100  1
  O  O188  1  0.24164225  0.31754643  0.73349400  1
  O  O189  1  0.74152459  0.32083392  0.73875904  1
  O  O190  1  0.41362404  0.51918938  0.74174197  1
  O  O191  1  0.90652192  0.50430536  0.73206037  1
  O  O192  1  0.34154841  0.51509647  0.23975369  1
  O  O193  1  0.82478793  0.49961743  0.24839258  1
  O  O194  1  0.41149239  0.31158184  0.24095429  1
  O  O195  1  0.91222857  0.31642299  0.24416666  1
  O  O196  1  0.24298361  0.15645253  0.24048329  1
  O  O197  1  0.72773332  0.14379361  0.24783183  1
  O  O198  1  0.31899054  0.50442774  0.91708869  1
  O  O199  1  0.81486368  0.50742499  0.92351732  1
  O  O200  1  0.42281808  0.35057156  0.92144819  1
  O  O201  1  0.91783153  0.34313504  0.92031204  1
  O  O202  1  0.24254338  0.14566282  0.91787182  1
  O  O203  1  0.73787012  0.13543199  0.92215106  1
  O  O204  1  0.32343660  0.13573781  0.41907728  1
  O  O205  1  0.81254541  0.12648254  0.42169899  1
  O  O206  1  0.25137432  0.36071264  0.41792058  1
  O  O207  1  0.74689845  0.36499871  0.42221700  1
  O  O208  1  0.42087062  0.49239561  0.42824564  1
  O  O209  1  0.91967834  0.48183866  0.42759352  1
  O  O210  1  0.17783001  0.50207096  0.08942401  1
  O  O211  1  0.66400415  0.49826943  0.07570182  1
  O  O212  1  0.07480392  0.66371072  0.08014581  1
  O  O213  1  0.57184683  0.65350459  0.07939104  1
  O  O214  1  0.25397704  0.86923955  0.08519765  1
  O  O215  1  0.74571282  0.84445180  0.07186774  1
  O  O216  1  0.18008554  0.86106528  0.58194324  1
  O  O217  1  0.68359392  0.85857775  0.57462381  1
  O  O218  1  0.25112506  0.62298327  0.58338320  1
  O  O219  1  0.75176209  0.63453020  0.57313403  1
  O  O220  1  0.06369996  0.48269355  0.58225918  1
  O  O221  1  0.56761806  0.50314442  0.57223848  1
  O  O222  1  0.16806971  0.85037126  0.26172098  1
  O  O223  1  0.64634807  0.83432885  0.25601029  1
  O  O224  1  0.25764741  0.69117073  0.26332405  1
  O  O225  1  0.74813929  0.69024734  0.26700447  1
  O  O226  1  0.08740567  0.50044413  0.25981820  1
  O  O227  1  0.58222610  0.47650482  0.25976366  1
  O  O228  1  0.15824106  0.46290831  0.74621018  1
  O  O229  1  0.66244625  0.47035013  0.75339254  1
  O  O230  1  0.07835132  0.67086807  0.74554873  1
  O  O231  1  0.56949682  0.66060167  0.74893539  1
  O  O232  1  0.25595474  0.84234200  0.75091903  1
  O  O233  1  0.76061772  0.81895893  0.74758952  1
