# generated using pymatgen
data_K2GeTe4
_symmetry_space_group_name_H-M   'P 1'
_cell_length_a   8.61675261
_cell_length_b   10.05298061
_cell_length_c   12.80128258
_cell_angle_alpha   75.75043050
_cell_angle_beta   90.00000000
_cell_angle_gamma   90.00000000
_symmetry_Int_Tables_number   1
_chemical_formula_structural   K2GeTe4
_chemical_formula_sum   'K8 Ge4 Te16'
_cell_volume   1074.78114319
_cell_formula_units_Z   4
loop_
 _symmetry_equiv_pos_site_id
 _symmetry_equiv_pos_as_xyz
  1  'x, y, z'
loop_
 _atom_site_type_symbol
 _atom_site_label
 _atom_site_symmetry_multiplicity
 _atom_site_fract_x
 _atom_site_fract_y
 _atom_site_fract_z
 _atom_site_occupancy
  K  K0  1  0.92542316  0.19450885  0.65339553  1
  K  K1  1  0.42542316  0.30549115  0.34660447  1
  K  K2  1  0.07457684  0.80549115  0.34660447  1
  K  K3  1  0.57457684  0.69450885  0.65339553  1
  K  K4  1  0.56393995  0.21264602  0.95453464  1
  K  K5  1  0.06393995  0.28735398  0.04546536  1
  K  K6  1  0.43606005  0.78735398  0.04546536  1
  K  K7  1  0.93606005  0.71264602  0.95453464  1
  Ge  Ge8  1  0.63766777  0.96272042  0.25667784  1
  Ge  Ge9  1  0.13766777  0.53727958  0.74332216  1
  Ge  Ge10  1  0.36233223  0.03727958  0.74332216  1
  Ge  Ge11  1  0.86233223  0.46272042  0.25667784  1
  Te  Te12  1  0.72921966  0.04529732  0.42905827  1
  Te  Te13  1  0.22921966  0.45470268  0.57094173  1
  Te  Te14  1  0.27078034  0.95470268  0.57094173  1
  Te  Te15  1  0.77078034  0.54529732  0.42905827  1
  Te  Te16  1  0.34386288  0.53000818  0.88379259  1
  Te  Te17  1  0.84386288  0.96999182  0.11620741  1
  Te  Te18  1  0.65613712  0.46999182  0.11620741  1
  Te  Te19  1  0.15613712  0.03000818  0.88379259  1
  Te  Te20  1  0.36042393  0.04170483  0.20221461  1
  Te  Te21  1  0.86042393  0.45829517  0.79778539  1
  Te  Te22  1  0.63957607  0.95829517  0.79778539  1
  Te  Te23  1  0.13957607  0.54170483  0.20221461  1
  Te  Te24  1  0.52724046  0.71840465  0.34951182  1
  Te  Te25  1  0.02724046  0.78159535  0.65048818  1
  Te  Te26  1  0.47275954  0.28159535  0.65048818  1
  Te  Te27  1  0.97275954  0.21840465  0.34951182  1
