# generated using pymatgen
data_KCdCl3
_symmetry_space_group_name_H-M   'P 1'
_cell_length_a   4.01365267
_cell_length_b   8.85064146
_cell_length_c   14.61070190
_cell_angle_alpha   90.00000000
_cell_angle_beta   90.00000000
_cell_angle_gamma   90.00000000
_symmetry_Int_Tables_number   1
_chemical_formula_structural   KCdCl3
_chemical_formula_sum   'K4 Cd4 Cl12'
_cell_volume   519.02181850
_cell_formula_units_Z   4
loop_
 _symmetry_equiv_pos_site_id
 _symmetry_equiv_pos_as_xyz
  1  'x, y, z'
loop_
 _atom_site_type_symbol
 _atom_site_label
 _atom_site_symmetry_multiplicity
 _atom_site_fract_x
 _atom_site_fract_y
 _atom_site_fract_z
 _atom_site_occupancy
  K  K0  1  0.25000000  0.92844096  0.67792962  1
  K  K1  1  0.75000000  0.07155904  0.32207038  1
  K  K2  1  0.25000000  0.42844096  0.82207038  1
  K  K3  1  0.75000000  0.57155904  0.17792962  1
  Cd  Cd4  1  0.75000000  0.32827596  0.55457937  1
  Cd  Cd5  1  0.25000000  0.67172404  0.44542063  1
  Cd  Cd6  1  0.75000000  0.82827596  0.94542063  1
  Cd  Cd7  1  0.25000000  0.17172404  0.05457937  1
  Cl  Cl8  1  0.75000000  0.47945710  0.39698840  1
  Cl  Cl9  1  0.25000000  0.52054290  0.60301160  1
  Cl  Cl10  1  0.75000000  0.97945710  0.10301160  1
  Cl  Cl11  1  0.25000000  0.02054290  0.89698840  1
  Cl  Cl12  1  0.25000000  0.16442475  0.48897918  1
  Cl  Cl13  1  0.75000000  0.83557525  0.51102082  1
  Cl  Cl14  1  0.25000000  0.66442475  0.01102082  1
  Cl  Cl15  1  0.75000000  0.33557525  0.98897918  1
  Cl  Cl16  1  0.25000000  0.29237242  0.21121132  1
  Cl  Cl17  1  0.75000000  0.70762758  0.78878868  1
  Cl  Cl18  1  0.25000000  0.79237242  0.28878868  1
  Cl  Cl19  1  0.75000000  0.20762758  0.71121132  1
