# generated using pymatgen
data_Na6Nb6In2Si9(SO16)3
_symmetry_space_group_name_H-M   'P 1'
_cell_length_a   17.97003896
_cell_length_b   9.01589922
_cell_length_c   22.83727744
_cell_angle_alpha   90.09829332
_cell_angle_beta   89.85310254
_cell_angle_gamma   120.05672223
_symmetry_Int_Tables_number   1
_chemical_formula_structural   Na6Nb6In2Si9(SO16)3
_chemical_formula_sum   'Na18 Nb18 In6 Si27 S9 O144'
_cell_volume   3202.45496920
_cell_formula_units_Z   3
loop_
 _symmetry_equiv_pos_site_id
 _symmetry_equiv_pos_as_xyz
  1  'x, y, z'
loop_
 _atom_site_type_symbol
 _atom_site_label
 _atom_site_symmetry_multiplicity
 _atom_site_fract_x
 _atom_site_fract_y
 _atom_site_fract_z
 _atom_site_occupancy
  Na  Na0  1  0.32305776  0.01786847  0.25415486  1
  Na  Na1  1  0.68624990  0.37034643  0.24340542  1
  Na  Na2  1  0.49188288  0.61826941  0.24944370  1
  Na  Na3  1  0.82235696  0.62953037  0.75196398  1
  Na  Na4  1  0.99271168  0.36450956  0.74686456  1
  Na  Na5  1  0.18690469  0.00624134  0.74025907  1
  Na  Na6  1  0.00385190  0.01214447  0.49986238  1
  Na  Na7  1  0.50644127  0.99749399  0.49542765  1
  Na  Na8  1  0.00589053  0.01748226  0.99396912  1
  Na  Na9  1  0.50426866  0.99563236  0.99820970  1
  Na  Na10  1  0.34237667  0.33339622  0.83131207  1
  Na  Na11  1  0.82870892  0.31919782  0.82485605  1
  Na  Na12  1  0.32785280  0.34241120  0.33145759  1
  Na  Na13  1  0.84173579  0.35067657  0.33606684  1
  Na  Na14  1  0.16682253  0.65021215  0.16610160  1
  Na  Na15  1  0.67409080  0.67327770  0.16454035  1
  Na  Na16  1  0.17619448  0.67472259  0.66223577  1
  Na  Na17  1  0.65661974  0.67044892  0.65943266  1
  Nb  Nb18  1  0.00204229  0.98675627  0.35932916  1
  Nb  Nb19  1  0.50219905  0.01750798  0.85779848  1
  Nb  Nb20  1  0.99709726  0.99141422  0.64342199  1
  Nb  Nb21  1  0.49847113  0.01611103  0.63835855  1
  Nb  Nb22  1  0.99966570  0.99527189  0.14362285  1
  Nb  Nb23  1  0.49754860  0.00244253  0.14343312  1
  Nb  Nb24  1  0.33017212  0.34678919  0.97598452  1
  Nb  Nb25  1  0.82764625  0.30962504  0.97748029  1
  Nb  Nb26  1  0.33405142  0.34600324  0.48241061  1
  Nb  Nb27  1  0.83000265  0.31234136  0.47672676  1
  Nb  Nb28  1  0.16872769  0.65812696  0.01399697  1
  Nb  Nb29  1  0.65976277  0.66487470  0.02441599  1
  Nb  Nb30  1  0.16001288  0.65286871  0.52422872  1
  Nb  Nb31  1  0.66243002  0.67032348  0.51582720  1
  Nb  Nb32  1  0.16435331  0.66015547  0.31220704  1
  Nb  Nb33  1  0.66813048  0.65545814  0.31650915  1
  Nb  Nb34  1  0.16813093  0.68060360  0.81513067  1
  Nb  Nb35  1  0.66128301  0.66534990  0.80931848  1
  In  In36  1  0.50030123  0.00288839  0.35809632  1
  In  In37  1  0.00069163  0.99922244  0.85768025  1
  In  In38  1  0.33807588  0.32989830  0.67879390  1
  In  In39  1  0.82882257  0.31777058  0.68614059  1
  In  In40  1  0.32796569  0.34014651  0.18667977  1
  In  In41  1  0.83441842  0.34094239  0.18158773  1
  Si  Si42  1  0.14242674  0.99478338  0.25032152  1
  Si  Si43  1  0.35563341  0.71346962  0.25279428  1
  Si  Si44  1  0.85677766  0.71019888  0.25068842  1
  Si  Si45  1  0.50101481  0.29174547  0.25029223  1
  Si  Si46  1  0.64218082  0.28625413  0.74919961  1
  Si  Si47  1  0.00089883  0.71135042  0.75075946  1
  Si  Si48  1  0.35708442  0.00358561  0.75005795  1
  Si  Si49  1  0.85577937  0.99808162  0.75339844  1
  Si  Si50  1  0.48238354  0.34420322  0.58199006  1
  Si  Si51  1  0.97453449  0.32660185  0.58665672  1
  Si  Si52  1  0.18680880  0.03939530  0.58446685  1
  Si  Si53  1  0.68710904  0.03895112  0.58388909  1
  Si  Si54  1  0.33294362  0.62446199  0.58673592  1
  Si  Si55  1  0.47406254  0.62161866  0.08647445  1
  Si  Si56  1  0.83388402  0.04150730  0.08504855  1
  Si  Si57  1  0.18629692  0.33566011  0.08362606  1
  Si  Si58  1  0.68734794  0.33480660  0.08471493  1
  Si  Si59  1  0.31322226  0.66987206  0.91310660  1
  Si  Si60  1  0.01819131  0.37409339  0.91407358  1
  Si  Si61  1  0.52215677  0.38453249  0.91818824  1
  Si  Si62  1  0.16612355  0.96055877  0.92078274  1
  Si  Si63  1  0.66401785  0.94731746  0.91511838  1
  Si  Si64  1  0.81148383  0.95128132  0.41569009  1
  Si  Si65  1  0.16816558  0.37805907  0.41568145  1
  Si  Si66  1  0.66743910  0.37183830  0.42027230  1
  Si  Si67  1  0.02157602  0.65855686  0.41840943  1
  Si  Si68  1  0.51625690  0.66134140  0.41377885  1
  S  S69  1  0.64607763  0.99797855  0.24855124  1
  S  S70  1  0.00020586  0.28499138  0.25063443  1
  S  S71  1  0.14680349  0.29494577  0.74891532  1
  S  S72  1  0.49849480  0.71502559  0.75222896  1
  S  S73  1  0.83214525  0.62553726  0.58311293  1
  S  S74  1  0.98310364  0.62991383  0.08160553  1
  S  S75  1  0.33114864  0.03718078  0.08309942  1
  S  S76  1  0.80660976  0.65823660  0.91839338  1
  S  S77  1  0.30603227  0.95344228  0.41753188  1
  O  O78  1  0.09362421  0.01849775  0.30728789  1
  O  O79  1  0.60921151  0.02586713  0.30185978  1
  O  O80  1  0.41654128  0.79956173  0.30772361  1
  O  O81  1  0.91552020  0.81609645  0.30720750  1
  O  O82  1  0.48778389  0.17744378  0.30666587  1
  O  O83  1  0.99193939  0.18612973  0.30346103  1
  O  O84  1  0.10985740  0.19328209  0.80266018  1
  O  O85  1  0.59468876  0.16935491  0.80783634  1
  O  O86  1  0.49465538  0.80259999  0.80572984  1
  O  O87  1  0.98717518  0.79635899  0.80802238  1
  O  O88  1  0.41563340  0.01418931  0.80756960  1
  O  O89  1  0.91620731  0.03608379  0.80912345  1
  O  O90  1  0.40362487  0.98268638  0.69153089  1
  O  O91  1  0.90516562  0.96861901  0.69497787  1
  O  O92  1  0.09172295  0.20649315  0.69652833  1
  O  O93  1  0.58345817  0.19009558  0.69207000  1
  O  O94  1  0.01802488  0.83922607  0.69284205  1
  O  O95  1  0.51078735  0.81306129  0.69836500  1
  O  O96  1  0.40569603  0.84125281  0.19387835  1
  O  O97  1  0.90447467  0.82702191  0.19155369  1
  O  O98  1  0.01116057  0.20530357  0.19631921  1
  O  O99  1  0.51782270  0.19680022  0.19166592  1
  O  O100  1  0.08307696  0.97824965  0.19256190  1
  O  O101  1  0.59240871  0.97913396  0.19546662  1
  O  O102  1  0.45273491  0.38553183  0.64294654  1
  O  O103  1  0.94619526  0.37155303  0.64726998  1
  O  O104  1  0.23394650  0.09745759  0.64728349  1
  O  O105  1  0.74252274  0.10814870  0.64176198  1
  O  O106  1  0.30912223  0.50681314  0.64359722  1
  O  O107  1  0.82192442  0.53730531  0.63954648  1
  O  O108  1  0.44508111  0.51949612  0.14676603  1
  O  O109  1  0.95022088  0.53570448  0.13734040  1
  O  O110  1  0.31956213  0.10301624  0.13893213  1
  O  O111  1  0.81663016  0.12159735  0.14231655  1
  O  O112  1  0.24153181  0.37891974  0.14157901  1
  O  O113  1  0.73562068  0.37324008  0.14723604  1
  O  O114  1  0.23382091  0.30972415  0.02526827  1
  O  O115  1  0.74335302  0.31254047  0.03060670  1
  O  O116  1  0.41216245  0.51900790  0.03003759  1
  O  O117  1  0.92794969  0.54153989  0.03118838  1
  O  O118  1  0.34202637  0.14654360  0.03231101  1
  O  O119  1  0.84795250  0.16569261  0.02641259  1
  O  O120  1  0.23936121  0.17270944  0.53039497  1
  O  O121  1  0.73499571  0.16331708  0.52586251  1
  O  O122  1  0.34797591  0.53124359  0.52806884  1
  O  O123  1  0.84372267  0.53727492  0.53278899  1
  O  O124  1  0.41808220  0.31562267  0.52676281  1
  O  O125  1  0.91300417  0.30560780  0.53020368  1
  O  O126  1  0.26670166  0.69025117  0.97230340  1
  O  O127  1  0.76021910  0.67319705  0.96901522  1
  O  O128  1  0.08239928  0.48383763  0.96970417  1
  O  O129  1  0.58183187  0.47480185  0.97459678  1
  O  O130  1  0.16078506  0.83970454  0.97584991  1
  O  O131  1  0.65638325  0.83433810  0.97202981  1
  O  O132  1  0.25929430  0.84580322  0.46813491  1
  O  O133  1  0.76754159  0.83875572  0.47341667  1
  O  O134  1  0.15669996  0.47730267  0.47135468  1
  O  O135  1  0.66221138  0.48415713  0.47348093  1
  O  O136  1  0.08157057  0.68839583  0.47431841  1
  O  O137  1  0.57966582  0.67941380  0.46923826  1
  O  O138  1  0.07121303  0.63993727  0.35997961  1
  O  O139  1  0.56680294  0.64192708  0.35450692  1
  O  O140  1  0.25775113  0.86878880  0.36076650  1
  O  O141  1  0.75038015  0.85661791  0.35823712  1
  O  O142  1  0.18020415  0.49941073  0.35720043  1
  O  O143  1  0.67962378  0.48826897  0.35853083  1
  O  O144  1  0.06555385  0.49124760  0.85512279  1
  O  O145  1  0.57088924  0.50320540  0.86054119  1
  O  O146  1  0.17828394  0.86674619  0.86021145  1
  O  O147  1  0.68011482  0.85951622  0.85718440  1
  O  O148  1  0.25018188  0.64180302  0.85797094  1
  O  O149  1  0.75906431  0.63921632  0.86212420  1
  O  O150  1  0.01291809  0.83220575  0.41147454  1
  O  O151  1  0.50937019  0.83081554  0.41591186  1
  O  O152  1  0.39116779  0.97062295  0.41655947  1
  O  O153  1  0.90734648  0.97818643  0.40757445  1
  O  O154  1  0.08125477  0.19078096  0.40707529  1
  O  O155  1  0.58236178  0.18901159  0.41811172  1
  O  O156  1  0.00819343  0.18853821  0.91696744  1
  O  O157  1  0.51331191  0.19397203  0.91130042  1
  O  O158  1  0.08137271  0.97467378  0.91917055  1
  O  O159  1  0.58073931  0.97095845  0.90873470  1
  O  O160  1  0.40748368  0.83673023  0.90893043  1
  O  O161  1  0.89261162  0.81131547  0.91800204  1
  O  O162  1  0.48744272  0.16488770  0.58488751  1
  O  O163  1  0.98389291  0.15346387  0.59171865  1
  O  O164  1  0.09005418  0.02192651  0.58930610  1
  O  O165  1  0.59179114  0.02097449  0.59047920  1
  O  O166  1  0.42006496  0.81223192  0.59294377  1
  O  O167  1  0.91402711  0.80139514  0.58564478  1
  O  O168  1  0.48438765  0.81424877  0.09110404  1
  O  O169  1  0.98945578  0.80314175  0.08555222  1
  O  O170  1  0.41169637  0.02159010  0.08511915  1
  O  O171  1  0.92048082  0.02416282  0.09147109  1
  O  O172  1  0.09081567  0.16077997  0.09068367  1
  O  O173  1  0.59178306  0.15819469  0.08828912  1
  O  O174  1  0.34015886  0.16495107  0.75050593  1
  O  O175  1  0.84317337  0.16123153  0.74903966  1
  O  O176  1  0.23365677  0.31836284  0.74358323  1
  O  O177  1  0.74092279  0.33251167  0.74783814  1
  O  O178  1  0.42309056  0.54159147  0.75161659  1
  O  O179  1  0.91790017  0.52308322  0.74433278  1
  O  O180  1  0.34303185  0.52509488  0.24895839  1
  O  O181  1  0.84284545  0.51605790  0.24917697  1
  O  O182  1  0.41752695  0.31210742  0.24341365  1
  O  O183  1  0.92536958  0.31016757  0.24646383  1
  O  O184  1  0.24034579  0.14809547  0.24724454  1
  O  O185  1  0.73333735  0.14985444  0.24352924  1
  O  O186  1  0.31949841  0.49531667  0.92013953  1
  O  O187  1  0.81366870  0.50020620  0.92342804  1
  O  O188  1  0.42727699  0.36245889  0.92588078  1
  O  O189  1  0.92697151  0.37350795  0.92541910  1
  O  O190  1  0.25585928  0.14405871  0.92714675  1
  O  O191  1  0.75077140  0.14118316  0.92330103  1
  O  O192  1  0.30990219  0.12086955  0.41935303  1
  O  O193  1  0.81905363  0.14089843  0.42109787  1
  O  O194  1  0.25213327  0.35614043  0.42269101  1
  O  O195  1  0.75692923  0.36615736  0.42568118  1
  O  O196  1  0.42465749  0.48153461  0.42086726  1
  O  O197  1  0.92747636  0.49045136  0.42474264  1
  O  O198  1  0.16979587  0.49925992  0.07278327  1
  O  O199  1  0.67453888  0.49905560  0.07172897  1
  O  O200  1  0.07164996  0.65909349  0.07493710  1
  O  O201  1  0.57240458  0.65619437  0.07378597  1
  O  O202  1  0.25664625  0.85965780  0.07639728  1
  O  O203  1  0.75329735  0.85060070  0.07174788  1
  O  O204  1  0.17400539  0.84889988  0.57120760  1
  O  O205  1  0.67486742  0.84895455  0.57144579  1
  O  O206  1  0.25345324  0.65826431  0.57123845  1
  O  O207  1  0.75915082  0.65504332  0.57682695  1
  O  O208  1  0.07273978  0.48790336  0.57385395  1
  O  O209  1  0.58074258  0.50083741  0.57204119  1
  O  O210  1  0.14609378  0.81546625  0.25801605  1
  O  O211  1  0.64936983  0.83596617  0.25074077  1
  O  O212  1  0.26175544  0.71107655  0.25615879  1
  O  O213  1  0.76020238  0.69081933  0.25612167  1
  O  O214  1  0.08115139  0.45959153  0.25360352  1
  O  O215  1  0.58974443  0.48492581  0.25330449  1
  O  O216  1  0.14874339  0.46302323  0.75204210  1
  O  O217  1  0.64663705  0.47425518  0.75919453  1
  O  O218  1  0.09001732  0.69575923  0.75411288  1
  O  O219  1  0.57962942  0.69710221  0.75622092  1
  O  O220  1  0.26019251  0.82747037  0.75784380  1
  O  O221  1  0.76201830  0.81228364  0.75794195  1
