# generated using pymatgen
data_Na2MgZn(SO4)3
_symmetry_space_group_name_H-M   'P 1'
_cell_length_a   8.82061751
_cell_length_b   8.82425608
_cell_length_c   22.39483538
_cell_angle_alpha   90.39982867
_cell_angle_beta   89.58945190
_cell_angle_gamma   120.35638232
_symmetry_Int_Tables_number   1
_chemical_formula_structural   Na2MgZn(SO4)3
_chemical_formula_sum   'Na12 Mg6 Zn6 S18 O72'
_cell_volume   1504.07786621
_cell_formula_units_Z   6
loop_
 _symmetry_equiv_pos_site_id
 _symmetry_equiv_pos_as_xyz
  1  'x, y, z'
loop_
 _atom_site_type_symbol
 _atom_site_label
 _atom_site_symmetry_multiplicity
 _atom_site_fract_x
 _atom_site_fract_y
 _atom_site_fract_z
 _atom_site_occupancy
  Na  Na0  1  0.36166334  0.36165636  0.25000578  1
  Na  Na1  1  0.63755158  0.63847420  0.75057591  1
  Na  Na2  1  0.02918343  0.69476176  0.58267271  1
  Na  Na3  1  0.30508405  0.97100536  0.08284144  1
  Na  Na4  1  0.69553609  0.02887715  0.91667302  1
  Na  Na5  1  0.97091555  0.30518041  0.41722970  1
  Na  Na6  1  0.00000307  0.99999867  0.49994653  1
  Na  Na7  1  0.99999330  0.99985491  0.99937019  1
  Na  Na8  1  0.66649666  0.33332767  0.83399079  1
  Na  Na9  1  0.66665969  0.33350525  0.33398738  1
  Na  Na10  1  0.33352372  0.66667225  0.16606214  1
  Na  Na11  1  0.33335139  0.66666584  0.66662129  1
  Mg  Mg12  1  0.99737295  0.99140193  0.34989311  1
  Mg  Mg13  1  0.00219216  0.00822827  0.64969444  1
  Mg  Mg14  1  0.99140559  0.99744145  0.15006656  1
  Mg  Mg15  1  0.66448683  0.32505086  0.68367301  1
  Mg  Mg16  1  0.67529789  0.33547940  0.18419386  1
  Mg  Mg17  1  0.33554692  0.67532769  0.31581271  1
  Zn  Zn18  1  0.01021447  0.00296543  0.84790080  1
  Zn  Zn19  1  0.66973612  0.34357033  0.98543943  1
  Zn  Zn20  1  0.65613465  0.33032729  0.48495836  1
  Zn  Zn21  1  0.33072873  0.65656954  0.01563948  1
  Zn  Zn22  1  0.34389097  0.66966773  0.51507966  1
  Zn  Zn23  1  0.32324563  0.66417443  0.81765375  1
  S  S24  1  0.29406941  0.99902879  0.24844989  1
  S  S25  1  0.70429811  0.70427284  0.24999101  1
  S  S26  1  0.99902475  0.29405201  0.25154549  1
  S  S27  1  0.29703447  0.29631517  0.74967893  1
  S  S28  1  0.00026461  0.70453995  0.74812300  1
  S  S29  1  0.70516191  0.00181939  0.75123022  1
  S  S30  1  0.96153664  0.33154020  0.58205595  1
  S  S31  1  0.36964601  0.03702599  0.58359780  1
  S  S32  1  0.66633173  0.62868319  0.58513189  1
  S  S33  1  0.96297098  0.63047727  0.08369630  1
  S  S34  1  0.66863096  0.03858189  0.08215546  1
  S  S35  1  0.37112302  0.33351229  0.08524502  1
  S  S36  1  0.62950826  0.66552326  0.91514068  1
  S  S37  1  0.03578909  0.36908824  0.91665966  1
  S  S38  1  0.33217153  0.96284399  0.91819283  1
  S  S39  1  0.63035462  0.96292682  0.41637243  1
  S  S40  1  0.33360458  0.37126491  0.41483305  1
  S  S41  1  0.03854099  0.66857543  0.41789400  1
  O  O42  1  0.20855430  0.02861212  0.30046926  1
  O  O43  1  0.80846329  0.78547467  0.30375137  1
  O  O44  1  0.97591436  0.19242973  0.30667782  1
  O  O45  1  0.22070546  0.19558083  0.80486643  1
  O  O46  1  0.96820041  0.78513749  0.80139751  1
  O  O47  1  0.80378746  0.02584157  0.80746845  1
  O  O48  1  0.79452604  0.97409867  0.70010248  1
  O  O49  1  0.19021575  0.21094238  0.69699084  1
  O  O50  1  0.02219418  0.80850495  0.69384489  1
  O  O51  1  0.78549934  0.80844915  0.19624392  1
  O  O52  1  0.02865596  0.20859204  0.19953293  1
  O  O53  1  0.19243354  0.97593060  0.19332323  1
  O  O54  1  0.87208335  0.35915670  0.63320644  1
  O  O55  1  0.47644856  0.12249461  0.63631061  1
  O  O56  1  0.64453453  0.52486889  0.63945715  1
  O  O57  1  0.87747473  0.52338137  0.13644082  1
  O  O58  1  0.64080007  0.12801152  0.13334244  1
  O  O59  1  0.47525411  0.35549697  0.13960695  1
  O  O60  1  0.45191077  0.30164038  0.03197721  1
  O  O61  1  0.86223745  0.55400738  0.02851848  1
  O  O62  1  0.69246259  0.13710513  0.02591306  1
  O  O63  1  0.44609468  0.13798401  0.52839411  1
  O  O64  1  0.69839095  0.54795273  0.53184530  1
  O  O65  1  0.86277635  0.30747852  0.52578284  1
  O  O66  1  0.54487165  0.69559272  0.96758086  1
  O  O67  1  0.13920989  0.44958294  0.97084664  1
  O  O68  1  0.30931652  0.86193319  0.97368600  1
  O  O69  1  0.55382918  0.86203899  0.47156446  1
  O  O70  1  0.30169847  0.45209472  0.46811135  1
  O  O71  1  0.13718627  0.69245696  0.47416970  1
  O  O72  1  0.12808527  0.64092565  0.36668513  1
  O  O73  1  0.52337960  0.87742070  0.36359709  1
  O  O74  1  0.35546556  0.47520799  0.36043460  1
  O  O75  1  0.11623817  0.47249360  0.86247085  1
  O  O76  1  0.36234357  0.87827987  0.86575622  1
  O  O77  1  0.52861006  0.64267126  0.85964038  1
  O  O78  1  0.01793587  0.82326038  0.41038915  1
  O  O79  1  0.81090807  0.98770781  0.41052926  1
  O  O80  1  0.17216672  0.19386518  0.40960628  1
  O  O81  1  0.01230441  0.18871917  0.91183229  1
  O  O82  1  0.17564598  0.98151622  0.91168974  1
  O  O83  1  0.80679002  0.82828376  0.91101046  1
  O  O84  1  0.98219925  0.17682919  0.58956213  1
  O  O85  1  0.18899959  0.01215274  0.58943913  1
  O  O86  1  0.82779759  0.80612750  0.59035711  1
  O  O87  1  0.98778580  0.81093215  0.08952721  1
  O  O88  1  0.82334711  0.01794913  0.08964961  1
  O  O89  1  0.19371005  0.17215059  0.09047978  1
  O  O90  1  0.68432003  0.15645718  0.74374603  1
  O  O91  1  0.47774787  0.32129611  0.74383394  1
  O  O92  1  0.83886116  0.52705211  0.74289802  1
  O  O93  1  0.67985286  0.52347643  0.24465054  1
  O  O94  1  0.84357330  0.31415148  0.24458651  1
  O  O95  1  0.47154796  0.16141390  0.24374451  1
  O  O96  1  0.64829101  0.50909438  0.92164406  1
  O  O97  1  0.85528901  0.34555882  0.92150724  1
  O  O98  1  0.49494242  0.14012853  0.92231623  1
  O  O99  1  0.65320972  0.14326747  0.42070422  1
  O  O100  1  0.49074628  0.35326397  0.42081451  1
  O  O101  1  0.86141605  0.50486672  0.42149477  1
  O  O102  1  0.35309194  0.49056600  0.07927063  1
  O  O103  1  0.14345982  0.65339356  0.07935337  1
  O  O104  1  0.50486206  0.86146946  0.07857055  1
  O  O105  1  0.34674306  0.85667461  0.57925726  1
  O  O106  1  0.50922974  0.64677409  0.57914435  1
  O  O107  1  0.13867891  0.49515771  0.57845181  1
  O  O108  1  0.31421586  0.84366612  0.25541919  1
  O  O109  1  0.52339752  0.67981352  0.25535365  1
  O  O110  1  0.16141259  0.47150567  0.25624350  1
  O  O111  1  0.32005616  0.47677405  0.75400968  1
  O  O112  1  0.15735016  0.68641271  0.75410205  1
  O  O113  1  0.52798514  0.83814480  0.75482779  1
