# generated using pymatgen
data_TlB3O5
_symmetry_space_group_name_H-M   'P 1'
_cell_length_a   5.16604429
_cell_length_b   8.25487524
_cell_length_c   10.29759602
_cell_angle_alpha   90.00000000
_cell_angle_beta   90.00000000
_cell_angle_gamma   90.00000000
_symmetry_Int_Tables_number   1
_chemical_formula_structural   TlB3O5
_chemical_formula_sum   'Tl4 B12 O20'
_cell_volume   439.14150846
_cell_formula_units_Z   4
loop_
 _symmetry_equiv_pos_site_id
 _symmetry_equiv_pos_as_xyz
  1  'x, y, z'
loop_
 _atom_site_type_symbol
 _atom_site_label
 _atom_site_symmetry_multiplicity
 _atom_site_fract_x
 _atom_site_fract_y
 _atom_site_fract_z
 _atom_site_occupancy
  Tl  Tl0  1  0.47129087  0.72854167  0.62878912  1
  Tl  Tl1  1  0.97129087  0.77145833  0.37121088  1
  Tl  Tl2  1  0.52870913  0.22854167  0.87121088  1
  Tl  Tl3  1  0.02870913  0.27145833  0.12878912  1
  B  B4  1  0.10262689  0.35185727  0.64612713  1
  B  B5  1  0.60262689  0.14814273  0.35387287  1
  B  B6  1  0.89737311  0.85185727  0.85387287  1
  B  B7  1  0.39737311  0.64814273  0.14612713  1
  B  B8  1  0.69714593  0.61537626  0.95951946  1
  B  B9  1  0.19714593  0.88462374  0.04048054  1
  B  B10  1  0.95668221  0.06719282  0.69156791  1
  B  B11  1  0.45668221  0.43280718  0.30843209  1
  B  B12  1  0.04331779  0.56719282  0.80843209  1
  B  B13  1  0.54331779  0.93280718  0.19156791  1
  B  B14  1  0.30285407  0.11537626  0.54048054  1
  B  B15  1  0.80285407  0.38462374  0.45951946  1
  O  O16  1  0.31736477  0.27252224  0.57961896  1
  O  O17  1  0.85733658  0.50649141  0.89239620  1
  O  O18  1  0.64266342  0.49350859  0.39239620  1
  O  O19  1  0.35733658  0.99350859  0.10760380  1
  O  O20  1  0.56449033  0.77077953  0.21131033  1
  O  O21  1  0.06449033  0.72922047  0.78868967  1
  O  O22  1  0.43550967  0.27077953  0.28868967  1
  O  O23  1  0.93550967  0.22922047  0.71131033  1
  O  O24  1  0.29251466  0.53584713  0.24407205  1
  O  O25  1  0.79251466  0.96415287  0.75592795  1
  O  O26  1  0.70748534  0.03584713  0.25592795  1
  O  O27  1  0.20748534  0.46415287  0.74407205  1
  O  O28  1  0.68263523  0.77252224  0.92038104  1
  O  O29  1  0.18263523  0.72747776  0.07961896  1
  O  O30  1  0.94654559  0.44928934  0.55617753  1
  O  O31  1  0.44654559  0.05071066  0.44382247  1
  O  O32  1  0.05345441  0.94928934  0.94382247  1
  O  O33  1  0.55345441  0.55071066  0.05617753  1
  O  O34  1  0.14266342  0.00649141  0.60760380  1
  O  O35  1  0.81736477  0.22747776  0.42038104  1
