# generated using pymatgen
data_YFeO3
_symmetry_space_group_name_H-M   'P 1'
_cell_length_a   5.28770643
_cell_length_b   5.61975183
_cell_length_c   7.62414026
_cell_angle_alpha   90.00052352
_cell_angle_beta   89.98426248
_cell_angle_gamma   90.00015988
_symmetry_Int_Tables_number   1
_chemical_formula_structural   YFeO3
_chemical_formula_sum   'Y4 Fe4 O12'
_cell_volume   226.55587770
_cell_formula_units_Z   4
loop_
 _symmetry_equiv_pos_site_id
 _symmetry_equiv_pos_as_xyz
  1  'x, y, z'
loop_
 _atom_site_type_symbol
 _atom_site_label
 _atom_site_symmetry_multiplicity
 _atom_site_fract_x
 _atom_site_fract_y
 _atom_site_fract_z
 _atom_site_occupancy
  Y  Y0  1  0.51888285  0.42877395  0.25003386  1
  Y  Y1  1  0.01888425  0.07122866  0.75003902  1
  Y  Y2  1  0.98111575  0.92877134  0.24996098  1
  Y  Y3  1  0.48111715  0.57122605  0.74996614  1
  Fe  Fe4  1  0.50000000  -0.00000000  -0.00000000  1
  Fe  Fe5  1  -0.00000000  0.50000000  -0.00000000  1
  Fe  Fe6  1  -0.00000000  0.50000000  0.50000000  1
  Fe  Fe7  1  0.50000000  -0.00000000  0.50000000  1
  O  O8  1  0.19028013  0.80656140  0.94115127  1
  O  O9  1  0.69032732  0.69353336  0.05891498  1
  O  O10  1  0.30970214  0.30655127  0.55886702  1
  O  O11  1  0.80964720  0.19354543  0.44107094  1
  O  O12  1  0.80971987  0.19343860  0.05884873  1
  O  O13  1  0.30967268  0.30646664  0.94108502  1
  O  O14  1  0.69029786  0.69344873  0.44113298  1
  O  O15  1  0.19035280  0.80645457  0.55892906  1
  O  O16  1  0.61527972  0.95818357  0.75002592  1
  O  O17  1  0.11528065  0.54181624  0.25004282  1
  O  O18  1  0.88471935  0.45818376  0.74995718  1
  O  O19  1  0.38472028  0.04181643  0.24997408  1
