# generated using pymatgen
data_RbAsSe2
_symmetry_space_group_name_H-M   'P 1'
_cell_length_a   12.82260341
_cell_length_b   12.82260341
_cell_length_c   9.55612873
_cell_angle_alpha   78.63919651
_cell_angle_beta   78.63919651
_cell_angle_gamma   46.02720583
_symmetry_Int_Tables_number   1
_chemical_formula_structural   RbAsSe2
_chemical_formula_sum   'Rb8 As8 Se16'
_cell_volume   1104.55210348
_cell_formula_units_Z   8
loop_
 _symmetry_equiv_pos_site_id
 _symmetry_equiv_pos_as_xyz
  1  'x, y, z'
loop_
 _atom_site_type_symbol
 _atom_site_label
 _atom_site_symmetry_multiplicity
 _atom_site_fract_x
 _atom_site_fract_y
 _atom_site_fract_z
 _atom_site_occupancy
  Rb  Rb0  1  0.46345482  0.53654518  0.75000000  1
  Rb  Rb1  1  0.53654518  0.46345482  0.25000000  1
  Rb  Rb2  1  0.00204721  0.99795279  0.75000000  1
  Rb  Rb3  1  0.99795279  0.00204721  0.25000000  1
  Rb  Rb4  1  0.12262778  0.27445785  0.17147518  1
  Rb  Rb5  1  0.72554215  0.87737222  0.32852482  1
  Rb  Rb6  1  0.87737222  0.72554215  0.82852482  1
  Rb  Rb7  1  0.27445785  0.12262778  0.67147518  1
  As  As8  1  0.51022164  0.79539809  0.95583525  1
  As  As9  1  0.80673989  0.41064326  0.85136291  1
  As  As10  1  0.58935674  0.19326011  0.64863709  1
  As  As11  1  0.19326011  0.58935674  0.14863709  1
  As  As12  1  0.41064326  0.80673989  0.35136291  1
  As  As13  1  0.20460191  0.48977836  0.54416475  1
  As  As14  1  0.48977836  0.20460191  0.04416475  1
  As  As15  1  0.79539809  0.51022164  0.45583525  1
  Se  Se16  1  0.19011474  0.01617815  0.44232278  1
  Se  Se17  1  0.98382185  0.80988526  0.05767722  1
  Se  Se18  1  0.80988526  0.98382185  0.55767722  1
  Se  Se19  1  0.91124871  0.47886940  0.65562004  1
  Se  Se20  1  0.01617815  0.19011474  0.94232278  1
  Se  Se21  1  0.47886940  0.91124871  0.15562004  1
  Se  Se22  1  0.08875129  0.52113060  0.34437996  1
  Se  Se23  1  0.52113060  0.08875129  0.84437996  1
  Se  Se24  1  0.77712355  0.34005777  0.50680719  1
  Se  Se25  1  0.65994223  0.22287645  0.99319281  1
  Se  Se26  1  0.22287645  0.65994223  0.49319281  1
  Se  Se27  1  0.34005777  0.77712355  0.00680719  1
  Se  Se28  1  0.55776732  0.74351151  0.53621659  1
  Se  Se29  1  0.25648849  0.44223268  0.96378341  1
  Se  Se30  1  0.44223268  0.25648849  0.46378341  1
  Se  Se31  1  0.74351151  0.55776732  0.03621659  1
