# generated using pymatgen
data_Na10Hf2Zn6Si3(S3O16)3
_symmetry_space_group_name_H-M   'P 1'
_cell_length_a   17.99097250
_cell_length_b   9.02543517
_cell_length_c   22.53430721
_cell_angle_alpha   90.25657725
_cell_angle_beta   89.82291317
_cell_angle_gamma   119.95953862
_symmetry_Int_Tables_number   1
_chemical_formula_structural   Na10Hf2Zn6Si3(S3O16)3
_chemical_formula_sum   'Na30 Hf6 Zn18 Si9 S27 O144'
_cell_volume   3170.07831885
_cell_formula_units_Z   3
loop_
 _symmetry_equiv_pos_site_id
 _symmetry_equiv_pos_as_xyz
  1  'x, y, z'
loop_
 _atom_site_type_symbol
 _atom_site_label
 _atom_site_symmetry_multiplicity
 _atom_site_fract_x
 _atom_site_fract_y
 _atom_site_fract_z
 _atom_site_occupancy
  Na  Na0  1  0.31772836  0.00479738  0.24501951  1
  Na  Na1  1  0.18913045  0.35916902  0.24950946  1
  Na  Na2  1  0.49748373  0.63203632  0.25382979  1
  Na  Na3  1  0.31007128  0.62037024  0.74267914  1
  Na  Na4  1  0.81721108  0.63130382  0.74431141  1
  Na  Na5  1  0.00048815  0.35857354  0.75253635  1
  Na  Na6  1  0.18428423  0.01417547  0.75551024  1
  Na  Na7  1  0.68953048  0.02022782  0.74946059  1
  Na  Na8  1  0.16065297  0.34951425  0.58644507  1
  Na  Na9  1  0.82770976  0.69754641  0.07968390  1
  Na  Na10  1  0.48180114  0.65829272  0.91802780  1
  Na  Na11  1  0.35201232  0.03989675  0.91711492  1
  Na  Na12  1  0.85428735  0.03966474  0.92040605  1
  Na  Na13  1  0.66193939  0.30179113  0.91812375  1
  Na  Na14  1  0.98005425  0.30214140  0.41644153  1
  Na  Na15  1  0.16054164  0.02117429  0.41651518  1
  Na  Na16  1  0.35459719  0.66760861  0.42116741  1
  Na  Na17  1  0.85136329  0.66301276  0.41597643  1
  Na  Na18  1  0.99383863  0.97571154  0.49684796  1
  Na  Na19  1  0.50372732  0.00198791  0.49696047  1
  Na  Na20  1  0.00911748  0.01815518  0.99577813  1
  Na  Na21  1  0.50028552  0.01276897  0.99705563  1
  Na  Na22  1  0.32779215  0.32847234  0.83452633  1
  Na  Na23  1  0.83555337  0.33486673  0.83055775  1
  Na  Na24  1  0.33549238  0.33500992  0.33044948  1
  Na  Na25  1  0.82815109  0.32949568  0.33233891  1
  Na  Na26  1  0.16393832  0.67191605  0.16025566  1
  Na  Na27  1  0.67522048  0.68992952  0.16246069  1
  Na  Na28  1  0.17330731  0.66823566  0.66118598  1
  Na  Na29  1  0.66466293  0.65559229  0.65977922  1
  Hf  Hf30  1  0.99640451  0.00290407  0.65049753  1
  Hf  Hf31  1  0.50149060  0.00585324  0.64420558  1
  Hf  Hf32  1  0.00028048  0.00171937  0.14707122  1
  Hf  Hf33  1  0.49752080  0.99560151  0.14876824  1
  Hf  Hf34  1  0.16144953  0.66994141  0.31312364  1
  Hf  Hf35  1  0.66207290  0.65313000  0.81408789  1
  Zn  Zn36  1  0.00318527  0.97146332  0.34633739  1
  Zn  Zn37  1  0.50296045  0.99805292  0.34757660  1
  Zn  Zn38  1  0.00562553  0.02297812  0.84433848  1
  Zn  Zn39  1  0.50643042  0.03644538  0.84779819  1
  Zn  Zn40  1  0.32848913  0.34671072  0.67723930  1
  Zn  Zn41  1  0.82701299  0.31859041  0.68365539  1
  Zn  Zn42  1  0.32756234  0.33581271  0.18409231  1
  Zn  Zn43  1  0.83072335  0.31352502  0.17672098  1
  Zn  Zn44  1  0.33275584  0.32954545  0.98337275  1
  Zn  Zn45  1  0.84257224  0.32641815  0.99446991  1
  Zn  Zn46  1  0.34604627  0.35671056  0.49279119  1
  Zn  Zn47  1  0.83186808  0.33539945  0.48258468  1
  Zn  Zn48  1  0.16473661  0.66416756  0.01376831  1
  Zn  Zn49  1  0.66279082  0.66550144  0.01980610  1
  Zn  Zn50  1  0.16915952  0.67990959  0.51845024  1
  Zn  Zn51  1  0.66414857  0.66313946  0.51392778  1
  Zn  Zn52  1  0.67114526  0.66742100  0.31997486  1
  Zn  Zn53  1  0.16463511  0.64786500  0.81978521  1
  Si  Si54  1  0.14896474  0.00536305  0.25108902  1
  Si  Si55  1  0.35417721  0.70374170  0.25472075  1
  Si  Si56  1  0.15181965  0.29863896  0.75102942  1
  Si  Si57  1  0.64912991  0.29298658  0.75118640  1
  Si  Si58  1  0.85177729  0.00335978  0.75527214  1
  Si  Si59  1  0.33061140  0.63623977  0.58020039  1
  Si  Si60  1  0.82853812  0.02811755  0.08058445  1
  Si  Si61  1  0.51766846  0.37260685  0.92191342  1
  Si  Si62  1  0.01743518  0.66294668  0.42180647  1
  S  S63  1  0.64897749  0.00345116  0.25149409  1
  S  S64  1  0.84892458  0.69699367  0.24954834  1
  S  S65  1  0.99606914  0.28868745  0.25348245  1
  S  S66  1  0.50497026  0.29717135  0.25098038  1
  S  S67  1  0.00175117  0.71093915  0.75077556  1
  S  S68  1  0.49889574  0.70993666  0.75240538  1
  S  S69  1  0.35314814  0.00289334  0.75044399  1
  S  S70  1  0.48190075  0.33868966  0.58394858  1
  S  S71  1  0.97748189  0.32887290  0.58370509  1
  S  S72  1  0.18499689  0.03675740  0.58406053  1
  S  S73  1  0.68707317  0.03442762  0.58179102  1
  S  S74  1  0.83215237  0.62899588  0.58303782  1
  S  S75  1  0.47824067  0.62564304  0.08481425  1
  S  S76  1  0.98254731  0.62755602  0.08402623  1
  S  S77  1  0.33238603  0.03516457  0.08335287  1
  S  S78  1  0.18672875  0.33924163  0.08218026  1
  S  S79  1  0.68597288  0.32983309  0.08345322  1
  S  S80  1  0.31360955  0.66616583  0.91676750  1
  S  S81  1  0.81745227  0.66571584  0.91736148  1
  S  S82  1  0.01779398  0.37323216  0.91731616  1
  S  S83  1  0.16387974  0.95401234  0.91620561  1
  S  S84  1  0.66591190  0.96153759  0.91643678  1
  S  S85  1  0.31643573  0.96708272  0.41693263  1
  S  S86  1  0.81156350  0.95811392  0.41682189  1
  S  S87  1  0.16566982  0.36947950  0.41670270  1
  S  S88  1  0.66347724  0.36942728  0.41666355  1
  S  S89  1  0.52066314  0.66597725  0.41525643  1
  O  O90  1  0.11355360  0.04986692  0.31111296  1
  O  O91  1  0.60954279  0.02560516  0.30545773  1
  O  O92  1  0.41060267  0.78784731  0.31381476  1
  O  O93  1  0.89812443  0.77610998  0.30494851  1
  O  O94  1  0.49145188  0.19119874  0.30343619  1
  O  O95  1  0.98620343  0.19115250  0.30787280  1
  O  O96  1  0.11031942  0.16725426  0.80554665  1
  O  O97  1  0.61496726  0.17868649  0.81117470  1
  O  O98  1  0.48537443  0.78562877  0.80694767  1
  O  O99  1  0.98409270  0.78405139  0.80337896  1
  O  O100  1  0.39945729  0.01854679  0.80674037  1
  O  O101  1  0.90555628  0.02983048  0.81546201  1
  O  O102  1  0.39856662  0.97426082  0.69934992  1
  O  O103  1  0.89816461  0.96008688  0.69871056  1
  O  O104  1  0.08885736  0.20499948  0.69096922  1
  O  O105  1  0.58682819  0.19177354  0.69530995  1
  O  O106  1  0.01421180  0.82143015  0.69695488  1
  O  O107  1  0.51102227  0.82105596  0.69975140  1
  O  O108  1  0.40187550  0.83912021  0.19831823  1
  O  O109  1  0.89519772  0.81088328  0.19670368  1
  O  O110  1  0.00853201  0.20135251  0.20046906  1
  O  O111  1  0.51594110  0.21148499  0.19655071  1
  O  O112  1  0.08710446  0.98266448  0.19491852  1
  O  O113  1  0.59121964  0.98196121  0.19839717  1
  O  O114  1  0.43869823  0.35548545  0.63695222  1
  O  O115  1  0.93538087  0.34421283  0.63799693  1
  O  O116  1  0.23471577  0.11987991  0.63844678  1
  O  O117  1  0.73429519  0.10626317  0.63847249  1
  O  O118  1  0.31317308  0.52025710  0.63977635  1
  O  O119  1  0.82444724  0.53066080  0.63777694  1
  O  O120  1  0.43524852  0.52408061  0.13853244  1
  O  O121  1  0.94182259  0.52732738  0.13773866  1
  O  O122  1  0.32436387  0.11821884  0.13808900  1
  O  O123  1  0.81698347  0.11824240  0.13860383  1
  O  O124  1  0.23450545  0.36278990  0.13868367  1
  O  O125  1  0.74156659  0.35654389  0.13517005  1
  O  O126  1  0.22793312  0.30948718  0.03072163  1
  O  O127  1  0.72296614  0.30617248  0.02715564  1
  O  O128  1  0.42800997  0.55573863  0.03014740  1
  O  O129  1  0.92737187  0.55636894  0.03038370  1
  O  O130  1  0.34512778  0.13630058  0.02926799  1
  O  O131  1  0.84784547  0.13220768  0.01795810  1
  O  O132  1  0.22475677  0.14144105  0.52980089  1
  O  O133  1  0.72835545  0.14527140  0.53057867  1
  O  O134  1  0.34630979  0.55579112  0.51922350  1
  O  O135  1  0.84373153  0.55034263  0.52869999  1
  O  O136  1  0.43103636  0.30416155  0.52880057  1
  O  O137  1  0.92807040  0.30427629  0.52919530  1
  O  O138  1  0.27140713  0.69608132  0.96817117  1
  O  O139  1  0.77809626  0.69335349  0.97075434  1
  O  O140  1  0.07042771  0.46278581  0.96927168  1
  O  O141  1  0.58444876  0.46545930  0.97549350  1
  O  O142  1  0.15677952  0.85103033  0.96920377  1
  O  O143  1  0.65839792  0.85889406  0.96852663  1
  O  O144  1  0.27704855  0.85619048  0.46836199  1
  O  O145  1  0.77187567  0.84689036  0.46934206  1
  O  O146  1  0.15816634  0.45378121  0.47040765  1
  O  O147  1  0.65239689  0.45062167  0.47073879  1
  O  O148  1  0.08400083  0.70457254  0.47549052  1
  O  O149  1  0.57202013  0.68033792  0.46774678  1
  O  O150  1  0.06435608  0.63419319  0.36201442  1
  O  O151  1  0.56075901  0.65194551  0.35852908  1
  O  O152  1  0.26116988  0.87864331  0.36176224  1
  O  O153  1  0.76133343  0.88032877  0.36183016  1
  O  O154  1  0.17809235  0.47909521  0.36276529  1
  O  O155  1  0.67921033  0.47931896  0.36305046  1
  O  O156  1  0.05604741  0.46464834  0.86024469  1
  O  O157  1  0.56346872  0.49471487  0.86216567  1
  O  O158  1  0.17793775  0.87541809  0.86065287  1
  O  O159  1  0.67792154  0.87932070  0.86118312  1
  O  O160  1  0.26657584  0.64752556  0.86024483  1
  O  O161  1  0.76000626  0.64450813  0.86343681  1
  O  O162  1  0.00460541  0.83122186  0.41420032  1
  O  O163  1  0.50991947  0.82055177  0.41473586  1
  O  O164  1  0.40289406  0.98813209  0.40929102  1
  O  O165  1  0.89995732  0.97980724  0.41181508  1
  O  O166  1  0.08487637  0.20148226  0.41180780  1
  O  O167  1  0.58636574  0.19703254  0.41012797  1
  O  O168  1  0.00784345  0.19813342  0.91630783  1
  O  O169  1  0.50512795  0.17869307  0.91489898  1
  O  O170  1  0.08631545  0.97027243  0.91267827  1
  O  O171  1  0.58473974  0.96803278  0.91230015  1
  O  O172  1  0.40196065  0.82022325  0.91320759  1
  O  O173  1  0.90278019  0.81731075  0.90943244  1
  O  O174  1  0.49283521  0.18242820  0.59000496  1
  O  O175  1  0.98722327  0.16837764  0.58806805  1
  O  O176  1  0.09738882  0.02664359  0.58827167  1
  O  O177  1  0.59860473  0.01727912  0.58762628  1
  O  O178  1  0.41770652  0.82682383  0.58981791  1
  O  O179  1  0.91263836  0.80419131  0.58767750  1
  O  O180  1  0.48838450  0.80513673  0.09181413  1
  O  O181  1  0.98994218  0.80338401  0.09002036  1
  O  O182  1  0.41401186  0.02116819  0.08875380  1
  O  O183  1  0.91578233  0.00254954  0.08994005  1
  O  O184  1  0.09814917  0.18097129  0.08824386  1
  O  O185  1  0.59854587  0.17136010  0.09055259  1
  O  O186  1  0.34486868  0.15561771  0.74256135  1
  O  O187  1  0.84619735  0.17547195  0.74472611  1
  O  O188  1  0.24809036  0.32148283  0.74472409  1
  O  O189  1  0.74733668  0.32984104  0.74316363  1
  O  O190  1  0.42648889  0.53672176  0.74436972  1
  O  O191  1  0.92722873  0.53690898  0.74130255  1
  O  O192  1  0.34670050  0.51807151  0.24510185  1
  O  O193  1  0.84162542  0.52788698  0.24156074  1
  O  O194  1  0.42608955  0.31081876  0.24346663  1
  O  O195  1  0.92510749  0.32198707  0.24576887  1
  O  O196  1  0.24695299  0.16552679  0.24327106  1
  O  O197  1  0.73438231  0.15427946  0.24437263  1
  O  O198  1  0.32255873  0.51157889  0.92284282  1
  O  O199  1  0.81884587  0.50260186  0.91956654  1
  O  O200  1  0.42181815  0.35535430  0.92427328  1
  O  O201  1  0.93030743  0.35593785  0.92018644  1
  O  O202  1  0.24393523  0.12678248  0.92082270  1
  O  O203  1  0.74153573  0.13758907  0.91781069  1
  O  O204  1  0.31785696  0.13308650  0.42081512  1
  O  O205  1  0.82147113  0.13140115  0.42313953  1
  O  O206  1  0.24172886  0.34452227  0.41734679  1
  O  O207  1  0.74324442  0.35614047  0.42151455  1
  O  O208  1  0.43273784  0.50902562  0.41751264  1
  O  O209  1  0.92196580  0.48876626  0.42376878  1
  O  O210  1  0.17503035  0.49011969  0.07560478  1
  O  O211  1  0.67495872  0.48133988  0.08111308  1
  O  O212  1  0.06944256  0.65139228  0.07708056  1
  O  O213  1  0.56518820  0.64963143  0.08178236  1
  O  O214  1  0.25752840  0.86011814  0.07909619  1
  O  O215  1  0.74741672  0.82943242  0.07638047  1
  O  O216  1  0.17189554  0.86341302  0.58165279  1
  O  O217  1  0.67484364  0.85993541  0.57526156  1
  O  O218  1  0.24211797  0.64775289  0.57547475  1
  O  O219  1  0.75600866  0.65207258  0.57903642  1
  O  O220  1  0.06583435  0.47533994  0.58118921  1
  O  O221  1  0.56886794  0.49167596  0.57883976  1
  O  O222  1  0.15732696  0.83023309  0.25543181  1
  O  O223  1  0.65031983  0.83877922  0.25250413  1
  O  O224  1  0.25708272  0.67985068  0.25752246  1
  O  O225  1  0.76337919  0.68566966  0.25213253  1
  O  O226  1  0.08150604  0.45749680  0.25533460  1
  O  O227  1  0.58068924  0.47250696  0.25418236  1
  O  O228  1  0.15615998  0.48623742  0.75466419  1
  O  O229  1  0.65700285  0.48432492  0.75569866  1
  O  O230  1  0.08194527  0.70127148  0.75426882  1
  O  O231  1  0.58246857  0.70822295  0.75566705  1
  O  O232  1  0.26598454  0.84592545  0.75189735  1
  O  O233  1  0.75471599  0.83367367  0.75757893  1
