# generated using pymatgen
data_Na2MgSnP2SO12
_symmetry_space_group_name_H-M   'P 1'
_cell_length_a   8.87859107
_cell_length_b   8.81618445
_cell_length_c   22.52189878
_cell_angle_alpha   90.39257854
_cell_angle_beta   90.00000000
_cell_angle_gamma   120.23443716
_symmetry_Int_Tables_number   1
_chemical_formula_structural   Na2MgSnP2SO12
_chemical_formula_sum   'Na12 Mg6 Sn6 P12 S6 O72'
_cell_volume   1523.05606302
_cell_formula_units_Z   6
loop_
 _symmetry_equiv_pos_site_id
 _symmetry_equiv_pos_as_xyz
  1  'x, y, z'
loop_
 _atom_site_type_symbol
 _atom_site_label
 _atom_site_symmetry_multiplicity
 _atom_site_fract_x
 _atom_site_fract_y
 _atom_site_fract_z
 _atom_site_occupancy
  Na  Na0  1  0.99717413  0.63212343  0.24601814  1
  Na  Na1  1  0.63494931  0.63212343  0.74601814  1
  Na  Na2  1  0.66384113  0.96545643  0.57935114  1
  Na  Na3  1  0.30161631  0.96545643  0.07935114  1
  Na  Na4  1  0.33050713  0.29879043  0.91268514  1
  Na  Na5  1  0.96828231  0.29879043  0.41268514  1
  Na  Na6  1  0.99718723  0.98077494  0.49542049  1
  Na  Na7  1  0.98358771  0.98077494  0.99542049  1
  Na  Na8  1  0.66385423  0.31410794  0.82875349  1
  Na  Na9  1  0.65025471  0.31410794  0.32875349  1
  Na  Na10  1  0.33052023  0.64744194  0.16208749  1
  Na  Na11  1  0.31692071  0.64744194  0.66208749  1
  Mg  Mg12  1  0.00102248  0.99696136  0.35211424  1
  Mg  Mg13  1  0.99593888  0.99696136  0.85211424  1
  Mg  Mg14  1  0.66768948  0.33029436  0.68544724  1
  Mg  Mg15  1  0.66260588  0.33029436  0.18544724  1
  Mg  Mg16  1  0.33435548  0.66362836  0.01878124  1
  Mg  Mg17  1  0.32927188  0.66362836  0.51878124  1
  Sn  Sn18  1  0.99935568  0.00702609  0.65051375  1
  Sn  Sn19  1  0.00767041  0.00702609  0.15051375  1
  Sn  Sn20  1  0.66602268  0.34035909  0.98384675  1
  Sn  Sn21  1  0.67433741  0.34035909  0.48384675  1
  Sn  Sn22  1  0.33268868  0.67369309  0.31718075  1
  Sn  Sn23  1  0.34100341  0.67369309  0.81718075  1
  P  P24  1  0.29774201  0.00529998  0.25177345  1
  P  P25  1  0.99856699  0.29356918  0.25384216  1
  P  P26  1  0.29500220  0.29356918  0.75384216  1
  P  P27  1  0.70755797  0.00529998  0.75177345  1
  P  P28  1  0.96440901  0.33863298  0.58510645  1
  P  P29  1  0.66523399  0.62690218  0.58717516  1
  P  P30  1  0.96166920  0.62690218  0.08717516  1
  P  P31  1  0.37422497  0.33863298  0.08510645  1
  P  P32  1  0.63107501  0.67196698  0.91844045  1
  P  P33  1  0.33189999  0.96023618  0.92050916  1
  P  P34  1  0.62833520  0.96023618  0.42050916  1
  P  P35  1  0.04089097  0.67196698  0.41844045  1
  S  S36  1  0.70511920  0.70860341  0.25104773  1
  S  S37  1  0.00348421  0.70860341  0.75104773  1
  S  S38  1  0.37178620  0.04193641  0.58438073  1
  S  S39  1  0.67015121  0.04193641  0.08438073  1
  S  S40  1  0.03845220  0.37527041  0.91771473  1
  S  S41  1  0.33681721  0.37527041  0.41771473  1
  O  O42  1  0.20032237  0.02000068  0.30422121  1
  O  O43  1  0.81456953  0.79399478  0.30255958  1
  O  O44  1  0.97868029  0.18782922  0.30914185  1
  O  O45  1  0.20914893  0.18782922  0.80914185  1
  O  O46  1  0.97942524  0.79399478  0.80255958  1
  O  O47  1  0.81967832  0.02000068  0.80422121  1
  O  O48  1  0.77476471  0.95545682  0.69262472  1
  O  O49  1  0.18359452  0.21392339  0.69570141  1
  O  O50  1  0.03742991  0.81597031  0.69523366  1
  O  O51  1  0.77854040  0.81597031  0.19523366  1
  O  O52  1  0.03032886  0.21392339  0.19570141  1
  O  O53  1  0.18069211  0.95545682  0.19262472  1
  O  O54  1  0.86698937  0.35333368  0.63755421  1
  O  O55  1  0.48123653  0.12732778  0.63589258  1
  O  O56  1  0.64534729  0.52116222  0.64247485  1
  O  O57  1  0.87581593  0.52116222  0.14247485  1
  O  O58  1  0.64609224  0.12732778  0.13589258  1
  O  O59  1  0.48634532  0.35333368  0.13755421  1
  O  O60  1  0.44143171  0.28878982  0.02595772  1
  O  O61  1  0.85026152  0.54725639  0.02903441  1
  O  O62  1  0.70409691  0.14930331  0.02856666  1
  O  O63  1  0.44520740  0.14930331  0.52856666  1
  O  O64  1  0.69699586  0.54725639  0.52903441  1
  O  O65  1  0.84735911  0.28878982  0.52595772  1
  O  O66  1  0.53365537  0.68666768  0.97088821  1
  O  O67  1  0.14790253  0.46066178  0.96922658  1
  O  O68  1  0.31201329  0.85449622  0.97580885  1
  O  O69  1  0.54248193  0.85449622  0.47580885  1
  O  O70  1  0.31275824  0.46066178  0.46922658  1
  O  O71  1  0.15301132  0.68666768  0.47088821  1
  O  O72  1  0.10809771  0.62212382  0.35929172  1
  O  O73  1  0.51692752  0.88059039  0.36236841  1
  O  O74  1  0.37076291  0.48263731  0.36190066  1
  O  O75  1  0.11187340  0.48263731  0.86190066  1
  O  O76  1  0.36366186  0.88059039  0.86236841  1
  O  O77  1  0.51402511  0.62212382  0.85929172  1
  O  O78  1  0.01868299  0.82961101  0.41036233  1
  O  O79  1  0.81339806  0.99211229  0.41244906  1
  O  O80  1  0.17860530  0.20195151  0.41040049  1
  O  O81  1  0.02334621  0.20195151  0.91040049  1
  O  O82  1  0.17871423  0.99211229  0.91244906  1
  O  O83  1  0.81092802  0.82961101  0.91036233  1
  O  O84  1  0.97409809  0.16220791  0.58801452  1
  O  O85  1  0.19325571  0.02098185  0.58912620  1
  O  O86  1  0.83828673  0.81630182  0.58943501  1
  O  O87  1  0.97801509  0.81630182  0.08943501  1
  O  O88  1  0.82772614  0.02098185  0.08912620  1
  O  O89  1  0.18810983  0.16220791  0.08801452  1
  O  O90  1  0.68534999  0.16294401  0.74369533  1
  O  O91  1  0.48006506  0.32544529  0.74578206  1
  O  O92  1  0.84527230  0.53528451  0.74373349  1
  O  O93  1  0.69001321  0.53528451  0.24373349  1
  O  O94  1  0.84538123  0.32544529  0.24578206  1
  O  O95  1  0.47759502  0.16294401  0.24369533  1
  O  O96  1  0.64076509  0.49554091  0.92134752  1
  O  O97  1  0.85992271  0.35431485  0.92245920  1
  O  O98  1  0.50495373  0.14963482  0.92276801  1
  O  O99  1  0.64468209  0.14963482  0.42276801  1
  O  O100  1  0.49439314  0.35431485  0.42245920  1
  O  O101  1  0.85477683  0.49554091  0.42134752  1
  O  O102  1  0.35201599  0.49627801  0.07702933  1
  O  O103  1  0.14673106  0.65877929  0.07911606  1
  O  O104  1  0.51193830  0.86861851  0.07706749  1
  O  O105  1  0.35667921  0.86861851  0.57706749  1
  O  O106  1  0.51204723  0.65877929  0.57911606  1
  O  O107  1  0.14426102  0.49627801  0.57702933  1
  O  O108  1  0.30743109  0.82887491  0.25468152  1
  O  O109  1  0.52658871  0.68764885  0.25579320  1
  O  O110  1  0.17161973  0.48296882  0.25610201  1
  O  O111  1  0.31134809  0.48296882  0.75610201  1
  O  O112  1  0.16105914  0.68764885  0.75579320  1
  O  O113  1  0.52144283  0.82887491  0.75468152  1
