# generated using pymatgen
data_K3RhCl6
_symmetry_space_group_name_H-M   'P 1'
_cell_length_a   7.46975283
_cell_length_b   11.87886468
_cell_length_c   12.54994375
_cell_angle_alpha   71.79491655
_cell_angle_beta   90.00000000
_cell_angle_gamma   90.00000000
_symmetry_Int_Tables_number   1
_chemical_formula_structural   K3RhCl6
_chemical_formula_sum   'K12 Rh4 Cl24'
_cell_volume   1057.84272491
_cell_formula_units_Z   4
loop_
 _symmetry_equiv_pos_site_id
 _symmetry_equiv_pos_as_xyz
  1  'x, y, z'
loop_
 _atom_site_type_symbol
 _atom_site_label
 _atom_site_symmetry_multiplicity
 _atom_site_fract_x
 _atom_site_fract_y
 _atom_site_fract_z
 _atom_site_occupancy
  K  K0  1  0.45753733  0.35804713  0.40190429  1
  K  K1  1  0.57044185  0.76603563  0.18264124  1
  K  K2  1  0.07044185  0.73396437  0.81735876  1
  K  K3  1  0.42955815  0.23396437  0.81735876  1
  K  K4  1  0.06751436  0.61391957  0.18162073  1
  K  K5  1  0.56751436  0.88608043  0.81837927  1
  K  K6  1  0.93248564  0.38608043  0.81837927  1
  K  K7  1  0.43248564  0.11391957  0.18162073  1
  K  K8  1  0.92955815  0.26603563  0.18264124  1
  K  K9  1  0.54246267  0.64195287  0.59809571  1
  K  K10  1  0.95753733  0.14195287  0.59809571  1
  K  K11  1  0.04246267  0.85804713  0.40190429  1
  Rh  Rh12  1  0.50000000  -0.00000000  0.50000000  1
  Rh  Rh13  1  0.00000000  0.50000000  0.50000000  1
  Rh  Rh14  1  0.50000000  0.50000000  0.00000000  1
  Rh  Rh15  1  0.00000000  -0.00000000  0.00000000  1
  Cl  Cl16  1  0.74158153  0.39875127  0.59251376  1
  Cl  Cl17  1  0.31238293  0.86035472  0.62418668  1
  Cl  Cl18  1  0.81238293  0.63964528  0.37581332  1
  Cl  Cl19  1  0.68761707  0.13964528  0.37581332  1
  Cl  Cl20  1  0.87050021  0.81895442  0.99958974  1
  Cl  Cl21  1  0.37050021  0.68104558  0.00041026  1
  Cl  Cl22  1  0.12949979  0.18104558  0.00041026  1
  Cl  Cl23  1  0.62949979  0.31895442  0.99958974  1
  Cl  Cl24  1  0.80637125  0.00556471  0.14726090  1
  Cl  Cl25  1  0.30637125  0.49443529  0.85273910  1
  Cl  Cl26  1  0.19362875  0.99443529  0.85273910  1
  Cl  Cl27  1  0.69362875  0.50556471  0.14726090  1
  Cl  Cl28  1  0.20529654  0.89672570  0.14016073  1
  Cl  Cl29  1  0.70529654  0.60327430  0.85983927  1
  Cl  Cl30  1  0.79470346  0.10327430  0.85983927  1
  Cl  Cl31  1  0.29470346  0.39672570  0.14016073  1
  Cl  Cl32  1  0.00227848  0.37900558  0.38285851  1
  Cl  Cl33  1  0.75841847  0.89875127  0.59251376  1
  Cl  Cl34  1  0.99772152  0.62099442  0.61714149  1
  Cl  Cl35  1  0.49772152  0.87900558  0.38285851  1
  Cl  Cl36  1  0.50227848  0.12099442  0.61714149  1
  Cl  Cl37  1  0.24158153  0.10124873  0.40748624  1
  Cl  Cl38  1  0.25841847  0.60124873  0.40748624  1
  Cl  Cl39  1  0.18761707  0.36035472  0.62418668  1
