# generated using pymatgen
data_Ba3In2F12
_symmetry_space_group_name_H-M   'P 1'
_cell_length_a   9.57756546
_cell_length_b   9.57756546
_cell_length_c   5.65454054
_cell_angle_alpha   90.00000000
_cell_angle_beta   90.00000000
_cell_angle_gamma   90.00000000
_symmetry_Int_Tables_number   1
_chemical_formula_structural   Ba3In2F12
_chemical_formula_sum   'Ba6 In4 F24'
_cell_volume   518.68964744
_cell_formula_units_Z   2
loop_
 _symmetry_equiv_pos_site_id
 _symmetry_equiv_pos_as_xyz
  1  'x, y, z'
loop_
 _atom_site_type_symbol
 _atom_site_label
 _atom_site_symmetry_multiplicity
 _atom_site_fract_x
 _atom_site_fract_y
 _atom_site_fract_z
 _atom_site_occupancy
  Ba  Ba0  1  0.50000000  0.50000000  0.00000000  1
  Ba  Ba1  1  0.00000000  -0.00000000  0.00000000  1
  Ba  Ba2  1  0.31996480  0.81996480  0.50000000  1
  Ba  Ba3  1  0.81996480  0.68003520  0.50000000  1
  Ba  Ba4  1  0.18003520  0.31996480  0.50000000  1
  Ba  Ba5  1  0.68003520  0.18003520  0.50000000  1
  In  In6  1  0.13265245  0.63265245  0.00000000  1
  In  In7  1  0.63265245  0.86734755  0.00000000  1
  In  In8  1  0.36734755  0.13265245  0.00000000  1
  In  In9  1  0.86734755  0.36734755  0.00000000  1
  F  F10  1  0.29313474  0.79313474  0.00000000  1
  F  F11  1  0.79313474  0.70686526  0.00000000  1
  F  F12  1  0.20686526  0.29313474  0.00000000  1
  F  F13  1  0.70686526  0.20686526  0.00000000  1
  F  F14  1  0.55582332  0.72676773  0.25831859  1
  F  F15  1  0.44417668  0.27323227  0.25831859  1
  F  F16  1  0.27323227  0.55582332  0.25831859  1
  F  F17  1  0.72676773  0.44417668  0.25831859  1
  F  F18  1  0.22676773  0.05582332  0.74168141  1
  F  F19  1  0.05582332  0.77323227  0.74168141  1
  F  F20  1  0.50000000  -0.00000000  0.77792708  1
  F  F21  1  0.00000000  0.50000000  0.77792708  1
  F  F22  1  0.00000000  0.50000000  0.22207292  1
  F  F23  1  0.50000000  -0.00000000  0.22207292  1
  F  F24  1  0.22676773  0.05582332  0.25831859  1
  F  F25  1  0.05582332  0.77323227  0.25831859  1
  F  F26  1  0.94417668  0.22676773  0.25831859  1
  F  F27  1  0.77323227  0.94417668  0.25831859  1
  F  F28  1  0.27323227  0.55582332  0.74168141  1
  F  F29  1  0.72676773  0.44417668  0.74168141  1
  F  F30  1  0.55582332  0.72676773  0.74168141  1
  F  F31  1  0.44417668  0.27323227  0.74168141  1
  F  F32  1  0.77323227  0.94417668  0.74168141  1
  F  F33  1  0.94417668  0.22676773  0.74168141  1
