# generated using pymatgen
data_Tl4Bi2S5
_symmetry_space_group_name_H-M   'P 1'
_cell_length_a   4.11375546
_cell_length_b   17.10448989
_cell_length_c   17.59567277
_cell_angle_alpha   90.00000000
_cell_angle_beta   90.00000000
_cell_angle_gamma   90.00000000
_symmetry_Int_Tables_number   1
_chemical_formula_structural   Tl4Bi2S5
_chemical_formula_sum   'Tl16 Bi8 S20'
_cell_volume   1238.09644082
_cell_formula_units_Z   4
loop_
 _symmetry_equiv_pos_site_id
 _symmetry_equiv_pos_as_xyz
  1  'x, y, z'
loop_
 _atom_site_type_symbol
 _atom_site_label
 _atom_site_symmetry_multiplicity
 _atom_site_fract_x
 _atom_site_fract_y
 _atom_site_fract_z
 _atom_site_occupancy
  Tl  Tl0  1  0.25000000  0.19218602  0.91958062  1
  Tl  Tl1  1  0.25000000  0.69218602  0.58041938  1
  Tl  Tl2  1  0.75000000  0.80781398  0.08041938  1
  Tl  Tl3  1  0.25000000  0.42780610  0.91708645  1
  Tl  Tl4  1  0.75000000  0.57219390  0.08291355  1
  Tl  Tl5  1  0.25000000  0.92780610  0.58291355  1
  Tl  Tl6  1  0.75000000  0.07219390  0.41708645  1
  Tl  Tl7  1  0.25000000  0.18489487  0.26518294  1
  Tl  Tl8  1  0.75000000  0.81510513  0.73481706  1
  Tl  Tl9  1  0.25000000  0.68489487  0.23481706  1
  Tl  Tl10  1  0.75000000  0.31510513  0.76518294  1
  Tl  Tl11  1  0.25000000  0.18330456  0.56938156  1
  Tl  Tl12  1  0.75000000  0.81669544  0.43061844  1
  Tl  Tl13  1  0.25000000  0.68330456  0.93061844  1
  Tl  Tl14  1  0.75000000  0.31669544  0.06938156  1
  Tl  Tl15  1  0.75000000  0.30781398  0.41958062  1
  Bi  Bi16  1  0.75000000  0.57000813  0.75694783  1
  Bi  Bi17  1  0.25000000  0.42999187  0.24305217  1
  Bi  Bi18  1  0.25000000  0.92999187  0.25694783  1
  Bi  Bi19  1  0.75000000  0.07000813  0.74305217  1
  Bi  Bi20  1  0.25000000  0.44168188  0.58860454  1
  Bi  Bi21  1  0.75000000  0.55831812  0.41139546  1
  Bi  Bi22  1  0.25000000  0.94168188  0.91139546  1
  Bi  Bi23  1  0.75000000  0.05831812  0.08860454  1
  S  S24  1  0.25000000  0.43344078  0.41825133  1
  S  S25  1  0.75000000  0.56655922  0.58174867  1
  S  S26  1  0.25000000  0.93344078  0.08174867  1
  S  S27  1  0.75000000  0.06655922  0.91825133  1
  S  S28  1  0.75000000  0.54802805  0.90686239  1
  S  S29  1  0.25000000  0.95197195  0.40686239  1
  S  S30  1  0.75000000  0.04802805  0.59313761  1
  S  S31  1  0.25000000  0.18077916  0.73365928  1
  S  S32  1  0.75000000  0.81922084  0.26634072  1
  S  S33  1  0.25000000  0.68077916  0.76634072  1
  S  S34  1  0.75000000  0.31922084  0.23365928  1
  S  S35  1  0.25000000  0.45471405  0.74177240  1
  S  S36  1  0.75000000  0.54528595  0.25822760  1
  S  S37  1  0.25000000  0.95471405  0.75822760  1
  S  S38  1  0.75000000  0.04528595  0.24177240  1
  S  S39  1  0.75000000  0.33524303  0.59781178  1
  S  S40  1  0.25000000  0.66475697  0.40218822  1
  S  S41  1  0.25000000  0.45197195  0.09313761  1
  S  S42  1  0.25000000  0.16475697  0.09781178  1
  S  S43  1  0.75000000  0.83524303  0.90218822  1
