# generated using pymatgen
data_MgV(CO3)2
_symmetry_space_group_name_H-M   'P 1'
_cell_length_a   4.96372827
_cell_length_b   6.16863521
_cell_length_c   4.70748403
_cell_angle_alpha   118.59118363
_cell_angle_beta   61.82346284
_cell_angle_gamma   108.98109590
_symmetry_Int_Tables_number   1
_chemical_formula_structural   MgV(CO3)2
_chemical_formula_sum   'Mg1 V1 C2 O6'
_cell_volume   110.64362577
_cell_formula_units_Z   1
loop_
 _symmetry_equiv_pos_site_id
 _symmetry_equiv_pos_as_xyz
  1  'x, y, z'
loop_
 _atom_site_type_symbol
 _atom_site_label
 _atom_site_symmetry_multiplicity
 _atom_site_fract_x
 _atom_site_fract_y
 _atom_site_fract_z
 _atom_site_occupancy
  Mg  Mg0  1  0.50000000  0.50000000  0.00000000  1
  V  V1  1  0.00000000  0.00000000  0.00000000  1
  C  C2  1  0.60209851  0.76117959  0.54721673  1
  C  C3  1  0.39790149  0.23882041  0.45278327  1
  O  O4  1  0.33312940  0.75078792  0.55461433  1
  O  O5  1  0.36670475  0.22051801  0.18372387  1
  O  O6  1  0.16589236  0.26817451  0.75086760  1
  O  O7  1  0.83410764  0.73182549  0.24913240  1
  O  O8  1  0.63329525  0.77948199  0.81627613  1
  O  O9  1  0.66687060  0.24921208  0.44538567  1
