# generated using pymatgen
data_Na9Ca2Nb10Si9(PO8)9
_symmetry_space_group_name_H-M   'P 1'
_cell_length_a   9.00337330
_cell_length_b   8.97868296
_cell_length_c   22.77084929
_cell_angle_alpha   89.92458279
_cell_angle_beta   90.00355310
_cell_angle_gamma   120.09067491
_symmetry_Int_Tables_number   1
_chemical_formula_structural   Na9Ca2Nb10Si9(PO8)9
_chemical_formula_sum   'Na9 Ca2 Nb10 Si9 P9 O72'
_cell_volume   1592.68442892
_cell_formula_units_Z   1
loop_
 _symmetry_equiv_pos_site_id
 _symmetry_equiv_pos_as_xyz
  1  'x, y, z'
loop_
 _atom_site_type_symbol
 _atom_site_label
 _atom_site_symmetry_multiplicity
 _atom_site_fract_x
 _atom_site_fract_y
 _atom_site_fract_z
 _atom_site_occupancy
  Na  Na0  1  0.62612322  0.00826760  0.24573550  1
  Na  Na1  1  0.37662832  0.36515250  0.24487677  1
  Na  Na2  1  0.99238738  0.37134704  0.74461610  1
  Na  Na3  1  0.00033242  0.99929295  0.49927042  1
  Na  Na4  1  0.99976805  0.99917088  0.99996876  1
  Na  Na5  1  0.65089745  0.33228772  0.82802528  1
  Na  Na6  1  0.68558545  0.35040954  0.32875451  1
  Na  Na7  1  0.31893472  0.66439376  0.16402666  1
  Na  Na8  1  0.34827210  0.67942101  0.66517272  1
  Ca  Ca9  1  0.65562241  0.33253084  0.68606254  1
  Ca  Ca10  1  0.67786807  0.34378802  0.18371840  1
  Nb  Nb11  1  0.99403035  0.99777247  0.35868335  1
  Nb  Nb12  1  0.00506125  0.00283171  0.85845483  1
  Nb  Nb13  1  0.00429156  0.00257269  0.64497316  1
  Nb  Nb14  1  0.99569492  0.99904206  0.14528879  1
  Nb  Nb15  1  0.66732176  0.33466242  0.97873460  1
  Nb  Nb16  1  0.66616678  0.33459874  0.47874633  1
  Nb  Nb17  1  0.33438170  0.66628968  0.01677849  1
  Nb  Nb18  1  0.33219126  0.66515001  0.51736434  1
  Nb  Nb19  1  0.32955982  0.66333186  0.31372391  1
  Nb  Nb20  1  0.33821272  0.66831353  0.81284415  1
  Si  Si21  1  0.70862086  0.71220816  0.25253147  1
  Si  Si22  1  0.00450650  0.29010387  0.25184392  1
  Si  Si23  1  0.28943071  0.29225119  0.75216698  1
  Si  Si24  1  0.62230322  0.66445859  0.91614809  1
  Si  Si25  1  0.04223870  0.37957789  0.91535719  1
  Si  Si26  1  0.33733744  0.95720085  0.91610399  1
  Si  Si27  1  0.61983039  0.95798537  0.41598253  1
  Si  Si28  1  0.33593731  0.37677279  0.41630948  1
  Si  Si29  1  0.04252144  0.66457073  0.41703627  1
  P  P30  1  0.27487767  0.98822018  0.25126881  1
  P  P31  1  0.00998806  0.72094074  0.75193599  1
  P  P32  1  0.71392485  0.99001656  0.75141120  1
  P  P33  1  0.96264707  0.33366007  0.58501110  1
  P  P34  1  0.37105734  0.03586453  0.58296232  1
  P  P35  1  0.66615166  0.63096286  0.58275537  1
  P  P36  1  0.96685627  0.63249063  0.08187026  1
  P  P37  1  0.66540812  0.03522591  0.08426039  1
  P  P38  1  0.36837249  0.33275907  0.08402948  1
  O  O39  1  0.18587442  0.00610917  0.30611197  1
  O  O40  1  0.82679487  0.81810571  0.30891840  1
  O  O41  1  0.00174691  0.17492682  0.30820391  1
  O  O42  1  0.17240998  0.17492998  0.80797106  1
  O  O43  1  0.99584262  0.81457876  0.80658073  1
  O  O44  1  0.81932449  0.99673963  0.80593495  1
  O  O45  1  0.80337123  0.97137643  0.69448572  1
  O  O46  1  0.16482372  0.18883386  0.69307527  1
  O  O47  1  0.02085820  0.82722566  0.69512781  1
  O  O48  1  0.81060757  0.83351735  0.19311798  1
  O  O49  1  0.03023793  0.19300141  0.19225582  1
  O  O50  1  0.16863525  0.97171990  0.19432776  1
  O  O51  1  0.90496840  0.36560461  0.64344600  1
  O  O52  1  0.46908305  0.09727365  0.63914181  1
  O  O53  1  0.62910401  0.53195271  0.63892102  1
  O  O54  1  0.90743598  0.53519629  0.13878954  1
  O  O55  1  0.63317248  0.09223893  0.14293498  1
  O  O56  1  0.45790108  0.36488402  0.14270889  1
  O  O57  1  0.47328902  0.31376395  0.03253468  1
  O  O58  1  0.84437935  0.53446234  0.02924476  1
  O  O59  1  0.68911568  0.15989373  0.03258821  1
  O  O60  1  0.46374181  0.15761472  0.52958697  1
  O  O61  1  0.69040478  0.53403170  0.52945904  1
  O  O62  1  0.83902265  0.31069389  0.53311030  1
  O  O63  1  0.52821421  0.69344060  0.97225862  1
  O  O64  1  0.16780108  0.47398206  0.97108620  1
  O  O65  1  0.30873476  0.83489897  0.97251351  1
  O  O66  1  0.52292223  0.83318262  0.47155911  1
  O  O67  1  0.30743697  0.47351569  0.47173211  1
  O  O68  1  0.16384974  0.68988709  0.47312914  1
  O  O69  1  0.13604261  0.63522710  0.35915298  1
  O  O70  1  0.50420348  0.87060938  0.35649880  1
  O  O71  1  0.36653218  0.49712925  0.35701051  1
  O  O72  1  0.13050694  0.49752610  0.85612587  1
  O  O73  1  0.36556296  0.86412973  0.85847526  1
  O  O74  1  0.49804766  0.63330530  0.85840142  1
  O  O75  1  0.02417656  0.83407339  0.41056204  1
  O  O76  1  0.81059151  0.97930001  0.41128116  1
  O  O77  1  0.16903256  0.18669635  0.41049087  1
  O  O78  1  0.01751546  0.18690881  0.90994984  1
  O  O79  1  0.16770310  0.97751255  0.90978748  1
  O  O80  1  0.81135811  0.83206667  0.90913045  1
  O  O81  1  0.97642979  0.16443214  0.58758938  1
  O  O82  1  0.18753641  0.01983636  0.58811334  1
  O  O83  1  0.83381750  0.81247130  0.58675053  1
  O  O84  1  0.98071160  0.81344035  0.08580504  1
  O  O85  1  0.83364979  0.02146901  0.08669584  1
  O  O86  1  0.18800684  0.16453098  0.08545491  1
  O  O87  1  0.70865771  0.15592100  0.75040581  1
  O  O88  1  0.47144991  0.30952437  0.75520503  1
  O  O89  1  0.85954590  0.53855093  0.75095031  1
  O  O90  1  0.66962362  0.51949297  0.25339829  1
  O  O91  1  0.82937908  0.29164194  0.25292956  1
  O  O92  1  0.45330426  0.14704993  0.24813310  1
  O  O93  1  0.63823771  0.49254103  0.92666004  1
  O  O94  1  0.85355445  0.36020049  0.92703144  1
  O  O95  1  0.50643077  0.14663873  0.92720336  1
  O  O96  1  0.64046797  0.14745089  0.42728955  1
  O  O97  1  0.50829739  0.36212517  0.42653604  1
  O  O98  1  0.85420310  0.49283652  0.42674094  1
  O  O99  1  0.34043100  0.48809646  0.07178932  1
  O  O100  1  0.15009966  0.66112199  0.07038112  1
  O  O101  1  0.51221793  0.85173692  0.07196981  1
  O  O102  1  0.33807490  0.85093492  0.57120716  1
  O  O103  1  0.51246045  0.66150747  0.57092222  1
  O  O104  1  0.14676910  0.48613042  0.57236934  1
  O  O105  1  0.29261745  0.82441696  0.25423447  1
  O  O106  1  0.52528432  0.71521452  0.25446742  1
  O  O107  1  0.18552945  0.47683189  0.25454862  1
  O  O108  1  0.28684364  0.47649358  0.75418019  1
  O  O109  1  0.18020500  0.71376922  0.75397896  1
  O  O110  1  0.53244391  0.82622755  0.75453147  1
