# generated using pymatgen
data_Sr2MgGaSbO6
_symmetry_space_group_name_H-M   'P 1'
_cell_length_a   5.76614744
_cell_length_b   6.35285437
_cell_length_c   6.35285494
_cell_angle_alpha   55.23173984
_cell_angle_beta   63.01074457
_cell_angle_gamma   63.01074393
_symmetry_Int_Tables_number   1
_chemical_formula_structural   Sr2MgGaSbO6
_chemical_formula_sum   'Sr2 Mg1 Ga1 Sb1 O6'
_cell_volume   164.18994714
_cell_formula_units_Z   1
loop_
 _symmetry_equiv_pos_site_id
 _symmetry_equiv_pos_as_xyz
  1  'x, y, z'
loop_
 _atom_site_type_symbol
 _atom_site_label
 _atom_site_symmetry_multiplicity
 _atom_site_fract_x
 _atom_site_fract_y
 _atom_site_fract_z
 _atom_site_occupancy
  Sr  Sr0  1  0.18331100  0.31668900  0.31668900  1
  Sr  Sr1  1  0.81668900  0.68331100  0.68331100  1
  Mg  Mg2  1  0.50000000  0.00000000  0.00000000  1
  Ga  Ga3  1  0.00000000  0.00000000  0.00000000  1
  Sb  Sb4  1  0.50000000  0.50000000  0.50000000  1
  O  O5  1  0.25299300  0.74700700  0.74700700  1
  O  O6  1  0.23883400  0.77204900  0.22795100  1
  O  O7  1  0.76116600  0.22795100  0.77204900  1
  O  O8  1  0.23883400  0.22795100  0.77204900  1
  O  O9  1  0.74700700  0.25299300  0.25299300  1
  O  O10  1  0.76116600  0.77204900  0.22795100  1
