# generated using pymatgen
data_Na30Mg4Nb20Si33(SO48)3
_symmetry_space_group_name_H-M   'P 1'
_cell_length_a   18.11647000
_cell_length_b   9.06028082
_cell_length_c   22.62468138
_cell_angle_alpha   90.03603485
_cell_angle_beta   90.02928565
_cell_angle_gamma   120.02539263
_symmetry_Int_Tables_number   1
_chemical_formula_structural   Na30Mg4Nb20Si33(SO48)3
_chemical_formula_sum   'Na30 Mg4 Nb20 Si33 S3 O144'
_cell_volume   3215.26577071
_cell_formula_units_Z   1
loop_
 _symmetry_equiv_pos_site_id
 _symmetry_equiv_pos_as_xyz
  1  'x, y, z'
loop_
 _atom_site_type_symbol
 _atom_site_label
 _atom_site_symmetry_multiplicity
 _atom_site_fract_x
 _atom_site_fract_y
 _atom_site_fract_z
 _atom_site_occupancy
  Na  Na0  1  0.31539130  0.98230240  0.25466386  1
  Na  Na1  1  0.18475537  0.38851305  0.25644612  1
  Na  Na2  1  0.67996888  0.38250416  0.25293989  1
  Na  Na3  1  0.50537593  0.63486332  0.25906839  1
  Na  Na4  1  0.31263047  0.64075271  0.75713857  1
  Na  Na5  1  0.00394881  0.38627405  0.75546053  1
  Na  Na6  1  0.18368981  0.97858108  0.75487181  1
  Na  Na7  1  0.64967169  0.33287662  0.58374507  1
  Na  Na8  1  0.64357685  0.96807708  0.08598092  1
  Na  Na9  1  0.33974921  0.71914143  0.08884943  1
  Na  Na10  1  0.51769339  0.31610387  0.08922858  1
  Na  Na11  1  0.98905332  0.66108304  0.91399446  1
  Na  Na12  1  0.34507073  0.02691260  0.91545209  1
  Na  Na13  1  0.66567759  0.29751131  0.91563516  1
  Na  Na14  1  0.48754226  0.31605801  0.41456425  1
  Na  Na15  1  0.98994965  0.32103406  0.41463377  1
  Na  Na16  1  0.34207412  0.66128786  0.41511079  1
  Na  Na17  1  0.84294919  0.65854844  0.41435502  1
  Na  Na18  1  0.00901241  0.00590244  0.50119313  1
  Na  Na19  1  0.50118058  0.98953397  0.50235528  1
  Na  Na20  1  0.00548553  0.01503387  0.00225688  1
  Na  Na21  1  0.49818865  0.99148146  0.00607988  1
  Na  Na22  1  0.33904013  0.34450343  0.83695635  1
  Na  Na23  1  0.82950969  0.32286268  0.83103722  1
  Na  Na24  1  0.33006265  0.32724073  0.33643122  1
  Na  Na25  1  0.83407815  0.32514321  0.33325440  1
  Na  Na26  1  0.15852319  0.65638073  0.17101517  1
  Na  Na27  1  0.67513451  0.66824998  0.17381871  1
  Na  Na28  1  0.16707724  0.67721856  0.66531342  1
  Na  Na29  1  0.66792256  0.67536358  0.66664548  1
  Mg  Mg30  1  0.49681179  0.00386115  0.14547304  1
  Mg  Mg31  1  0.16435520  0.65696493  0.31612397  1
  Mg  Mg32  1  0.66943943  0.66479283  0.31570760  1
  Mg  Mg33  1  0.16787502  0.67578554  0.81729874  1
  Nb  Nb34  1  0.99287748  0.99507288  0.35721425  1
  Nb  Nb35  1  0.49343408  0.99675582  0.35569161  1
  Nb  Nb36  1  0.99361006  0.99310146  0.85821931  1
  Nb  Nb37  1  0.49806203  0.99410552  0.85522378  1
  Nb  Nb38  1  0.99355953  0.98617963  0.64073093  1
  Nb  Nb39  1  0.49794376  0.99401110  0.64547397  1
  Nb  Nb40  1  0.99376022  0.99953786  0.14266124  1
  Nb  Nb41  1  0.34148116  0.33588588  0.68380787  1
  Nb  Nb42  1  0.83034000  0.33164619  0.68932127  1
  Nb  Nb43  1  0.33828897  0.33867625  0.18476178  1
  Nb  Nb44  1  0.84131328  0.34683661  0.18667218  1
  Nb  Nb45  1  0.33030430  0.33791832  0.97933928  1
  Nb  Nb46  1  0.83523982  0.32785686  0.97895672  1
  Nb  Nb47  1  0.33058453  0.32961384  0.48075737  1
  Nb  Nb48  1  0.83343117  0.33035313  0.48027468  1
  Nb  Nb49  1  0.16412479  0.66522486  0.02016615  1
  Nb  Nb50  1  0.66946471  0.66631836  0.02188611  1
  Nb  Nb51  1  0.16464899  0.66498198  0.52177630  1
  Nb  Nb52  1  0.66639433  0.67238370  0.51940889  1
  Nb  Nb53  1  0.66529971  0.66388160  0.80974780  1
  Si  Si54  1  0.35243433  0.70779147  0.24610408  1
  Si  Si55  1  0.85254922  0.70898010  0.24959794  1
  Si  Si56  1  0.99964346  0.29152191  0.24964608  1
  Si  Si57  1  0.50183791  0.29563524  0.24652822  1
  Si  Si58  1  0.64300373  0.28592825  0.75003125  1
  Si  Si59  1  0.00034246  0.71056005  0.74951989  1
  Si  Si60  1  0.49962495  0.70919253  0.74961950  1
  Si  Si61  1  0.35383025  0.00130959  0.75030731  1
  Si  Si62  1  0.85535391  0.99888148  0.74949978  1
  Si  Si63  1  0.48157994  0.33293493  0.58018874  1
  Si  Si64  1  0.97854937  0.33615566  0.58571614  1
  Si  Si65  1  0.18850283  0.04233673  0.58534497  1
  Si  Si66  1  0.68900171  0.04115816  0.58443392  1
  Si  Si67  1  0.33170066  0.62193076  0.58387814  1
  Si  Si68  1  0.83131220  0.61833631  0.58233595  1
  Si  Si69  1  0.48130109  0.62857872  0.08213039  1
  Si  Si70  1  0.97997403  0.62655317  0.08111318  1
  Si  Si71  1  0.33138424  0.04067139  0.08127886  1
  Si  Si72  1  0.83152837  0.04487276  0.08493398  1
  Si  Si73  1  0.18722748  0.33190651  0.08482603  1
  Si  Si74  1  0.69013899  0.33426334  0.08376990  1
  Si  Si75  1  0.30862222  0.66357775  0.91341908  1
  Si  Si76  1  0.80920202  0.66326758  0.91600514  1
  Si  Si77  1  0.02442112  0.37900103  0.91297178  1
  Si  Si78  1  0.52111011  0.37989724  0.91652574  1
  Si  Si79  1  0.16744023  0.95968057  0.91388179  1
  Si  Si80  1  0.66648153  0.95142330  0.91668322  1
  Si  Si81  1  0.30519062  0.95446709  0.41321799  1
  Si  Si82  1  0.80594284  0.95476998  0.41350503  1
  Si  Si83  1  0.16704848  0.37635362  0.41443215  1
  Si  Si84  1  0.66736537  0.37473976  0.41483053  1
  Si  Si85  1  0.02441555  0.66810917  0.41487170  1
  Si  Si86  1  0.52208295  0.66855540  0.41332579  1
  S  S87  1  0.14239430  0.99870393  0.24911567  1
  S  S88  1  0.64514664  0.00183508  0.24886764  1
  S  S89  1  0.14374625  0.28655436  0.74973404  1
  O  O90  1  0.10203062  0.02483582  0.30255730  1
  O  O91  1  0.60140685  0.02739011  0.30145111  1
  O  O92  1  0.41561596  0.80011780  0.30690443  1
  O  O93  1  0.91298878  0.80166472  0.30925612  1
  O  O94  1  0.48665507  0.16737942  0.30622345  1
  O  O95  1  0.98849327  0.16892194  0.30869223  1
  O  O96  1  0.10344646  0.17923354  0.80320669  1
  O  O97  1  0.59728962  0.16973355  0.80927014  1
  O  O98  1  0.48364809  0.80390261  0.80658817  1
  O  O99  1  0.99007806  0.80991797  0.80867196  1
  O  O100  1  0.41342233  0.02814375  0.80964431  1
  O  O101  1  0.91887635  0.02936534  0.80681568  1
  O  O102  1  0.40883207  0.98514832  0.69458765  1
  O  O103  1  0.90581020  0.97914814  0.69266686  1
  O  O104  1  0.09135442  0.20365667  0.69652723  1
  O  O105  1  0.58695567  0.19634272  0.69051780  1
  O  O106  1  0.01179028  0.84063385  0.69442946  1
  O  O107  1  0.51163601  0.82853647  0.69207684  1
  O  O108  1  0.40014874  0.81756679  0.18902349  1
  O  O109  1  0.91063259  0.82946394  0.19394507  1
  O  O110  1  0.00849070  0.18088741  0.19407290  1
  O  O111  1  0.51693326  0.21056979  0.18927464  1
  O  O112  1  0.09272692  0.98312268  0.19565220  1
  O  O113  1  0.59645635  0.98092593  0.19434717  1
  O  O114  1  0.43263681  0.35888150  0.63885347  1
  O  O115  1  0.93109290  0.35936147  0.64377289  1
  O  O116  1  0.24804270  0.13946535  0.64417932  1
  O  O117  1  0.74919579  0.13785573  0.64215919  1
  O  O118  1  0.32198317  0.50386547  0.64278019  1
  O  O119  1  0.81802583  0.49549572  0.63916287  1
  O  O120  1  0.43479341  0.50209745  0.14170977  1
  O  O121  1  0.93192688  0.50195913  0.13918469  1
  O  O122  1  0.31980970  0.13804861  0.14104550  1
  O  O123  1  0.81640336  0.13949916  0.14081437  1
  O  O124  1  0.24923300  0.36258513  0.14338912  1
  O  O125  1  0.74984798  0.36084905  0.14251003  1
  O  O126  1  0.23566926  0.30769998  0.02763914  1
  O  O127  1  0.74049811  0.31480175  0.02563992  1
  O  O128  1  0.41615599  0.52302333  0.02835474  1
  O  O129  1  0.92072788  0.53577509  0.02267230  1
  O  O130  1  0.34334986  0.16501886  0.02505283  1
  O  O131  1  0.84560783  0.16352230  0.02639058  1
  O  O132  1  0.23774657  0.16596786  0.52888081  1
  O  O133  1  0.73711970  0.16864346  0.52826731  1
  O  O134  1  0.34573468  0.52987505  0.52601733  1
  O  O135  1  0.84623582  0.53377200  0.52351157  1
  O  O136  1  0.42238112  0.30986825  0.52344525  1
  O  O137  1  0.92017350  0.30665450  0.52641485  1
  O  O138  1  0.26469118  0.69902517  0.97255413  1
  O  O139  1  0.76476361  0.69324481  0.97430878  1
  O  O140  1  0.08377304  0.47335100  0.97174640  1
  O  O141  1  0.58304137  0.46996711  0.97478939  1
  O  O142  1  0.14882593  0.82816472  0.97048805  1
  O  O143  1  0.65420629  0.83883614  0.97674590  1
  O  O144  1  0.26276515  0.82697705  0.47058209  1
  O  O145  1  0.76514789  0.83069626  0.47322999  1
  O  O146  1  0.14868888  0.46839916  0.47157848  1
  O  O147  1  0.64958304  0.46303036  0.47416959  1
  O  O148  1  0.08332555  0.69616360  0.47460048  1
  O  O149  1  0.58393289  0.69237344  0.47161997  1
  O  O150  1  0.05962199  0.61466088  0.35968992  1
  O  O151  1  0.55629151  0.62264744  0.35539183  1
  O  O152  1  0.25816771  0.88538253  0.35188593  1
  O  O153  1  0.75344620  0.87511255  0.35687872  1
  O  O154  1  0.19145129  0.48693646  0.35538880  1
  O  O155  1  0.68979567  0.48814943  0.35641284  1
  O  O156  1  0.05686762  0.49135642  0.85416805  1
  O  O157  1  0.57055409  0.50030179  0.85980438  1
  O  O158  1  0.18936197  0.89369542  0.85458777  1
  O  O159  1  0.67972262  0.85664915  0.85977142  1
  O  O160  1  0.25828956  0.63445677  0.85317535  1
  O  O161  1  0.74794095  0.63196236  0.85958584  1
  O  O162  1  0.00921897  0.83460960  0.40992047  1
  O  O163  1  0.50887000  0.83645356  0.41066616  1
  O  O164  1  0.40446702  0.97360473  0.41024431  1
  O  O165  1  0.90484265  0.97384329  0.41183656  1
  O  O166  1  0.07969363  0.18580260  0.40958337  1
  O  O167  1  0.57904794  0.18590169  0.40909794  1
  O  O168  1  0.01304780  0.18683516  0.90920266  1
  O  O169  1  0.51478703  0.19201672  0.91139803  1
  O  O170  1  0.07972770  0.97322859  0.90990563  1
  O  O171  1  0.58371169  0.97977043  0.91035969  1
  O  O172  1  0.40461262  0.84285820  0.91118005  1
  O  O173  1  0.90565162  0.83099709  0.91152478  1
  O  O174  1  0.49223323  0.16575688  0.58756976  1
  O  O175  1  0.98964979  0.16722865  0.59331301  1
  O  O176  1  0.09525350  0.02905433  0.59219204  1
  O  O177  1  0.59681455  0.03260193  0.58902189  1
  O  O178  1  0.41783822  0.81003169  0.59054984  1
  O  O179  1  0.91686824  0.80901286  0.58792260  1
  O  O180  1  0.49212289  0.81351256  0.08676178  1
  O  O181  1  0.98960025  0.81317059  0.09074684  1
  O  O182  1  0.41579651  0.02481290  0.08350304  1
  O  O183  1  0.91598384  0.02366306  0.08911056  1
  O  O184  1  0.09435370  0.16194849  0.09198664  1
  O  O185  1  0.59762349  0.16547551  0.08488569  1
  O  O186  1  0.34252395  0.17204619  0.74475450  1
  O  O187  1  0.85190350  0.17558993  0.74552736  1
  O  O188  1  0.22974819  0.30166993  0.74598833  1
  O  O189  1  0.73780841  0.30463450  0.74459766  1
  O  O190  1  0.40965415  0.52475948  0.74468985  1
  O  O191  1  0.91361192  0.52240221  0.74499460  1
  O  O192  1  0.34514550  0.51348255  0.24561711  1
  O  O193  1  0.84471374  0.51682511  0.24475560  1
  O  O194  1  0.40791354  0.29556034  0.24591357  1
  O  O195  1  0.91045940  0.29725762  0.24345312  1
  O  O196  1  0.22860041  0.16010598  0.24587453  1
  O  O197  1  0.73026664  0.16451162  0.24700332  1
  O  O198  1  0.32506614  0.50337576  0.92562961  1
  O  O199  1  0.82095241  0.49612763  0.92107337  1
  O  O200  1  0.42465609  0.34765711  0.92177451  1
  O  O201  1  0.92890708  0.35806460  0.92586896  1
  O  O202  1  0.25103813  0.14777020  0.92622894  1
  O  O203  1  0.74922709  0.14674002  0.92250802  1
  O  O204  1  0.32915437  0.15338073  0.42453587  1
  O  O205  1  0.83028454  0.15395903  0.42466764  1
  O  O206  1  0.25057884  0.35285982  0.42696288  1
  O  O207  1  0.75127844  0.35289983  0.42698309  1
  O  O208  1  0.42519365  0.50348266  0.42575253  1
  O  O209  1  0.92606997  0.50351387  0.42653761  1
  O  O210  1  0.18434073  0.50803749  0.07735705  1
  O  O211  1  0.68029483  0.50506924  0.07733471  1
  O  O212  1  0.07222214  0.63845188  0.07651951  1
  O  O213  1  0.57241225  0.63285014  0.07803764  1
  O  O214  1  0.24623624  0.85173684  0.07685550  1
  O  O215  1  0.74481093  0.86022242  0.07833400  1
  O  O216  1  0.18052855  0.85714642  0.57803897  1
  O  O217  1  0.67955100  0.85385780  0.57699089  1
  O  O218  1  0.24725100  0.63956231  0.57749000  1
  O  O219  1  0.74518632  0.63075678  0.57738928  1
  O  O220  1  0.07253395  0.50462069  0.57794857  1
  O  O221  1  0.57602390  0.50088167  0.57810949  1
  O  O222  1  0.15507106  0.85245280  0.25300405  1
  O  O223  1  0.65424107  0.85250964  0.25604139  1
  O  O224  1  0.25947737  0.68823664  0.25244263  1
  O  O225  1  0.75940400  0.68319670  0.24911145  1
  O  O226  1  0.08477487  0.47216540  0.25053530  1
  O  O227  1  0.57957960  0.48786239  0.25348443  1
  O  O228  1  0.15301685  0.45579267  0.75405889  1
  O  O229  1  0.65323830  0.47551030  0.75670643  1
  O  O230  1  0.08343327  0.68987892  0.75017929  1
  O  O231  1  0.58273752  0.68683543  0.75532021  1
  O  O232  1  0.26239294  0.83040994  0.74949960  1
  O  O233  1  0.76224330  0.82953219  0.75624859  1
