# generated using pymatgen
data_Na4P2O7
_symmetry_space_group_name_H-M   'P 1'
_cell_length_a   5.34671887
_cell_length_b   9.27681370
_cell_length_c   13.40070011
_cell_angle_alpha   90.00000000
_cell_angle_beta   90.00000000
_cell_angle_gamma   90.00000000
_symmetry_Int_Tables_number   1
_chemical_formula_structural   Na4P2O7
_chemical_formula_sum   'Na16 P8 O28'
_cell_volume   664.68162498
_cell_formula_units_Z   4
loop_
 _symmetry_equiv_pos_site_id
 _symmetry_equiv_pos_as_xyz
  1  'x, y, z'
loop_
 _atom_site_type_symbol
 _atom_site_label
 _atom_site_symmetry_multiplicity
 _atom_site_fract_x
 _atom_site_fract_y
 _atom_site_fract_z
 _atom_site_occupancy
  Na  Na0  1  0.25175576  0.02827112  0.76688256  1
  Na  Na1  1  0.75175576  0.47172888  0.23311744  1
  Na  Na2  1  0.74824424  0.52827112  0.73311744  1
  Na  Na3  1  0.24824424  0.97172888  0.26688256  1
  Na  Na4  1  0.26538450  0.00770500  0.51366283  1
  Na  Na5  1  0.76538450  0.49229500  0.48633717  1
  Na  Na6  1  0.73461550  0.50770500  0.98633717  1
  Na  Na7  1  0.23461550  0.99229500  0.01366283  1
  Na  Na8  1  0.71056320  0.16669060  0.08154392  1
  Na  Na9  1  0.21056320  0.33330940  0.91845608  1
  Na  Na10  1  0.28943680  0.66669060  0.41845608  1
  Na  Na11  1  0.78943680  0.83330940  0.58154392  1
  Na  Na12  1  0.24796026  0.62023707  0.09594484  1
  Na  Na13  1  0.74796026  0.87976293  0.90405516  1
  Na  Na14  1  0.75203974  0.12023707  0.40405516  1
  Na  Na15  1  0.25203974  0.37976293  0.59594484  1
  P  P16  1  0.74020522  0.19307024  0.85678708  1
  P  P17  1  0.24020522  0.30692976  0.14321292  1
  P  P18  1  0.25979478  0.69307024  0.64321292  1
  P  P19  1  0.75979478  0.80692976  0.35678708  1
  P  P20  1  0.77181084  0.18555995  0.63818659  1
  P  P21  1  0.27181084  0.31444005  0.36181341  1
  P  P22  1  0.22818916  0.68555995  0.86181341  1
  P  P23  1  0.72818916  0.81444005  0.13818659  1
  O  O24  1  0.82638924  0.66405313  0.11691657  1
  O  O25  1  0.32638924  0.83594687  0.88308343  1
  O  O26  1  0.17361076  0.16405313  0.38308343  1
  O  O27  1  0.67361076  0.33594687  0.61691657  1
  O  O28  1  0.44619091  0.82125285  0.14882465  1
  O  O29  1  0.94619091  0.67874715  0.85117535  1
  O  O30  1  0.55380909  0.32125285  0.35117535  1
  O  O31  1  0.05380909  0.17874715  0.64882465  1
  O  O32  1  0.83237557  0.92797189  0.06841766  1
  O  O33  1  0.33237557  0.57202811  0.93158234  1
  O  O34  1  0.16762443  0.42797189  0.43158234  1
  O  O35  1  0.66762443  0.07202811  0.56841766  1
  O  O36  1  0.70238101  0.64751509  0.35143265  1
  O  O37  1  0.20238101  0.85248491  0.64856735  1
  O  O38  1  0.29761899  0.14751509  0.14856735  1
  O  O39  1  0.79761899  0.35248491  0.85143265  1
  O  O40  1  0.53263129  0.89627349  0.38454003  1
  O  O41  1  0.03263129  0.60372651  0.61545997  1
  O  O42  1  0.46736871  0.39627349  0.11545997  1
  O  O43  1  0.96736871  0.10372651  0.88454003  1
  O  O44  1  0.98439356  0.84398445  0.42125232  1
  O  O45  1  0.48439356  0.65601555  0.57874768  1
  O  O46  1  0.01560644  0.34398445  0.07874768  1
  O  O47  1  0.51560644  0.15601555  0.92125232  1
  O  O48  1  0.65188485  0.13846079  0.74652748  1
  O  O49  1  0.15188485  0.36153921  0.25347252  1
  O  O50  1  0.34811515  0.63846079  0.75347252  1
  O  O51  1  0.84811515  0.86153921  0.24652748  1
