# generated using pymatgen
data_MgGa4(WO6)2
_symmetry_space_group_name_H-M   'P 1'
_cell_length_a   5.17651940
_cell_length_b   5.17651243
_cell_length_c   9.04117900
_cell_angle_alpha   90.00000000
_cell_angle_beta   90.00000000
_cell_angle_gamma   79.66617176
_symmetry_Int_Tables_number   1
_chemical_formula_structural   MgGa4(WO6)2
_chemical_formula_sum   'Mg1 Ga4 W2 O12'
_cell_volume   238.34050465
_cell_formula_units_Z   1
loop_
 _symmetry_equiv_pos_site_id
 _symmetry_equiv_pos_as_xyz
  1  'x, y, z'
loop_
 _atom_site_type_symbol
 _atom_site_label
 _atom_site_symmetry_multiplicity
 _atom_site_fract_x
 _atom_site_fract_y
 _atom_site_fract_z
 _atom_site_occupancy
  Mg  Mg0  1  0.29981200  0.29981300  0.00000000  1
  Ga  Ga1  1  0.01333400  0.01333500  0.33297600  1
  Ga  Ga2  1  0.01333400  0.01333500  0.66702400  1
  Ga  Ga3  1  0.58025700  0.58025400  0.17622200  1
  Ga  Ga4  1  0.58025700  0.58025400  0.82377800  1
  W  W5  1  0.96508100  0.96507900  0.00000000  1
  W  W6  1  0.54673500  0.54673600  0.50000000  1
  O  O7  1  0.14442400  0.14442600  0.16122600  1
  O  O8  1  0.14442400  0.14442600  0.83877400  1
  O  O9  1  0.14137300  0.14138100  0.50000000  1
  O  O10  1  0.31559000  0.67869300  0.00000000  1
  O  O11  1  0.31384500  0.68688100  0.33793300  1
  O  O12  1  0.31384500  0.68688100  0.66206700  1
  O  O13  1  0.68687600  0.31384300  0.33793200  1
  O  O14  1  0.68687600  0.31384300  0.66206800  1
  O  O15  1  0.67869200  0.31558700  0.00000000  1
  O  O16  1  0.77102900  0.77102600  0.50000000  1
  O  O17  1  0.81203000  0.81202600  0.18330000  1
  O  O18  1  0.81203000  0.81202600  0.81670000  1
