# generated using pymatgen
data_NaNbSiGe(PO6)2
_symmetry_space_group_name_H-M   'P 1'
_cell_length_a   8.64501782
_cell_length_b   8.63776796
_cell_length_c   22.32600740
_cell_angle_alpha   90.32277089
_cell_angle_beta   90.00000000
_cell_angle_gamma   120.02776840
_symmetry_Int_Tables_number   1
_chemical_formula_structural   NaNbSiGe(PO6)2
_chemical_formula_sum   'Na6 Nb6 Si6 Ge6 P12 O72'
_cell_volume   1443.37221030
_cell_formula_units_Z   6
loop_
 _symmetry_equiv_pos_site_id
 _symmetry_equiv_pos_as_xyz
  1  'x, y, z'
loop_
 _atom_site_type_symbol
 _atom_site_label
 _atom_site_symmetry_multiplicity
 _atom_site_fract_x
 _atom_site_fract_y
 _atom_site_fract_z
 _atom_site_occupancy
  Na  Na0  1  0.00066058  0.00321561  0.49646572  1
  Na  Na1  1  0.00255503  0.00321561  0.99646572  1
  Na  Na2  1  0.66928839  0.33462930  0.82991741  1
  Na  Na3  1  0.66534191  0.33462930  0.32991741  1
  Na  Na4  1  0.33526243  0.66717350  0.16304869  1
  Na  Na5  1  0.33191007  0.66717350  0.66304869  1
  Nb  Nb6  1  0.00179975  0.00000402  0.64288507  1
  Nb  Nb7  1  0.99820427  0.00000402  0.14288507  1
  Nb  Nb8  1  0.66447360  0.33226825  0.97625707  1
  Nb  Nb9  1  0.66779566  0.33226825  0.47625707  1
  Nb  Nb10  1  0.33717887  0.66275497  0.30952052  1
  Nb  Nb11  1  0.32557510  0.66275497  0.80952052  1
  Si  Si12  1  0.72345306  0.70930869  0.25145548  1
  Si  Si13  1  0.98585563  0.70930869  0.75145548  1
  Si  Si14  1  0.96066371  0.34652861  0.58451106  1
  Si  Si15  1  0.38586590  0.34652861  0.08451106  1
  Si  Si16  1  0.05100186  0.37033255  0.91754887  1
  Si  Si17  1  0.31932969  0.37033255  0.41754887  1
  Ge  Ge18  1  0.00100290  0.99914044  0.35335114  1
  Ge  Ge19  1  0.99813754  0.99914044  0.85335114  1
  Ge  Ge20  1  0.67548814  0.33923364  0.68704092  1
  Ge  Ge21  1  0.66374650  0.33923364  0.18704092  1
  Ge  Ge22  1  0.33151915  0.65735266  0.02003938  1
  Ge  Ge23  1  0.32583251  0.65735266  0.52003938  1
  P  P24  1  0.29126815  0.00939711  0.25074882  1
  P  P25  1  0.98675882  0.28010212  0.25049226  1
  P  P26  1  0.29334329  0.28010212  0.75049226  1
  P  P27  1  0.71812896  0.00939711  0.75074882  1
  P  P28  1  0.38888313  0.04389379  0.58411160  1
  P  P29  1  0.65511542  0.61368645  0.58437678  1
  P  P30  1  0.95857203  0.61368645  0.08437678  1
  P  P31  1  0.65501167  0.04389379  0.08411160  1
  P  P32  1  0.62379129  0.67772767  0.91748574  1
  P  P33  1  0.32241860  0.94412281  0.91824254  1
  P  P34  1  0.62170321  0.94412281  0.41824254  1
  P  P35  1  0.05393537  0.67772767  0.41748574  1
  O  O36  1  0.20893655  0.04218804  0.30723847  1
  O  O37  1  0.84235993  0.80411849  0.31086761  1
  O  O38  1  0.96079809  0.16862113  0.30700740  1
  O  O39  1  0.20782304  0.16862113  0.80700740  1
  O  O40  1  0.96175856  0.80411849  0.81086761  1
  O  O41  1  0.83325149  0.04218804  0.80723847  1
  O  O42  1  0.80247256  0.97728041  0.69452731  1
  O  O43  1  0.17478028  0.20261238  0.69411719  1
  O  O44  1  0.02605192  0.83233770  0.69234118  1
  O  O45  1  0.80628578  0.83233770  0.19234118  1
  O  O46  1  0.02783210  0.20261238  0.19411719  1
  O  O47  1  0.17480785  0.97728041  0.19452731  1
  O  O48  1  0.86696319  0.37307705  0.64325698  1
  O  O49  1  0.50033242  0.13061176  0.64111662  1
  O  O50  1  0.62379791  0.49984012  0.64082821  1
  O  O51  1  0.87604321  0.49984012  0.14082821  1
  O  O52  1  0.63028034  0.13061176  0.14111662  1
  O  O53  1  0.50611486  0.37307705  0.14325698  1
  O  O54  1  0.47056206  0.30660729  0.02522245  1
  O  O55  1  0.84169063  0.53130265  0.02805777  1
  O  O56  1  0.69362607  0.16071683  0.02778227  1
  O  O57  1  0.46709177  0.16071683  0.52778227  1
  O  O58  1  0.68961302  0.53130265  0.52805777  1
  O  O59  1  0.83604623  0.30660729  0.52522245  1
  O  O60  1  0.54126451  0.70836457  0.97436676  1
  O  O61  1  0.17235844  0.46401202  0.97613940  1
  O  O62  1  0.29807591  0.83237415  0.97473225  1
  O  O63  1  0.53429724  0.83237415  0.47473225  1
  O  O64  1  0.29165258  0.46401202  0.47613940  1
  O  O65  1  0.16709906  0.70836457  0.47436676  1
  O  O66  1  0.13425079  0.64258465  0.36118585  1
  O  O67  1  0.50546641  0.86545194  0.36151113  1
  O  O68  1  0.35882718  0.49605403  0.35844379  1
  O  O69  1  0.13722585  0.49605403  0.85844379  1
  O  O70  1  0.35998453  0.86545194  0.86151113  1
  O  O71  1  0.50833286  0.64258465  0.86118585  1
  O  O72  1  0.03013753  0.84195386  0.41080163  1
  O  O73  1  0.80790365  0.96588904  0.41070882  1
  O  O74  1  0.14455640  0.17489794  0.40731742  1
  O  O75  1  0.03034155  0.17489794  0.90731742  1
  O  O76  1  0.15798540  0.96588904  0.91070882  1
  O  O77  1  0.81181632  0.84195386  0.91080163  1
  O  O78  1  0.97989979  0.16733165  0.58985167  1
  O  O79  1  0.20007073  0.02387134  0.58970532  1
  O  O80  1  0.82679389  0.80071318  0.58972660  1
  O  O81  1  0.97391929  0.80071318  0.08972660  1
  O  O82  1  0.82380061  0.02387134  0.08970532  1
  O  O83  1  0.18743187  0.16733165  0.08985167  1
  O  O84  1  0.69168164  0.17138461  0.74307558  1
  O  O85  1  0.47773485  0.29677921  0.74154851  1
  O  O86  1  0.81181811  0.51236447  0.74395325  1
  O  O87  1  0.70054736  0.51236447  0.24395325  1
  O  O88  1  0.81904536  0.29677921  0.24154851  1
  O  O89  1  0.47970398  0.17138461  0.24307558  1
  O  O90  1  0.64207666  0.50790877  0.92330455  1
  O  O91  1  0.85373570  0.35268979  0.92296824  1
  O  O92  1  0.49261141  0.13260497  0.92315410  1
  O  O93  1  0.63999456  0.13260497  0.42315410  1
  O  O94  1  0.49895510  0.35268979  0.42296824  1
  O  O95  1  0.86583311  0.50790877  0.42330455  1
  O  O96  1  0.36710999  0.52261278  0.07678946  1
  O  O97  1  0.14760871  0.64189162  0.07647092  1
  O  O98  1  0.48796143  0.85830368  0.07542061  1
  O  O99  1  0.37034125  0.85830368  0.57542061  1
  O  O100  1  0.49428192  0.64189162  0.57647092  1
  O  O101  1  0.15550180  0.52261278  0.57678946  1
  O  O102  1  0.30470951  0.83770745  0.25649776  1
  O  O103  1  0.52479098  0.69207221  0.25610370  1
  O  O104  1  0.15337681  0.46999600  0.25636016  1
  O  O105  1  0.31661819  0.46999600  0.75636016  1
  O  O106  1  0.16728023  0.69207221  0.75610370  1
  O  O107  1  0.53299694  0.83770745  0.75649776  1
