# generated using pymatgen
data_Na4Hf2Ga2Si3(SO8)3
_symmetry_space_group_name_H-M   'P 1'
_cell_length_a   8.91125700
_cell_length_b   8.90008466
_cell_length_c   22.69302831
_cell_angle_alpha   90.21591975
_cell_angle_beta   88.56477006
_cell_angle_gamma   119.84645707
_symmetry_Int_Tables_number   1
_chemical_formula_structural   Na4Hf2Ga2Si3(SO8)3
_chemical_formula_sum   'Na12 Hf6 Ga6 Si9 S9 O72'
_cell_volume   1560.51497915
_cell_formula_units_Z   3
loop_
 _symmetry_equiv_pos_site_id
 _symmetry_equiv_pos_as_xyz
  1  'x, y, z'
loop_
 _atom_site_type_symbol
 _atom_site_label
 _atom_site_symmetry_multiplicity
 _atom_site_fract_x
 _atom_site_fract_y
 _atom_site_fract_z
 _atom_site_occupancy
  Na  Na0  1  0.00042777  0.64359064  0.25317258  1
  Na  Na1  1  0.99686531  0.35724892  0.73892639  1
  Na  Na2  1  0.66322431  0.97116523  0.58768620  1
  Na  Na3  1  0.66944278  0.69852440  0.08142607  1
  Na  Na4  1  0.33479606  0.30435603  0.90235760  1
  Na  Na5  1  0.32462714  0.02715809  0.42148840  1
  Na  Na6  1  0.01010129  0.00256722  0.50003274  1
  Na  Na7  1  0.98758843  0.98007521  0.99246385  1
  Na  Na8  1  0.65629202  0.32991749  0.82010771  1
  Na  Na9  1  0.66360420  0.34456889  0.33102152  1
  Na  Na10  1  0.33533245  0.67848074  0.16741595  1
  Na  Na11  1  0.33495712  0.66666857  0.65903322  1
  Hf  Hf12  1  0.00906397  0.01074025  0.64564522  1
  Hf  Hf13  1  0.00352284  0.98876474  0.14886151  1
  Hf  Hf14  1  0.67554661  0.34781373  0.97985792  1
  Hf  Hf15  1  0.67473874  0.33859253  0.48307267  1
  Hf  Hf16  1  0.33743616  0.67170846  0.31303816  1
  Hf  Hf17  1  0.34805389  0.66808831  0.80995052  1
  Ga  Ga18  1  0.00350625  0.96800797  0.34676029  1
  Ga  Ga19  1  0.97712987  0.99103829  0.84257875  1
  Ga  Ga20  1  0.64230053  0.29358087  0.68430756  1
  Ga  Ga21  1  0.67602118  0.34588563  0.19031339  1
  Ga  Ga22  1  0.33303900  0.67613200  0.01650129  1
  Ga  Ga23  1  0.28017034  0.66212068  0.52335882  1
  Si  Si24  1  0.30695549  0.01400014  0.25078206  1
  Si  Si25  1  0.70572163  0.70308267  0.24920601  1
  Si  Si26  1  0.29401357  0.27900311  0.75338197  1
  Si  Si27  1  0.71028990  0.00632667  0.74839713  1
  Si  Si28  1  0.95585638  0.33885086  0.58795155  1
  Si  Si29  1  0.37233337  0.03416883  0.57965839  1
  Si  Si30  1  0.96990409  0.62026354  0.08504123  1
  Si  Si31  1  0.63148382  0.68327975  0.91898705  1
  Si  Si32  1  0.03349613  0.66812168  0.41438729  1
  S  S33  1  -0.00093695  0.28459199  0.25193311  1
  S  S34  1  0.99684815  0.70840492  0.75287486  1
  S  S35  1  0.66304108  0.62121981  0.58571946  1
  S  S36  1  0.66549896  0.04464536  0.08436152  1
  S  S37  1  0.37483804  0.33591871  0.08381207  1
  S  S38  1  0.04569700  0.37683209  0.91859461  1
  S  S39  1  0.33052384  0.95679987  0.91939848  1
  S  S40  1  0.63340835  0.95755264  0.41673781  1
  S  S41  1  0.32769486  0.37713647  0.41878771  1
  O  O42  1  0.22259046  0.04416507  0.31134797  1
  O  O43  1  0.83452278  0.79748268  0.30309858  1
  O  O44  1  0.97917602  0.18036303  0.30422312  1
  O  O45  1  0.20412042  0.16620824  0.81526452  1
  O  O46  1  0.97771195  0.79006193  0.80773471  1
  O  O47  1  0.83061479  0.04221130  0.80556422  1
  O  O48  1  0.78981717  0.96547947  0.68941642  1
  O  O49  1  0.16438418  0.19154831  0.69861970  1
  O  O50  1  0.02830176  0.81567251  0.70008279  1
  O  O51  1  0.78726740  0.81795103  0.18756312  1
  O  O52  1  0.02214459  0.20659295  0.19637499  1
  O  O53  1  0.17078050  0.97283663  0.19618590  1
  O  O54  1  0.86671832  0.36606097  0.64743104  1
  O  O55  1  0.49806526  0.12075973  0.63481775  1
  O  O56  1  0.64015945  0.51605262  0.63821953  1
  O  O57  1  0.87523779  0.50397785  0.14398380  1
  O  O58  1  0.64476590  0.12707075  0.13721977  1
  O  O59  1  0.48389150  0.35812940  0.13394668  1
  O  O60  1  0.45106929  0.30605013  0.02801469  1
  O  O61  1  0.83709886  0.52787754  0.02950057  1
  O  O62  1  0.67850293  0.14321620  0.02978731  1
  O  O63  1  0.45329710  0.14801114  0.51847890  1
  O  O64  1  0.68836993  0.54032559  0.53076120  1
  O  O65  1  0.83525435  0.30942530  0.53033349  1
  O  O66  1  0.53798041  0.70093787  0.98090176  1
  O  O67  1  0.15290546  0.46693791  0.97004961  1
  O  O68  1  0.30854655  0.85422256  0.97370927  1
  O  O69  1  0.55691118  0.85740067  0.47104757  1
  O  O70  1  0.31690643  0.46745176  0.47172206  1
  O  O71  1  0.16613597  0.71044454  0.46831738  1
  O  O72  1  0.12368677  0.64373446  0.35394563  1
  O  O73  1  0.51725758  0.86775404  0.36528077  1
  O  O74  1  0.35234979  0.48173105  0.36417667  1
  O  O75  1  0.11609976  0.47969054  0.86399334  1
  O  O76  1  0.35122919  0.87369043  0.86648914  1
  O  O77  1  0.49604286  0.63688439  0.86559043  1
  O  O78  1  0.02493979  0.84971997  0.41175452  1
  O  O79  1  0.80898629  0.98696469  0.40582614  1
  O  O80  1  0.17152655  0.20381763  0.41474693  1
  O  O81  1  0.03482960  0.20617738  0.91566370  1
  O  O82  1  0.18239391  0.98594231  0.91747893  1
  O  O83  1  0.82521890  0.84813475  0.90832670  1
  O  O84  1  0.96620450  0.15822255  0.58907847  1
  O  O85  1  0.17754029  0.00292080  0.58760477  1
  O  O86  1  0.82371212  0.79581595  0.58776859  1
  O  O87  1  0.97889910  0.81209837  0.08741411  1
  O  O88  1  0.82713965  0.02959057  0.08504618  1
  O  O89  1  0.19788809  0.18379503  0.08872109  1
  O  O90  1  0.69835681  0.18237473  0.74529502  1
  O  O91  1  0.48853281  0.31432122  0.74234979  1
  O  O92  1  0.84580934  0.53589173  0.74930589  1
  O  O93  1  0.70352889  0.51883916  0.24424524  1
  O  O94  1  0.84693253  0.30961822  0.24780523  1
  O  O95  1  0.49805505  0.17672037  0.23794632  1
  O  O96  1  0.63749167  0.49769146  0.92542945  1
  O  O97  1  0.86637742  0.34972819  0.92580949  1
  O  O98  1  0.49292848  0.13334838  0.92364813  1
  O  O99  1  0.63683643  0.12978350  0.41853530  1
  O  O100  1  0.48381426  0.35239786  0.41962082  1
  O  O101  1  0.84240152  0.49744453  0.42073038  1
  O  O102  1  0.36483682  0.49676783  0.07798814  1
  O  O103  1  0.16280557  0.64362882  0.07379842  1
  O  O104  1  0.51398350  0.86443259  0.08128753  1
  O  O105  1  0.37180864  0.84867544  0.57451949  1
  O  O106  1  0.51439149  0.64831437  0.57871631  1
  O  O107  1  0.15175290  0.50128713  0.58017621  1
  O  O108  1  0.31036635  0.82976274  0.25522449  1
  O  O109  1  0.51215300  0.67539609  0.25532594  1
  O  O110  1  0.15728332  0.46304075  0.25441423  1
  O  O111  1  0.29615530  0.46744758  0.76041685  1
  O  O112  1  0.15438079  0.68675237  0.75891444  1
  O  O113  1  0.51536770  0.83773032  0.75648173  1
