# generated using pymatgen
data_Na14Nb4Ga4Si11SO48
_symmetry_space_group_name_H-M   'P 1'
_cell_length_a   18.09339935
_cell_length_b   9.03317278
_cell_length_c   22.16921111
_cell_angle_alpha   90.06115968
_cell_angle_beta   90.13901464
_cell_angle_gamma   119.99192104
_symmetry_Int_Tables_number   1
_chemical_formula_structural   Na14Nb4Ga4Si11SO48
_chemical_formula_sum   'Na42 Nb12 Ga12 Si33 S3 O144'
_cell_volume   3138.15162367
_cell_formula_units_Z   3
loop_
 _symmetry_equiv_pos_site_id
 _symmetry_equiv_pos_as_xyz
  1  'x, y, z'
loop_
 _atom_site_type_symbol
 _atom_site_label
 _atom_site_symmetry_multiplicity
 _atom_site_fract_x
 _atom_site_fract_y
 _atom_site_fract_z
 _atom_site_occupancy
  Na  Na0  1  0.32169589  0.99986803  0.24997759  1
  Na  Na1  1  0.82233275  0.00029251  0.24997314  1
  Na  Na2  1  0.31801233  0.62745958  0.74871114  1
  Na  Na3  1  0.82257643  0.64501706  0.74896185  1
  Na  Na4  1  0.49380104  0.36281703  0.74786360  1
  Na  Na5  1  0.68214893  0.00275443  0.75096108  1
  Na  Na6  1  0.14829187  0.32381145  0.58533049  1
  Na  Na7  1  0.65230266  0.33157019  0.58194146  1
  Na  Na8  1  0.01678354  0.71045491  0.58557900  1
  Na  Na9  1  0.51150780  0.69013087  0.58284556  1
  Na  Na10  1  0.33123024  0.97759960  0.58302602  1
  Na  Na11  1  0.84014327  0.97018921  0.58611672  1
  Na  Na12  1  0.14710918  0.95871594  0.08175971  1
  Na  Na13  1  0.64679890  0.95853318  0.08167530  1
  Na  Na14  1  0.33186556  0.70837477  0.08299537  1
  Na  Na15  1  0.83198154  0.70821831  0.08357872  1
  Na  Na16  1  0.02241107  0.33567800  0.08328952  1
  Na  Na17  1  0.52186357  0.33494265  0.08328660  1
  Na  Na18  1  0.48367702  0.67848496  0.91400151  1
  Na  Na19  1  0.98554262  0.67666783  0.91410440  1
  Na  Na20  1  0.35465774  0.03044710  0.91426222  1
  Na  Na21  1  0.85396873  0.03079893  0.91424681  1
  Na  Na22  1  0.16200913  0.29698451  0.91592050  1
  Na  Na23  1  0.65985919  0.28972580  0.91469830  1
  Na  Na24  1  0.47709521  0.29210891  0.41643035  1
  Na  Na25  1  0.97861956  0.29246362  0.41665362  1
  Na  Na26  1  0.16750752  0.04156965  0.41961648  1
  Na  Na27  1  0.66794631  0.04119411  0.41755687  1
  Na  Na28  1  0.35357827  0.66309939  0.41668663  1
  Na  Na29  1  0.85484232  0.66509452  0.41638633  1
  Na  Na30  1  0.00142789  -0.00002547  0.50011484  1
  Na  Na31  1  0.49912056  0.99872519  0.49450178  1
  Na  Na32  1  0.00027369  0.00171724  0.00040204  1
  Na  Na33  1  0.49946379  0.00006008  0.99926130  1
  Na  Na34  1  0.33054676  0.32332255  0.82710711  1
  Na  Na35  1  0.83955430  0.33502732  0.83266286  1
  Na  Na36  1  0.33660111  0.34571675  0.33755933  1
  Na  Na37  1  0.83731785  0.34650153  0.33710248  1
  Na  Na38  1  0.16421235  0.65388402  0.16256926  1
  Na  Na39  1  0.66408223  0.65373138  0.16249069  1
  Na  Na40  1  0.16310822  0.67443797  0.66842215  1
  Na  Na41  1  0.66693006  0.66678777  0.66640068  1
  Nb  Nb42  1  0.49744464  0.99709056  0.64676288  1
  Nb  Nb43  1  0.83917475  0.33834021  0.68822700  1
  Nb  Nb44  1  0.33928798  0.34778501  0.18729906  1
  Nb  Nb45  1  0.83955596  0.34832259  0.18732871  1
  Nb  Nb46  1  0.33320132  0.33555623  0.97975281  1
  Nb  Nb47  1  0.83284932  0.33326519  0.98046733  1
  Nb  Nb48  1  0.16614207  0.66890197  0.52018058  1
  Nb  Nb49  1  0.66642219  0.66604423  0.51876445  1
  Nb  Nb50  1  0.16529430  0.65177641  0.31249512  1
  Nb  Nb51  1  0.66535492  0.65259526  0.31223823  1
  Nb  Nb52  1  0.16459324  0.67356834  0.81410706  1
  Nb  Nb53  1  0.66735217  0.66911231  0.81355178  1
  Ga  Ga54  1  0.99134725  0.99539046  0.35531159  1
  Ga  Ga55  1  0.49078608  0.99471143  0.35459430  1
  Ga  Ga56  1  0.99337237  0.99043351  0.85459371  1
  Ga  Ga57  1  0.49798027  0.99880753  0.85228652  1
  Ga  Ga58  1  0.99641660  0.98671075  0.64513484  1
  Ga  Ga59  1  0.99368737  0.00489861  0.14489953  1
  Ga  Ga60  1  0.49329062  0.00464404  0.14466485  1
  Ga  Ga61  1  0.33733273  0.32747272  0.68074865  1
  Ga  Ga62  1  0.33178304  0.33038607  0.48173295  1
  Ga  Ga63  1  0.83438843  0.33256027  0.48048618  1
  Ga  Ga64  1  0.16688780  0.66640438  0.01880275  1
  Ga  Ga65  1  0.66667849  0.66627465  0.01930785  1
  Si  Si66  1  0.35908999  0.71694714  0.25037423  1
  Si  Si67  1  0.85925741  0.71733130  0.25043872  1
  Si  Si68  1  0.00058455  0.28249559  0.24953370  1
  Si  Si69  1  0.50046910  0.28243845  0.24947712  1
  Si  Si70  1  0.64473191  0.28831443  0.75252238  1
  Si  Si71  1  0.00319270  0.72150076  0.74974279  1
  Si  Si72  1  0.49559277  0.70341064  0.75212535  1
  Si  Si73  1  0.35247148  0.00452932  0.75226806  1
  Si  Si74  1  0.86062160  0.00406788  0.75015937  1
  Si  Si75  1  0.47653103  0.33362020  0.58213985  1
  Si  Si76  1  0.97868055  0.32776882  0.58079257  1
  Si  Si77  1  0.18910880  0.05220863  0.58362659  1
  Si  Si78  1  0.68991116  0.04707360  0.58153666  1
  Si  Si79  1  0.33192504  0.61235027  0.58394757  1
  Si  Si80  1  0.83498900  0.62281443  0.58083915  1
  Si  Si81  1  0.48356356  0.63480156  0.08292345  1
  Si  Si82  1  0.98365506  0.63488211  0.08270194  1
  Si  Si83  1  0.33149718  0.03768461  0.08436342  1
  Si  Si84  1  0.83152618  0.03692728  0.08486819  1
  Si  Si85  1  0.18463107  0.33077616  0.08431068  1
  Si  Si86  1  0.68454216  0.33074105  0.08443548  1
  Si  Si87  1  0.31178794  0.67132244  0.91784170  1
  Si  Si88  1  0.81235969  0.66940461  0.91967030  1
  Si  Si89  1  0.02303894  0.37330113  0.91903351  1
  Si  Si90  1  0.52266466  0.37428459  0.91898466  1
  Si  Si91  1  0.16399481  0.95764661  0.91956108  1
  Si  Si92  1  0.66377704  0.95542183  0.91970751  1
  Si  Si93  1  0.31283448  0.96273018  0.41522706  1
  Si  Si94  1  0.81328856  0.96332307  0.41525209  1
  Si  Si95  1  0.16609292  0.36601685  0.41789162  1
  Si  Si96  1  0.66639753  0.36515784  0.41672557  1
  Si  Si97  1  0.01915916  0.66888648  0.41500781  1
  Si  Si98  1  0.51888644  0.66876257  0.41513604  1
  S  S99  1  0.14444431  0.00018067  0.24991549  1
  S  S100  1  0.64457089  0.00036680  0.25006805  1
  S  S101  1  0.14444873  0.28827489  0.75065975  1
  O  O102  1  0.10627601  0.02215734  0.30527804  1
  O  O103  1  0.60639466  0.02205936  0.30545563  1
  O  O104  1  0.41283932  0.79277870  0.31226591  1
  O  O105  1  0.91288086  0.79364657  0.31229762  1
  O  O106  1  0.48143825  0.16730832  0.31010152  1
  O  O107  1  0.98096414  0.16674341  0.31004355  1
  O  O108  1  0.10417563  0.19003571  0.80598662  1
  O  O109  1  0.60308608  0.16885851  0.81083218  1
  O  O110  1  0.48253647  0.79411259  0.81081024  1
  O  O111  1  0.98260171  0.79620511  0.81010348  1
  O  O112  1  0.41349354  0.03708081  0.81059722  1
  O  O113  1  0.91208689  0.02906038  0.81236142  1
  O  O114  1  0.40080856  0.97287138  0.69240720  1
  O  O115  1  0.89825033  0.96352126  0.68992342  1
  O  O116  1  0.09450951  0.21106845  0.69505310  1
  O  O117  1  0.58476589  0.19908647  0.69187626  1
  O  O118  1  0.01527338  0.82431841  0.68761374  1
  O  O119  1  0.51460870  0.83035119  0.69229919  1
  O  O120  1  0.39764755  0.83269222  0.18997730  1
  O  O121  1  0.89745675  0.83246235  0.18986931  1
  O  O122  1  0.01628192  0.20650043  0.18782245  1
  O  O123  1  0.51657884  0.20664088  0.18785375  1
  O  O124  1  0.09497094  0.97796034  0.19444102  1
  O  O125  1  0.59500260  0.97798700  0.19459733  1
  O  O126  1  0.44282175  0.37920756  0.64322809  1
  O  O127  1  0.93104316  0.36510793  0.63869373  1
  O  O128  1  0.25501227  0.13004624  0.63988064  1
  O  O129  1  0.74908348  0.13424934  0.64203159  1
  O  O130  1  0.31391089  0.49871636  0.64463996  1
  O  O131  1  0.81644221  0.50013933  0.64123291  1
  O  O132  1  0.43247324  0.50046679  0.13953057  1
  O  O133  1  0.93244451  0.50066262  0.13932256  1
  O  O134  1  0.31807744  0.13478669  0.14280693  1
  O  O135  1  0.81804206  0.13485297  0.14292107  1
  O  O136  1  0.25244361  0.35996387  0.13955230  1
  O  O137  1  0.75254771  0.36014348  0.13950604  1
  O  O138  1  0.23309282  0.30258702  0.02426372  1
  O  O139  1  0.73338234  0.30284808  0.02437177  1
  O  O140  1  0.41841094  0.53745673  0.02463001  1
  O  O141  1  0.91831305  0.53708375  0.02439550  1
  O  O142  1  0.34659787  0.16721413  0.02569186  1
  O  O143  1  0.84651635  0.16610886  0.02595419  1
  O  O144  1  0.22734300  0.16367446  0.52187599  1
  O  O145  1  0.72880849  0.16503912  0.52244822  1
  O  O146  1  0.35505904  0.54045155  0.52411342  1
  O  O147  1  0.85073955  0.53546799  0.52218451  1
  O  O148  1  0.41720939  0.29144995  0.52270268  1
  O  O149  1  0.91793511  0.28949445  0.52212103  1
  O  O150  1  0.26891568  0.70460054  0.97670114  1
  O  O151  1  0.76891164  0.70307092  0.97760375  1
  O  O152  1  0.08178429  0.45697874  0.97855470  1
  O  O153  1  0.58284726  0.46101495  0.97737840  1
  O  O154  1  0.14465978  0.83562277  0.97770326  1
  O  O155  1  0.64804209  0.83554721  0.97774098  1
  O  O156  1  0.26392648  0.83493186  0.47421679  1
  O  O157  1  0.76351381  0.83430017  0.47409796  1
  O  O158  1  0.14984101  0.46344758  0.47588264  1
  O  O159  1  0.65044783  0.46256997  0.47520005  1
  O  O160  1  0.08136197  0.69610957  0.47511591  1
  O  O161  1  0.58118968  0.69649151  0.47577491  1
  O  O162  1  0.07212972  0.63932357  0.36002830  1
  O  O163  1  0.57262749  0.64035736  0.36050293  1
  O  O164  1  0.25078806  0.86488542  0.35697031  1
  O  O165  1  0.75052618  0.86533925  0.35733054  1
  O  O166  1  0.18181078  0.49928588  0.36073528  1
  O  O167  1  0.68185094  0.49934152  0.36034725  1
  O  O168  1  0.06972803  0.50519938  0.86121500  1
  O  O169  1  0.56827041  0.50089491  0.85887295  1
  O  O170  1  0.18368196  0.86399789  0.86114185  1
  O  O171  1  0.68210345  0.86636374  0.85904879  1
  O  O172  1  0.24916430  0.63187334  0.85770322  1
  O  O173  1  0.75096232  0.63583299  0.85859631  1
  O  O174  1  0.01606362  0.84483662  0.41109649  1
  O  O175  1  0.51637716  0.84538602  0.41149993  1
  O  O176  1  0.40503596  0.97207046  0.41521970  1
  O  O177  1  0.90508738  0.97214618  0.41543154  1
  O  O178  1  0.08014495  0.18311832  0.41023300  1
  O  O179  1  0.58002244  0.18270175  0.41031282  1
  O  O180  1  0.01219646  0.18505817  0.91025982  1
  O  O181  1  0.51052225  0.18516150  0.91134310  1
  O  O182  1  0.08304088  0.98476641  0.90840500  1
  O  O183  1  0.58150502  0.97937667  0.91223336  1
  O  O184  1  0.40690189  0.83569098  0.91150008  1
  O  O185  1  0.90742529  0.83424539  0.91400534  1
  O  O186  1  0.48951393  0.16420464  0.58873379  1
  O  O187  1  0.99226811  0.16575681  0.59168244  1
  O  O188  1  0.09300355  0.02547152  0.58984016  1
  O  O189  1  0.59313133  0.02071154  0.58940084  1
  O  O190  1  0.41647650  0.81050538  0.59033270  1
  O  O191  1  0.91726956  0.81372504  0.58600208  1
  O  O192  1  0.48855470  0.81723617  0.09009650  1
  O  O193  1  0.98833459  0.81702676  0.08989075  1
  O  O194  1  0.41888038  0.02823321  0.08476537  1
  O  O195  1  0.91901916  0.02816963  0.08481523  1
  O  O196  1  0.09359139  0.15523471  0.08854797  1
  O  O197  1  0.59363770  0.15519028  0.08852541  1
  O  O198  1  0.34579726  0.17556482  0.74400096  1
  O  O199  1  0.84188918  0.16582507  0.74468600  1
  O  O200  1  0.23255408  0.31394085  0.74780501  1
  O  O201  1  0.74061453  0.31300489  0.74514929  1
  O  O202  1  0.41164554  0.51557835  0.74511086  1
  O  O203  1  0.91514114  0.52685434  0.74384246  1
  O  O204  1  0.34325024  0.51950945  0.24381589  1
  O  O205  1  0.84318200  0.51965885  0.24383853  1
  O  O206  1  0.41222181  0.29938166  0.24382046  1
  O  O207  1  0.91227028  0.29984059  0.24372715  1
  O  O208  1  0.23378504  0.15351996  0.24611669  1
  O  O209  1  0.73383821  0.15343234  0.24629190  1
  O  O210  1  0.31867334  0.49407317  0.92148373  1
  O  O211  1  0.81878953  0.49279174  0.92074796  1
  O  O212  1  0.42815935  0.36278551  0.92161691  1
  O  O213  1  0.92794693  0.35964962  0.92180003  1
  O  O214  1  0.25297465  0.14479589  0.92140965  1
  O  O215  1  0.75319971  0.14420989  0.92134545  1
  O  O216  1  0.31921972  0.14756442  0.41985208  1
  O  O217  1  0.81880156  0.14731560  0.42030600  1
  O  O218  1  0.25405298  0.36162054  0.42091700  1
  O  O219  1  0.75388372  0.35967384  0.42009197  1
  O  O220  1  0.42759503  0.49561454  0.41987395  1
  O  O221  1  0.92770629  0.49539608  0.41972535  1
  O  O222  1  0.18037490  0.50485922  0.08021893  1
  O  O223  1  0.68026296  0.50468373  0.08013128  1
  O  O224  1  0.07379267  0.63989389  0.07947101  1
  O  O225  1  0.57375415  0.63985536  0.07967401  1
  O  O226  1  0.24546091  0.85297614  0.07947731  1
  O  O227  1  0.74555285  0.85250592  0.08007868  1
  O  O228  1  0.17791110  0.85479416  0.57680059  1
  O  O229  1  0.67949969  0.85407517  0.57907453  1
  O  O230  1  0.24875570  0.64274844  0.57779933  1
  O  O231  1  0.74714551  0.63881086  0.57813797  1
  O  O232  1  0.07227146  0.50559480  0.57893717  1
  O  O233  1  0.57420036  0.50190031  0.57669960  1
  O  O234  1  0.15723175  0.84673166  0.25359206  1
  O  O235  1  0.65722967  0.84665569  0.25374700  1
  O  O236  1  0.26236764  0.70012649  0.25630174  1
  O  O237  1  0.76236976  0.70040530  0.25642830  1
  O  O238  1  0.08327181  0.48002834  0.25612110  1
  O  O239  1  0.58318981  0.48013545  0.25632371  1
  O  O240  1  0.15476835  0.46603922  0.75418611  1
  O  O241  1  0.65389565  0.47959990  0.75393600  1
  O  O242  1  0.08486882  0.68797013  0.75606073  1
  O  O243  1  0.58461187  0.69107131  0.75422958  1
  O  O244  1  0.26135656  0.82033152  0.75443737  1
  O  O245  1  0.76120450  0.83140239  0.75557744  1
