# generated using pymatgen
data_NaMg3Ta(SO4)6
_symmetry_space_group_name_H-M   'P 1'
_cell_length_a   8.70077330
_cell_length_b   8.70077302
_cell_length_c   22.55711334
_cell_angle_alpha   90.00000000
_cell_angle_beta   90.00000000
_cell_angle_gamma   120.00000105
_symmetry_Int_Tables_number   1
_chemical_formula_structural   NaMg3Ta(SO4)6
_chemical_formula_sum   'Na3 Mg9 Ta3 S18 O72'
_cell_volume   1478.86946292
_cell_formula_units_Z   3
loop_
 _symmetry_equiv_pos_site_id
 _symmetry_equiv_pos_as_xyz
  1  'x, y, z'
loop_
 _atom_site_type_symbol
 _atom_site_label
 _atom_site_symmetry_multiplicity
 _atom_site_fract_x
 _atom_site_fract_y
 _atom_site_fract_z
 _atom_site_occupancy
  Na  Na0  1  0.00000000  0.00000000  0.00288496  1
  Na  Na1  1  0.66666700  0.33333300  0.83582493  1
  Na  Na2  1  0.66666700  0.33333300  0.32560756  1
  Mg  Mg3  1  0.00000000  0.00000000  0.34670820  1
  Mg  Mg4  1  0.00000000  0.00000000  0.85561248  1
  Mg  Mg5  1  0.00000000  0.00000000  0.15610925  1
  Mg  Mg6  1  0.66666700  0.33333300  0.68548773  1
  Mg  Mg7  1  0.66666700  0.33333300  0.19037987  1
  Mg  Mg8  1  0.66666700  0.33333300  0.98297687  1
  Mg  Mg9  1  0.66666700  0.33333300  0.47888842  1
  Mg  Mg10  1  0.33333300  0.66666700  0.30359720  1
  Mg  Mg11  1  0.33333300  0.66666700  0.81268007  1
  Ta  Ta12  1  0.00000000  0.00000000  0.64721440  1
  Ta  Ta13  1  0.33333300  0.66666700  0.02487923  1
  Ta  Ta14  1  0.33333300  0.66666700  0.51490023  1
  S  S15  1  0.29325614  0.00197241  0.25077116  1
  S  S16  1  0.70871627  0.70674386  0.25077116  1
  S  S17  1  0.99802759  0.29128373  0.25077116  1
  S  S18  1  0.29333749  0.29167153  0.75210311  1
  S  S19  1  0.99833404  0.70666251  0.75210311  1
  S  S20  1  0.70832847  0.00166596  0.75210311  1
  S  S21  1  0.95583471  0.33560927  0.58367101  1
  S  S22  1  0.37977556  0.04416529  0.58367101  1
  S  S23  1  0.66439073  0.62022444  0.58367101  1
  S  S24  1  0.94979961  0.62527508  0.08285488  1
  S  S25  1  0.67547647  0.05020039  0.08285488  1
  S  S26  1  0.37472492  0.32452353  0.08285488  1
  S  S27  1  0.62287038  0.66475368  0.91557271  1
  S  S28  1  0.04188231  0.37712962  0.91557271  1
  S  S29  1  0.33524632  0.95811769  0.91557271  1
  S  S30  1  0.62857696  0.96258322  0.41312291  1
  S  S31  1  0.33400526  0.37142304  0.41312291  1
  S  S32  1  0.03741678  0.66599474  0.41312291  1
  O  O33  1  0.21403264  0.03376285  0.30433865  1
  O  O34  1  0.81973021  0.78596736  0.30433865  1
  O  O35  1  0.96623715  0.18026979  0.30433865  1
  O  O36  1  0.20776901  0.17584944  0.80277144  1
  O  O37  1  0.96808043  0.79223099  0.80277144  1
  O  O38  1  0.82415056  0.03191957  0.80277144  1
  O  O39  1  0.80362627  0.97897729  0.69609326  1
  O  O40  1  0.17535103  0.19637373  0.69609326  1
  O  O41  1  0.02102271  0.82464897  0.69609326  1
  O  O42  1  0.78831163  0.81331094  0.19680020  1
  O  O43  1  0.02499931  0.21168837  0.19680020  1
  O  O44  1  0.18668906  0.97500069  0.19680020  1
  O  O45  1  0.88099189  0.36531962  0.63695923  1
  O  O46  1  0.48432873  0.11900811  0.63695923  1
  O  O47  1  0.63468038  0.51567127  0.63695923  1
  O  O48  1  0.88210305  0.51524904  0.13488927  1
  O  O49  1  0.63314700  0.11789695  0.13488927  1
  O  O50  1  0.48475096  0.36685300  0.13488927  1
  O  O51  1  0.45426807  0.30436206  0.02833441  1
  O  O52  1  0.85009500  0.54573193  0.02833441  1
  O  O53  1  0.69563794  0.14990500  0.02833441  1
  O  O54  1  0.45092165  0.15233672  0.53078392  1
  O  O55  1  0.70141607  0.54907835  0.53078392  1
  O  O56  1  0.84766328  0.29858393  0.53078392  1
  O  O57  1  0.53264499  0.68975241  0.96998898  1
  O  O58  1  0.15710642  0.46735501  0.96998898  1
  O  O59  1  0.31024759  0.84289358  0.96998898  1
  O  O60  1  0.52996959  0.84190962  0.47152490  1
  O  O61  1  0.31193903  0.47003041  0.47152490  1
  O  O62  1  0.15809038  0.68806097  0.47152490  1
  O  O63  1  0.12712019  0.63529234  0.36469587  1
  O  O64  1  0.50817115  0.87287981  0.36469587  1
  O  O65  1  0.36470766  0.49182885  0.36469587  1
  O  O66  1  0.12471935  0.48534928  0.86288866  1
  O  O67  1  0.36062894  0.87528065  0.86288866  1
  O  O68  1  0.51465072  0.63937106  0.86288866  1
  O  O69  1  0.02962757  0.82768798  0.41248242  1
  O  O70  1  0.79806041  0.97037243  0.41248242  1
  O  O71  1  0.17231202  0.20193959  0.41248242  1
  O  O72  1  0.02980539  0.20195970  0.91253574  1
  O  O73  1  0.17215430  0.97019461  0.91253574  1
  O  O74  1  0.79804030  0.82784570  0.91253574  1
  O  O75  1  0.98084801  0.17527983  0.59411271  1
  O  O76  1  0.19443182  0.01915199  0.59411271  1
  O  O77  1  0.82472017  0.80556818  0.59411271  1
  O  O78  1  0.98414850  0.80729900  0.08839894  1
  O  O79  1  0.82315050  0.01585150  0.08839894  1
  O  O80  1  0.19270100  0.17684950  0.08839894  1
  O  O81  1  0.69414628  0.16056675  0.74153600  1
  O  O82  1  0.46642147  0.30585372  0.74153600  1
  O  O83  1  0.83943325  0.53357853  0.74153600  1
  O  O84  1  0.69055045  0.52824463  0.24419993  1
  O  O85  1  0.83769518  0.30944955  0.24419993  1
  O  O86  1  0.47175537  0.16230482  0.24419993  1
  O  O87  1  0.64055680  0.50680524  0.92376736  1
  O  O88  1  0.86624944  0.35944320  0.92376736  1
  O  O89  1  0.49319476  0.13375056  0.92376736  1
  O  O90  1  0.63938104  0.13244678  0.42608462  1
  O  O91  1  0.49306674  0.36061896  0.42608462  1
  O  O92  1  0.86755322  0.50693326  0.42608462  1
  O  O93  1  0.35592586  0.49402274  0.07139514  1
  O  O94  1  0.13809588  0.64407414  0.07139514  1
  O  O95  1  0.50597726  0.86190412  0.07139514  1
  O  O96  1  0.35083747  0.86106433  0.57473688  1
  O  O97  1  0.51022586  0.64916253  0.57473688  1
  O  O98  1  0.13893567  0.48977414  0.57473688  1
  O  O99  1  0.30989205  0.84437021  0.25857063  1
  O  O100  1  0.53447716  0.69010795  0.25857063  1
  O  O101  1  0.15562979  0.46552284  0.25857063  1
  O  O102  1  0.30266111  0.46232722  0.75498658  1
  O  O103  1  0.15966512  0.69733889  0.75498658  1
  O  O104  1  0.53767278  0.84033488  0.75498658  1
