# generated using pymatgen
data_Na8Ga2Si5Ge2SO24
_symmetry_space_group_name_H-M   'P 1'
_cell_length_a   8.87879044
_cell_length_b   8.87011337
_cell_length_c   21.73284313
_cell_angle_alpha   90.43464131
_cell_angle_beta   88.87203266
_cell_angle_gamma   120.19260956
_symmetry_Int_Tables_number   1
_chemical_formula_structural   Na8Ga2Si5Ge2SO24
_chemical_formula_sum   'Na24 Ga6 Si15 Ge6 S3 O72'
_cell_volume   1479.10242706
_cell_formula_units_Z   3
loop_
 _symmetry_equiv_pos_site_id
 _symmetry_equiv_pos_as_xyz
  1  'x, y, z'
loop_
 _atom_site_type_symbol
 _atom_site_label
 _atom_site_symmetry_multiplicity
 _atom_site_fract_x
 _atom_site_fract_y
 _atom_site_fract_z
 _atom_site_occupancy
  Na  Na0  1  0.63917338  0.00209794  0.25124207  1
  Na  Na1  1  0.36038430  0.36271995  0.24864077  1
  Na  Na2  1  0.99991228  0.63678584  0.24985492  1
  Na  Na3  1  0.63518044  0.63467240  0.74815382  1
  Na  Na4  1  0.99733457  0.36405939  0.74966807  1
  Na  Na5  1  0.36766356  0.00424723  0.74978441  1
  Na  Na6  1  0.29902283  0.33646641  0.58503698  1
  Na  Na7  1  0.03811655  0.70213601  0.58315840  1
  Na  Na8  1  0.66480757  0.96111196  0.58328797  1
  Na  Na9  1  0.29028693  0.96450990  0.08178730  1
  Na  Na10  1  0.66888688  0.69579673  0.08556359  1
  Na  Na11  1  0.04164932  0.33595093  0.08554115  1
  Na  Na12  1  0.97137655  0.66769305  0.91644945  1
  Na  Na13  1  0.70304830  0.04029657  0.91213032  1
  Na  Na14  1  0.32522884  0.28885091  0.91786908  1
  Na  Na15  1  0.96257236  0.29622361  0.41396894  1
  Na  Na16  1  0.32972031  0.02688008  0.41648469  1
  Na  Na17  1  0.70799016  0.67501336  0.41786065  1
  Na  Na18  1  0.99460184  0.99360431  0.50031447  1
  Na  Na19  1  0.01220350  0.00458074  0.99994646  1
  Na  Na20  1  0.66681189  0.32829026  0.83232420  1
  Na  Na21  1  0.67047247  0.33242909  0.33305827  1
  Na  Na22  1  0.32823273  0.66040818  0.16641064  1
  Na  Na23  1  0.33448571  0.66706299  0.66465391  1
  Ga  Ga24  1  0.98860708  0.98865942  0.34759843  1
  Ga  Ga25  1  0.01202111  0.01021460  0.84792931  1
  Ga  Ga26  1  0.01294717  0.99972731  0.15224373  1
  Ga  Ga27  1  0.66536141  0.33162490  0.98149385  1
  Ga  Ga28  1  0.30487588  0.64811887  0.01827808  1
  Ga  Ga29  1  0.33675361  0.68174622  0.52269571  1
  Si  Si30  1  0.29469201  0.00447365  0.25016454  1
  Si  Si31  1  0.70507270  0.71037500  0.24986829  1
  Si  Si32  1  0.99949218  0.29219791  0.25006637  1
  Si  Si33  1  0.29368074  0.29371733  0.74889384  1
  Si  Si34  1  0.99467342  0.71125326  0.74961205  1
  Si  Si35  1  0.71022049  0.99993078  0.75089992  1
  Si  Si36  1  0.95830584  0.33124807  0.58520216  1
  Si  Si37  1  0.38042671  0.05147930  0.58460595  1
  Si  Si38  1  0.66705247  0.62017148  0.58376680  1
  Si  Si39  1  0.95236069  0.62422414  0.08301675  1
  Si  Si40  1  0.37741931  0.33493397  0.08296356  1
  Si  Si41  1  0.04007079  0.37123103  0.91560220  1
  Si  Si42  1  0.33299973  0.95573147  0.91745412  1
  Si  Si43  1  0.62363800  0.95736518  0.41738732  1
  Si  Si44  1  0.04252858  0.66737847  0.41838289  1
  Ge  Ge45  1  0.99954948  0.99975885  0.64708714  1
  Ge  Ge46  1  0.66691892  0.33447964  0.68629333  1
  Ge  Ge47  1  0.66946942  0.34997432  0.18906988  1
  Ge  Ge48  1  0.68213027  0.33083455  0.48571104  1
  Ge  Ge49  1  0.32812894  0.67939976  0.31106094  1
  Ge  Ge50  1  0.31908518  0.67225468  0.80925851  1
  S  S51  1  0.66706077  0.04168879  0.08341133  1
  S  S52  1  0.62163558  0.66710604  0.91630925  1
  S  S53  1  0.33374902  0.37749384  0.41691143  1
  O  O54  1  0.21665742  0.05004345  0.31129389  1
  O  O55  1  0.82623064  0.77946827  0.31002454  1
  O  O56  1  0.95878401  0.17164690  0.31111539  1
  O  O57  1  0.22203400  0.17388022  0.81003259  1
  O  O58  1  0.95289950  0.78799575  0.81140882  1
  O  O59  1  0.82937740  0.03985931  0.81098834  1
  O  O60  1  0.79438737  0.95611931  0.68951698  1
  O  O61  1  0.16376151  0.20890344  0.68958868  1
  O  O62  1  0.04182706  0.83958523  0.68911474  1
  O  O63  1  0.78309933  0.83341893  0.18910101  1
  O  O64  1  0.04095416  0.21212471  0.18878032  1
  O  O65  1  0.17374420  0.95239721  0.19014686  1
  O  O66  1  0.86931414  0.37429416  0.64411651  1
  O  O67  1  0.50681390  0.13602087  0.64382446  1
  O  O68  1  0.62881469  0.49542805  0.64391202  1
  O  O69  1  0.86597893  0.49162357  0.14361959  1
  O  O70  1  0.63217578  0.11975669  0.13911138  1
  O  O71  1  0.50320014  0.37010559  0.14378468  1
  O  O72  1  0.46014713  0.29159665  0.02249071  1
  O  O73  1  0.83289944  0.53847335  0.02267819  1
  O  O74  1  0.69985882  0.15133744  0.02736774  1
  O  O75  1  0.46580972  0.17735843  0.52232232  1
  O  O76  1  0.70762091  0.53322320  0.52174765  1
  O  O77  1  0.83459253  0.28515701  0.52363265  1
  O  O78  1  0.54246913  0.69803581  0.97318616  1
  O  O79  1  0.16330852  0.44640727  0.97575893  1
  O  O80  1  0.30348716  0.83577296  0.97842688  1
  O  O81  1  0.54171828  0.83088773  0.47660054  1
  O  O82  1  0.30301248  0.45461607  0.47241830  1
  O  O83  1  0.16341111  0.70147854  0.47721527  1
  O  O84  1  0.12682377  0.62172283  0.35648714  1
  O  O85  1  0.49660401  0.87066376  0.35640834  1
  O  O86  1  0.36679350  0.48759055  0.36065271  1
  O  O87  1  0.13290657  0.50453082  0.85563212  1
  O  O88  1  0.37502084  0.86767291  0.85590048  1
  O  O89  1  0.51260503  0.63548102  0.86149200  1
  O  O90  1  0.02548421  0.84158284  0.41155037  1
  O  O91  1  0.82002867  0.98479254  0.41149885  1
  O  O92  1  0.17713989  0.20159226  0.41252694  1
  O  O93  1  0.01560820  0.17603548  0.91098127  1
  O  O94  1  0.15603690  0.96823410  0.91235458  1
  O  O95  1  0.79712040  0.82443860  0.91252487  1
  O  O96  1  0.97227647  0.15354200  0.59021933  1
  O  O97  1  0.18550553  0.03214215  0.58920734  1
  O  O98  1  0.84495636  0.81404919  0.58898009  1
  O  O99  1  0.96872626  0.81600556  0.08856941  1
  O  O100  1  0.82410438  0.02644033  0.08727303  1
  O  O101  1  0.18173852  0.16304886  0.08831543  1
  O  O102  1  0.68794447  0.17261485  0.74317301  1
  O  O103  1  0.48795214  0.31347936  0.74220182  1
  O  O104  1  0.82418765  0.51440326  0.74316274  1
  O  O105  1  0.68495110  0.51451462  0.24502059  1
  O  O106  1  0.82349284  0.31143156  0.24272235  1
  O  O107  1  0.49282985  0.17551908  0.24094632  1
  O  O108  1  0.63890425  0.50951589  0.91992628  1
  O  O109  1  0.84992871  0.36017444  0.92149208  1
  O  O110  1  0.50887025  0.15022152  0.92031621  1
  O  O111  1  0.63588607  0.15253688  0.42294097  1
  O  O112  1  0.49305979  0.36087538  0.41971229  1
  O  O113  1  0.84363982  0.48713188  0.42256138  1
  O  O114  1  0.36884463  0.51672786  0.07852276  1
  O  O115  1  0.14757247  0.64448480  0.08229204  1
  O  O116  1  0.51038687  0.86651486  0.07832612  1
  O  O117  1  0.35957726  0.85891712  0.58121763  1
  O  O118  1  0.49415626  0.63755461  0.57818130  1
  O  O119  1  0.14981254  0.50260555  0.57736015  1
  O  O120  1  0.31449832  0.82891285  0.25548687  1
  O  O121  1  0.50725153  0.68331954  0.25937956  1
  O  O122  1  0.17713572  0.48800315  0.25748675  1
  O  O123  1  0.31472112  0.48988433  0.75741757  1
  O  O124  1  0.17210975  0.69256119  0.75322595  1
  O  O125  1  0.51432690  0.82083280  0.75659759  1
