# generated using pymatgen
data_DyFeO3
_symmetry_space_group_name_H-M   'P 1'
_cell_length_a   5.27661581
_cell_length_b   5.61386460
_cell_length_c   7.62092487
_cell_angle_alpha   90.00000000
_cell_angle_beta   90.00000000
_cell_angle_gamma   90.00000000
_symmetry_Int_Tables_number   1
_chemical_formula_structural   DyFeO3
_chemical_formula_sum   'Dy4 Fe4 O12'
_cell_volume   225.74861177
_cell_formula_units_Z   4
loop_
 _symmetry_equiv_pos_site_id
 _symmetry_equiv_pos_as_xyz
  1  'x, y, z'
loop_
 _atom_site_type_symbol
 _atom_site_label
 _atom_site_symmetry_multiplicity
 _atom_site_fract_x
 _atom_site_fract_y
 _atom_site_fract_z
 _atom_site_occupancy
  Dy  Dy0  1  0.01911362  0.92893908  0.75000000  1
  Dy  Dy1  1  0.51911362  0.57106092  0.25000000  1
  Dy  Dy2  1  0.48088638  0.42893908  0.75000000  1
  Dy  Dy3  1  0.98088638  0.07106092  0.25000000  1
  Fe  Fe4  1  0.50000000  0.00000000  0.50000000  1
  Fe  Fe5  1  -0.00000000  0.50000000  0.50000000  1
  Fe  Fe6  1  -0.00000000  0.50000000  0.00000000  1
  Fe  Fe7  1  0.50000000  0.00000000  0.00000000  1
  O  O8  1  0.30982521  0.69315240  0.55914761  1
  O  O9  1  0.80982521  0.80684760  0.44085239  1
  O  O10  1  0.19017479  0.19315240  0.94085239  1
  O  O11  1  0.69017479  0.30684760  0.05914761  1
  O  O12  1  0.69017479  0.30684760  0.44085239  1
  O  O13  1  0.19017479  0.19315240  0.55914761  1
  O  O14  1  0.80982521  0.80684760  0.05914761  1
  O  O15  1  0.30982521  0.69315240  0.94085239  1
  O  O16  1  0.11601417  0.45821053  0.25000000  1
  O  O17  1  0.61601417  0.04178947  0.75000000  1
  O  O18  1  0.38398583  0.95821053  0.25000000  1
  O  O19  1  0.88398583  0.54178947  0.75000000  1
