# generated using pymatgen
data_Na2Nb3AlSi2(PO6)4
_symmetry_space_group_name_H-M   'P 1'
_cell_length_a   8.72746555
_cell_length_b   8.72827223
_cell_length_c   22.60262658
_cell_angle_alpha   90.02965542
_cell_angle_beta   89.97158235
_cell_angle_gamma   119.97691005
_symmetry_Int_Tables_number   1
_chemical_formula_structural   Na2Nb3AlSi2(PO6)4
_chemical_formula_sum   'Na6 Nb9 Al3 Si6 P12 O72'
_cell_volume   1491.44380251
_cell_formula_units_Z   3
loop_
 _symmetry_equiv_pos_site_id
 _symmetry_equiv_pos_as_xyz
  1  'x, y, z'
loop_
 _atom_site_type_symbol
 _atom_site_label
 _atom_site_symmetry_multiplicity
 _atom_site_fract_x
 _atom_site_fract_y
 _atom_site_fract_z
 _atom_site_occupancy
  Na  Na0  1  0.99835692  0.00002823  0.49474877  1
  Na  Na1  1  0.00047587  0.00022819  0.00089372  1
  Na  Na2  1  0.66767941  0.33358438  0.83170752  1
  Na  Na3  1  0.66632602  0.33355641  0.32841765  1
  Na  Na4  1  0.33327953  0.66507021  0.16561665  1
  Na  Na5  1  0.33147206  0.66541222  0.66683906  1
  Nb  Nb6  1  0.00049481  0.99992718  0.85552466  1
  Nb  Nb7  1  0.99949345  0.00221274  0.64458802  1
  Nb  Nb8  1  0.00258057  0.00299954  0.14625516  1
  Nb  Nb9  1  0.66134443  0.33159016  0.97867323  1
  Nb  Nb10  1  0.67035573  0.32915774  0.47767722  1
  Nb  Nb11  1  0.33328896  0.66330536  0.02261160  1
  Nb  Nb12  1  0.33483397  0.66630665  0.52023515  1
  Nb  Nb13  1  0.33729564  0.67145483  0.31005642  1
  Nb  Nb14  1  0.33277938  0.66664828  0.81287865  1
  Al  Al15  1  0.99600120  0.00000633  0.35161191  1
  Al  Al16  1  0.67032136  0.33537277  0.68622489  1
  Al  Al17  1  0.66536440  0.33516442  0.18655176  1
  Si  Si18  1  0.94958599  0.33690000  0.58745932  1
  Si  Si19  1  0.38669347  0.33470053  0.08822578  1
  Si  Si20  1  0.62014093  0.66579659  0.91681810  1
  Si  Si21  1  0.04409716  0.37976136  0.91690351  1
  Si  Si22  1  0.33457776  0.95358847  0.91742375  1
  Si  Si23  1  0.63543977  0.95537703  0.41469633  1
  P  P24  1  0.29089603  0.01100466  0.25241452  1
  P  P25  1  0.72018014  0.70788015  0.25174453  1
  P  P26  1  0.98901793  0.28253563  0.25193163  1
  P  P27  1  0.29900441  0.28984652  0.74838292  1
  P  P28  1  0.99127602  0.70207409  0.74835527  1
  P  P29  1  0.70976377  0.00828036  0.74871012  1
  P  P30  1  0.38643639  0.05153248  0.58605055  1
  P  P31  1  0.66529741  0.61279990  0.58592943  1
  P  P32  1  0.94775080  0.61401614  0.08694165  1
  P  P33  1  0.66561424  0.05184362  0.08694262  1
  P  P34  1  0.32575019  0.37042717  0.41474344  1
  P  P35  1  0.04650815  0.67619092  0.41478811  1
  O  O36  1  0.19788314  0.03004269  0.30631145  1
  O  O37  1  0.83104274  0.80022160  0.30593963  1
  O  O38  1  0.96880047  0.16951033  0.30564071  1
  O  O39  1  0.20689228  0.17521510  0.80343946  1
  O  O40  1  0.97015714  0.79537115  0.80369059  1
  O  O41  1  0.82521272  0.03101917  0.80360285  1
  O  O42  1  0.80050480  0.97407663  0.69459077  1
  O  O43  1  0.17387905  0.19929692  0.69433082  1
  O  O44  1  0.02598996  0.82557851  0.69443733  1
  O  O45  1  0.79735934  0.82651111  0.19558718  1
  O  O46  1  0.02782804  0.20065283  0.19548469  1
  O  O47  1  0.17191704  0.97173415  0.19583834  1
  O  O48  1  0.85816699  0.36514548  0.64327891  1
  O  O49  1  0.49785470  0.13573115  0.64029510  1
  O  O50  1  0.63426382  0.50087994  0.64043140  1
  O  O51  1  0.86516034  0.50118353  0.14085112  1
  O  O52  1  0.64021470  0.13777947  0.14085215  1
  O  O53  1  0.50638369  0.36357124  0.14390207  1
  O  O54  1  0.46686936  0.30145563  0.02654212  1
  O  O55  1  0.84044616  0.53658744  0.02920234  1
  O  O56  1  0.69897749  0.15996365  0.02909240  1
  O  O57  1  0.46321243  0.16182734  0.52875483  1
  O  O58  1  0.69566433  0.53551533  0.52874338  1
  O  O59  1  0.83258593  0.30235924  0.52624690  1
  O  O60  1  0.53411884  0.70224070  0.97473432  1
  O  O61  1  0.16805002  0.46644120  0.97460608  1
  O  O62  1  0.29820615  0.83264229  0.97520554  1
  O  O63  1  0.53167707  0.83420608  0.47338176  1
  O  O64  1  0.30086632  0.46170431  0.47115444  1
  O  O65  1  0.15974179  0.69633988  0.47111798  1
  O  O66  1  0.12924590  0.63429996  0.36124378  1
  O  O67  1  0.49764403  0.86136566  0.35924473  1
  O  O68  1  0.36145526  0.49446315  0.36137020  1
  O  O69  1  0.13464106  0.50021185  0.85802116  1
  O  O70  1  0.36571858  0.86525792  0.85805659  1
  O  O71  1  0.49958861  0.63353918  0.85798861  1
  O  O72  1  0.02925974  0.83859881  0.40728778  1
  O  O73  1  0.82562148  0.97743236  0.40649371  1
  O  O74  1  0.16539786  0.18903551  0.40719144  1
  O  O75  1  0.02657346  0.18721138  0.90745977  1
  O  O76  1  0.16203591  0.97520238  0.90749048  1
  O  O77  1  0.81341004  0.83941235  0.90765995  1
  O  O78  1  0.97527978  0.16147579  0.59164496  1
  O  O79  1  0.19635198  0.02486862  0.59149759  1
  O  O80  1  0.83032723  0.80219161  0.59178474  1
  O  O81  1  0.97054681  0.80307271  0.09199017  1
  O  O82  1  0.82935995  0.02466173  0.09192689  1
  O  O83  1  0.18464977  0.16028344  0.09194516  1
  O  O84  1  0.69011190  0.17031096  0.74102935  1
  O  O85  1  0.47981900  0.30762461  0.73977333  1
  O  O86  1  0.82667611  0.52152233  0.74161827  1
  O  O87  1  0.69463507  0.52359472  0.24279541  1
  O  O88  1  0.83017435  0.30710398  0.24116139  1
  O  O89  1  0.47620921  0.16656620  0.24266322  1
  O  O90  1  0.64405072  0.49572388  0.92346266  1
  O  O91  1  0.85218169  0.35792997  0.92389088  1
  O  O92  1  0.50742500  0.14659919  0.92295194  1
  O  O93  1  0.63989473  0.14578291  0.42374008  1
  O  O94  1  0.49675723  0.36137316  0.42438115  1
  O  O95  1  0.86193855  0.50717815  0.42410184  1
  O  O96  1  0.35720922  0.50484295  0.07828321  1
  O  O97  1  0.13659008  0.64182249  0.07859491  1
  O  O98  1  0.50218447  0.86496534  0.07864771  1
  O  O99  1  0.36078726  0.86347931  0.57659056  1
  O  O100  1  0.50333791  0.64049034  0.57692595  1
  O  O101  1  0.14832551  0.50525254  0.57545846  1
  O  O102  1  0.30420650  0.83609725  0.25767171  1
  O  O103  1  0.52959065  0.69005941  0.25809776  1
  O  O104  1  0.16125204  0.46940170  0.25795033  1
  O  O105  1  0.30914473  0.47136641  0.75420556  1
  O  O106  1  0.16231745  0.69044894  0.75456747  1
  O  O107  1  0.52837209  0.83649353  0.75427881  1
