# generated using pymatgen
data_MgFe2(CoO2)4
_symmetry_space_group_name_H-M   'P 1'
_cell_length_a   6.34364660
_cell_length_b   5.96704640
_cell_length_c   5.96757219
_cell_angle_alpha   59.84890377
_cell_angle_beta   91.13828795
_cell_angle_gamma   119.23407793
_symmetry_Int_Tables_number   1
_chemical_formula_structural   MgFe2(CoO2)4
_chemical_formula_sum   'Mg1 Fe2 Co4 O8'
_cell_volume   162.66405300
_cell_formula_units_Z   1
loop_
 _symmetry_equiv_pos_site_id
 _symmetry_equiv_pos_as_xyz
  1  'x, y, z'
loop_
 _atom_site_type_symbol
 _atom_site_label
 _atom_site_symmetry_multiplicity
 _atom_site_fract_x
 _atom_site_fract_y
 _atom_site_fract_z
 _atom_site_occupancy
  Mg  Mg0  1  0.50000000  0.50000000  0.00000000  1
  Fe  Fe1  1  0.50000000  0.00000000  0.00000000  1
  Fe  Fe2  1  0.50000000  0.50000000  0.50000000  1
  Co  Co3  1  0.50000000  0.00000000  0.50000000  1
  Co  Co4  1  0.04050300  0.18099900  0.14063300  1
  Co  Co5  1  0.95949700  0.81900100  0.85936700  1
  Co  Co6  1  0.00000000  0.50000000  0.50000000  1
  O  O7  1  0.73816000  0.50570100  0.25716400  1
  O  O8  1  0.73827400  0.99552000  0.76745400  1
  O  O9  1  0.72760800  0.48909600  0.76128900  1
  O  O10  1  0.31271900  0.04081100  0.72826700  1
  O  O11  1  0.68728100  0.95918900  0.27173300  1
  O  O12  1  0.27239200  0.51090400  0.23871100  1
  O  O13  1  0.26172600  0.00448000  0.23254600  1
  O  O14  1  0.26184000  0.49429900  0.74283600  1
