# generated using pymatgen
data_Na5Nb2In2Si3(PO8)3
_symmetry_space_group_name_H-M   'P 1'
_cell_length_a   9.05248700
_cell_length_b   9.06487338
_cell_length_c   22.73806828
_cell_angle_alpha   89.87975237
_cell_angle_beta   90.15150395
_cell_angle_gamma   119.73852285
_symmetry_Int_Tables_number   1
_chemical_formula_structural   Na5Nb2In2Si3(PO8)3
_chemical_formula_sum   'Na15 Nb6 In6 Si9 P9 O72'
_cell_volume   1620.13207620
_cell_formula_units_Z   3
loop_
 _symmetry_equiv_pos_site_id
 _symmetry_equiv_pos_as_xyz
  1  'x, y, z'
loop_
 _atom_site_type_symbol
 _atom_site_label
 _atom_site_symmetry_multiplicity
 _atom_site_fract_x
 _atom_site_fract_y
 _atom_site_fract_z
 _atom_site_occupancy
  Na  Na0  1  0.99054000  0.62819515  0.24577507  1
  Na  Na1  1  0.36943587  0.01024978  0.74598864  1
  Na  Na2  1  0.03852909  0.69629975  0.57984908  1
  Na  Na3  1  0.64970236  0.96102629  0.58091728  1
  Na  Na4  1  0.30179536  0.96003156  0.07966815  1
  Na  Na5  1  0.03650169  0.35007575  0.08270472  1
  Na  Na6  1  0.97699606  0.67596370  0.91613634  1
  Na  Na7  1  0.97022050  0.29672781  0.41181235  1
  Na  Na8  1  0.32611756  0.02420305  0.41606260  1
  Na  Na9  1  0.99183921  0.99147991  0.49457045  1
  Na  Na10  1  0.99511175  0.00214742  0.99371921  1
  Na  Na11  1  0.67149679  0.32839487  0.82897973  1
  Na  Na12  1  0.66317520  0.33070684  0.32757666  1
  Na  Na13  1  0.34931356  0.66070199  0.16295061  1
  Na  Na14  1  0.33737538  0.64859514  0.66233330  1
  Nb  Nb15  1  0.99930127  0.00173268  0.64703670  1
  Nb  Nb16  1  0.99802376  0.00043337  0.14670356  1
  Nb  Nb17  1  0.65740678  0.33001162  0.97929781  1
  Nb  Nb18  1  0.66492239  0.33837573  0.47977550  1
  Nb  Nb19  1  0.33427210  0.66652539  0.31322224  1
  Nb  Nb20  1  0.34043225  0.67019099  0.81311580  1
  In  In21  1  0.99063973  0.99547415  0.35029804  1
  In  In22  1  -0.00022434  0.00758060  0.85140490  1
  In  In23  1  0.66917269  0.33543325  0.68545134  1
  In  In24  1  0.66498435  0.33090696  0.18478560  1
  In  In25  1  0.33571160  0.66560651  0.01661747  1
  In  In26  1  0.33766902  0.66689467  0.51726635  1
  Si  Si27  1  0.00033058  0.29507685  0.25191002  1
  Si  Si28  1  0.70942949  0.00295725  0.75135190  1
  Si  Si29  1  0.37133123  0.04234603  0.58503636  1
  Si  Si30  1  0.66338053  0.62331988  0.58559163  1
  Si  Si31  1  0.95658405  0.62696662  0.08402169  1
  Si  Si32  1  0.37576744  0.33655235  0.08537735  1
  Si  Si33  1  0.33478932  0.96286478  0.91774540  1
  Si  Si34  1  0.62880210  0.96110559  0.41848305  1
  Si  Si35  1  0.03818132  0.66674205  0.41791944  1
  P  P36  1  0.29328269  0.00013753  0.25153595  1
  P  P37  1  0.70529823  0.70903507  0.24959351  1
  P  P38  1  0.28904233  0.29348028  0.75064784  1
  P  P39  1  0.00091729  0.70676812  0.75203084  1
  P  P40  1  0.95779592  0.33132668  0.58283105  1
  P  P41  1  0.66848289  0.04346749  0.08311077  1
  P  P42  1  0.62486517  0.66409412  0.91684768  1
  P  P43  1  0.03963066  0.37474625  0.91742864  1
  P  P44  1  0.33713515  0.37846242  0.41625090  1
  O  O45  1  0.21369875  0.01985398  0.30766651  1
  O  O46  1  0.81642188  0.78124796  0.30390608  1
  O  O47  1  0.97965421  0.19397581  0.31140183  1
  O  O48  1  0.21637597  0.18152731  0.80445548  1
  O  O49  1  0.98127076  0.78580789  0.80784111  1
  O  O50  1  0.81666507  0.02564012  0.80808230  1
  O  O51  1  0.80317415  0.97604985  0.69153399  1
  O  O52  1  0.17050965  0.19811526  0.69589187  1
  O  O53  1  0.03111820  0.82809765  0.69687907  1
  O  O54  1  0.80131779  0.82751365  0.19536110  1
  O  O55  1  0.02178990  0.19263674  0.19321953  1
  O  O56  1  0.17189796  0.97014153  0.19653684  1
  O  O57  1  0.88162069  0.36495444  0.63691503  1
  O  O58  1  0.48781561  0.11472274  0.64245596  1
  O  O59  1  0.64576124  0.51851393  0.64272617  1
  O  O60  1  0.88615671  0.51190859  0.14200102  1
  O  O61  1  0.63390583  0.11588625  0.13793279  1
  O  O62  1  0.48215000  0.35735090  0.14234379  1
  O  O63  1  0.46983862  0.29985847  0.02729496  1
  O  O64  1  0.83399743  0.52763883  0.02529108  1
  O  O65  1  0.70011693  0.16447989  0.02895213  1
  O  O66  1  0.47195722  0.16592605  0.52617936  1
  O  O67  1  0.69933547  0.53003461  0.52744761  1
  O  O68  1  0.84049189  0.29992162  0.52709280  1
  O  O69  1  0.54780757  0.69027914  0.97211429  1
  O  O70  1  0.13517413  0.44798502  0.97525795  1
  O  O71  1  0.30049865  0.85108996  0.97616393  1
  O  O72  1  0.55413237  0.86120794  0.47857128  1
  O  O73  1  0.29817685  0.44981909  0.47031335  1
  O  O74  1  0.14654340  0.69492686  0.47671666  1
  O  O75  1  0.13698407  0.63411540  0.35975880  1
  O  O76  1  0.49675921  0.85647726  0.36222804  1
  O  O77  1  0.36215042  0.49401707  0.36134944  1
  O  O78  1  0.13869222  0.49725623  0.86467834  1
  O  O79  1  0.35921815  0.85825965  0.85958659  1
  O  O80  1  0.50782940  0.63998385  0.86208982  1
  O  O81  1  0.02887556  0.83830523  0.41020617  1
  O  O82  1  0.82368636  0.00368995  0.41390654  1
  O  O83  1  0.18866204  0.19710065  0.40926609  1
  O  O84  1  0.01300206  0.19612828  0.91231903  1
  O  O85  1  0.16391732  0.97566451  0.91032612  1
  O  O86  1  0.80699011  0.81017368  0.91070505  1
  O  O87  1  0.96327026  0.16133618  0.58865382  1
  O  O88  1  0.18234052  0.02782212  0.59128594  1
  O  O89  1  0.84653195  0.81515460  0.59069446  1
  O  O90  1  0.97303786  0.81730884  0.09148969  1
  O  O91  1  0.83894491  0.03775307  0.08864050  1
  O  O92  1  0.18455558  0.15364172  0.09080096  1
  O  O93  1  0.66493324  0.15474320  0.74667140  1
  O  O94  1  0.46602652  0.31435001  0.74383365  1
  O  O95  1  0.85046051  0.52829636  0.74496345  1
  O  O96  1  0.68527474  0.53247640  0.24341598  1
  O  O97  1  0.84336075  0.33235214  0.24708922  1
  O  O98  1  0.47106478  0.14978916  0.24478410  1
  O  O99  1  0.63759426  0.49647801  0.92145192  1
  O  O100  1  0.86444082  0.37284220  0.92041746  1
  O  O101  1  0.51208893  0.14882455  0.92330175  1
  O  O102  1  0.63231126  0.14838623  0.42177412  1
  O  O103  1  0.50331230  0.36560494  0.42186968  1
  O  O104  1  0.85462267  0.48658054  0.42252765  1
  O  O105  1  0.33323999  0.48785727  0.07774746  1
  O  O106  1  0.14980262  0.65968800  0.07809784  1
  O  O107  1  0.51508598  0.86661892  0.07546716  1
  O  O108  1  0.33733625  0.84949623  0.57949279  1
  O  O109  1  0.50954036  0.66242737  0.58003630  1
  O  O110  1  0.13463608  0.48492561  0.57557169  1
  O  O111  1  0.29655371  0.82707404  0.25505486  1
  O  O112  1  0.52971612  0.70046260  0.25543697  1
  O  O113  1  0.17878849  0.48704395  0.25599109  1
  O  O114  1  0.29796791  0.46917614  0.75694511  1
  O  O115  1  0.17293628  0.70110371  0.75564161  1
  O  O116  1  0.51524121  0.82142074  0.75748494  1
