# generated using pymatgen
data_Na3ZrGaSi(PO6)2
_symmetry_space_group_name_H-M   'P 1'
_cell_length_a   15.65197672
_cell_length_b   8.95422083
_cell_length_c   8.98751522
_cell_angle_alpha   90.00000000
_cell_angle_beta   124.43582464
_cell_angle_gamma   90.00000000
_symmetry_Int_Tables_number   1
_chemical_formula_structural   Na3ZrGaSi(PO6)2
_chemical_formula_sum   'Na12 Zr4 Ga4 Si4 P8 O48'
_cell_volume   1038.87732784
_cell_formula_units_Z   4
loop_
 _symmetry_equiv_pos_site_id
 _symmetry_equiv_pos_as_xyz
  1  'x, y, z'
loop_
 _atom_site_type_symbol
 _atom_site_label
 _atom_site_symmetry_multiplicity
 _atom_site_fract_x
 _atom_site_fract_y
 _atom_site_fract_z
 _atom_site_occupancy
  Na  Na0  1  0.25008580  0.72255493  0.99125790  1
  Na  Na1  1  0.75008580  0.77744507  0.49125790  1
  Na  Na2  1  0.75008580  0.22255493  0.99125790  1
  Na  Na3  1  0.25008580  0.27744507  0.49125790  1
  Na  Na4  1  0.50371366  0.10771037  0.75825235  1
  Na  Na5  1  0.50371366  0.89228963  0.25825235  1
  Na  Na6  1  0.00371366  0.60771037  0.75825235  1
  Na  Na7  1  0.00371366  0.39228963  0.25825235  1
  Na  Na8  1  0.18747885  0.93240983  0.28068992  1
  Na  Na9  1  0.18747885  0.06759017  0.78068992  1
  Na  Na10  1  0.68747885  0.43240983  0.28068992  1
  Na  Na11  1  0.68747885  0.56759017  0.78068992  1
  Zr  Zr12  1  0.89444714  0.75785485  0.93742872  1
  Zr  Zr13  1  0.89444714  0.24214515  0.43742872  1
  Zr  Zr14  1  0.39444714  0.25785485  0.93742872  1
  Zr  Zr15  1  0.39444714  0.74214515  0.43742872  1
  Ga  Ga16  1  0.10468351  0.73975959  0.55938867  1
  Ga  Ga17  1  0.10468351  0.26024041  0.05938867  1
  Ga  Ga18  1  0.60468351  0.23975959  0.55938867  1
  Ga  Ga19  1  0.60468351  0.76024041  0.05938867  1
  Si  Si20  1  0.64148630  0.90122509  0.74154678  1
  Si  Si21  1  0.64148630  0.09877491  0.24154678  1
  Si  Si22  1  0.14148630  0.40122509  0.74154678  1
  Si  Si23  1  0.14148630  0.59877491  0.24154678  1
  P  P24  1  0.00786410  0.95580889  0.76145601  1
  P  P25  1  0.00786410  0.04419111  0.26145601  1
  P  P26  1  0.50786410  0.45580889  0.76145601  1
  P  P27  1  0.50786410  0.54419111  0.26145601  1
  P  P28  1  0.35057388  0.88671995  0.75986416  1
  P  P29  1  0.35057388  0.11328005  0.25986416  1
  P  P30  1  0.85057388  0.38671995  0.75986416  1
  P  P31  1  0.85057388  0.61328005  0.25986416  1
  O  O32  1  0.14446260  0.58330137  0.73627795  1
  O  O33  1  0.84472598  0.56224914  0.75994407  1
  O  O34  1  0.84472598  0.43775086  0.25994407  1
  O  O35  1  0.14446260  0.41669863  0.23627795  1
  O  O36  1  0.64446260  0.08330137  0.73627795  1
  O  O37  1  0.34472598  0.06224914  0.75994407  1
  O  O38  1  0.34472598  0.93775086  0.25994407  1
  O  O39  1  0.64446260  0.91669863  0.23627795  1
  O  O40  1  0.44599911  0.55820071  0.59389323  1
  O  O41  1  0.57081879  0.55059579  0.93468736  1
  O  O42  1  0.57081879  0.44940421  0.43468736  1
  O  O43  1  0.44599911  0.44179929  0.09389323  1
  O  O44  1  0.94599911  0.05820071  0.59389323  1
  O  O45  1  0.07081879  0.05059579  0.93468736  1
  O  O46  1  0.07081879  0.94940421  0.43468736  1
  O  O47  1  0.94599911  0.94179929  0.09389323  1
  O  O48  1  0.25438485  0.82781644  0.74743310  1
  O  O49  1  0.73953316  0.81927991  0.75361797  1
  O  O50  1  0.73953316  0.18072009  0.25361797  1
  O  O51  1  0.25438485  0.17218356  0.24743310  1
  O  O52  1  0.75438485  0.32781644  0.74743310  1
  O  O53  1  0.23953316  0.31927991  0.75361797  1
  O  O54  1  0.23953316  0.68072009  0.25361797  1
  O  O55  1  0.75438485  0.67218356  0.24743310  1
  O  O56  1  0.34767586  0.85102557  0.58728676  1
  O  O57  1  0.63459170  0.85385151  0.90898107  1
  O  O58  1  0.63459170  0.14614849  0.40898107  1
  O  O59  1  0.34767586  0.14897443  0.08728676  1
  O  O60  1  0.84767586  0.35102557  0.58728676  1
  O  O61  1  0.13459170  0.35385151  0.90898107  1
  O  O62  1  0.13459170  0.64614849  0.40898107  1
  O  O63  1  0.84767586  0.64897443  0.08728676  1
  O  O64  1  0.45049339  0.82821474  0.93087122  1
  O  O65  1  0.53623197  0.83893506  0.55539805  1
  O  O66  1  0.53623197  0.16106494  0.05539805  1
  O  O67  1  0.45049339  0.17178526  0.43087122  1
  O  O68  1  0.95049339  0.32821474  0.93087122  1
  O  O69  1  0.03623197  0.33893506  0.55539805  1
  O  O70  1  0.03623197  0.66106494  0.05539805  1
  O  O71  1  0.95049339  0.67178526  0.43087122  1
  O  O72  1  0.08474836  0.85929412  0.74742475  1
  O  O73  1  0.92600099  0.85214293  0.75429996  1
  O  O74  1  0.92600099  0.14785707  0.25429996  1
  O  O75  1  0.08474836  0.14070588  0.24742475  1
  O  O76  1  0.58474836  0.35929412  0.74742475  1
  O  O77  1  0.42600099  0.35214293  0.75429996  1
  O  O78  1  0.42600099  0.64785707  0.25429996  1
  O  O79  1  0.58474836  0.64070588  0.24742475  1
