# generated using pymatgen
data_Na3HfGaSi2SO12
_symmetry_space_group_name_H-M   'P 1'
_cell_length_a   9.02544895
_cell_length_b   9.02544387
_cell_length_c   22.41860169
_cell_angle_alpha   91.32151319
_cell_angle_beta   88.67851463
_cell_angle_gamma   120.48298364
_symmetry_Int_Tables_number   1
_chemical_formula_structural   Na3HfGaSi2SO12
_chemical_formula_sum   'Na18 Hf6 Ga6 Si12 S6 O72'
_cell_volume   1573.21811675
_cell_formula_units_Z   6
loop_
 _symmetry_equiv_pos_site_id
 _symmetry_equiv_pos_as_xyz
  1  'x, y, z'
loop_
 _atom_site_type_symbol
 _atom_site_label
 _atom_site_symmetry_multiplicity
 _atom_site_fract_x
 _atom_site_fract_y
 _atom_site_fract_z
 _atom_site_occupancy
  Na  Na0  1  0.62814289  0.00237177  0.24380089  1
  Na  Na1  1  0.99871144  0.64359530  0.24562399  1
  Na  Na2  1  0.99762757  0.37185664  0.74380101  1
  Na  Na3  1  0.35640536  0.00128901  0.74562395  1
  Na  Na4  1  0.29480838  0.33570549  0.57713356  1
  Na  Na5  1  0.66538042  0.97692118  0.57895938  1
  Na  Na6  1  0.66429449  0.70519150  0.07713378  1
  Na  Na7  1  0.02307908  0.33461968  0.07895945  1
  Na  Na8  1  0.96147296  0.66903950  0.91046568  1
  Na  Na9  1  0.33204633  0.31025393  0.91229440  1
  Na  Na10  1  0.33095785  0.03852477  0.41046571  1
  Na  Na11  1  0.68974566  0.66795368  0.41229442  1
  Na  Na12  1  0.00429214  0.02098965  0.49492176  1
  Na  Na13  1  0.97900960  0.99570811  0.99492131  1
  Na  Na14  1  0.67096341  0.35432580  0.82825302  1
  Na  Na15  1  0.64567502  0.32903689  0.32825321  1
  Na  Na16  1  0.33763248  0.68765677  0.16158838  1
  Na  Na17  1  0.31234318  0.66236791  0.66158837  1
  Hf  Hf18  1  0.01366701  0.00221927  0.64681083  1
  Hf  Hf19  1  0.99778088  0.98633293  0.14681055  1
  Hf  Hf20  1  0.68033098  0.33555158  0.98014472  1
  Hf  Hf21  1  0.66444794  0.31966910  0.48014483  1
  Hf  Hf22  1  0.34699506  0.66888703  0.31347864  1
  Hf  Hf23  1  0.33111266  0.65300471  0.81347866  1
  Ga  Ga24  1  0.00408376  0.00890233  0.35089290  1
  Ga  Ga25  1  0.99109777  0.99591644  0.85089290  1
  Ga  Ga26  1  0.67074333  0.34222415  0.68422281  1
  Ga  Ga27  1  0.65777583  0.32925667  0.18422292  1
  Ga  Ga28  1  0.33740930  0.67556314  0.01755905  1
  Ga  Ga29  1  0.32443720  0.66259092  0.51755899  1
  Si  Si30  1  0.29450366  0.00648602  0.25255584  1
  Si  Si31  1  0.71118051  0.70107319  0.25137340  1
  Si  Si32  1  0.29892677  0.28881946  0.75137355  1
  Si  Si33  1  0.99351411  0.70549629  0.75255585  1
  Si  Si34  1  0.96116378  0.33981708  0.58588749  1
  Si  Si35  1  0.37783692  0.03440532  0.58470958  1
  Si  Si36  1  0.96559498  0.62216326  0.08470966  1
  Si  Si37  1  0.66018332  0.03883611  0.08588755  1
  Si  Si38  1  0.62783514  0.67315721  0.91922308  1
  Si  Si39  1  0.04450408  0.36774478  0.91804433  1
  Si  Si40  1  0.63225536  0.95549634  0.41804433  1
  Si  Si41  1  0.32684295  0.37216489  0.41922312  1
  S  S42  1  -0.00017082  0.29070857  0.25103189  1
  S  S43  1  0.70929148  0.00017084  0.75103227  1
  S  S44  1  0.66649435  0.62405039  0.58436592  1
  S  S45  1  0.37594891  0.33350603  0.08436599  1
  S  S46  1  0.33316332  0.95738607  0.91770082  1
  S  S47  1  0.04261243  0.66683522  0.41770074  1
  O  O48  1  0.20528841  0.02917282  0.31354245  1
  O  O49  1  0.83229153  0.79277815  0.30966853  1
  O  O50  1  0.97318345  0.18202951  0.30263015  1
  O  O51  1  0.20722189  0.16770855  0.80966849  1
  O  O52  1  0.97082725  0.79471143  0.81354239  1
  O  O53  1  0.81797044  0.02681671  0.80263003  1
  O  O54  1  0.78210186  0.97121486  0.69515325  1
  O  O55  1  0.17380618  0.20608610  0.69276160  1
  O  O56  1  0.02485113  0.82981172  0.69578891  1
  O  O57  1  0.79391338  0.82619304  0.19276190  1
  O  O58  1  0.02878542  0.21789844  0.19515332  1
  O  O59  1  0.17018876  0.97514901  0.19578925  1
  O  O60  1  0.87195554  0.36250374  0.64687569  1
  O  O61  1  0.49896090  0.12610974  0.64300214  1
  O  O62  1  0.63985184  0.51536463  0.63596334  1
  O  O63  1  0.87388988  0.50103901  0.14300216  1
  O  O64  1  0.63749645  0.12804470  0.14687589  1
  O  O65  1  0.48463613  0.36014844  0.13596319  1
  O  O66  1  0.44876806  0.30454560  0.02848596  1
  O  O67  1  0.84047681  0.53941987  0.02609454  1
  O  O68  1  0.69151663  0.16314370  0.02912238  1
  O  O69  1  0.46058007  0.15952307  0.52609465  1
  O  O70  1  0.69545480  0.55123285  0.52848601  1
  O  O71  1  0.83685670  0.30848326  0.52912266  1
  O  O72  1  0.53862380  0.69584300  0.98020971  1
  O  O73  1  0.16562724  0.45944567  0.97633577  1
  O  O74  1  0.30651498  0.84869508  0.96929748  1
  O  O75  1  0.54055439  0.83437287  0.47633569  1
  O  O76  1  0.30415648  0.46137617  0.48020977  1
  O  O77  1  0.15130537  0.69348495  0.46929732  1
  O  O78  1  0.11543356  0.63787910  0.36181983  1
  O  O79  1  0.50714110  0.87275473  0.35942829  1
  O  O80  1  0.35818331  0.49647704  0.36245750  1
  O  O81  1  0.12724590  0.49285958  0.85942811  1
  O  O82  1  0.36212142  0.88456659  0.86181958  1
  O  O83  1  0.50352303  0.64181702  0.86245756  1
  O  O84  1  0.02557789  0.82080268  0.41461022  1
  O  O85  1  0.81821394  0.96726420  0.40880931  1
  O  O86  1  0.16498703  0.17560005  0.41237352  1
  O  O87  1  0.03273567  0.18178615  0.90880921  1
  O  O88  1  0.17919659  0.97442232  0.91461011  1
  O  O89  1  0.82439931  0.83501247  0.91237338  1
  O  O90  1  0.96967589  0.15858053  0.58940904  1
  O  O91  1  0.18862805  0.02092649  0.58812637  1
  O  O92  1  0.81806618  0.80045975  0.59011029  1
  O  O93  1  0.97907346  0.81137196  0.08812649  1
  O  O94  1  0.84141978  0.03032403  0.08940902  1
  O  O95  1  0.19954067  0.18193415  0.09011019  1
  O  O96  1  0.69224491  0.15413481  0.74794362  1
  O  O97  1  0.48487934  0.30059879  0.74214236  1
  O  O98  1  0.83165506  0.50893598  0.74570637  1
  O  O99  1  0.69940112  0.51512088  0.24214240  1
  O  O100  1  0.84586522  0.30775557  0.24794361  1
  O  O101  1  0.49106438  0.16834501  0.24570631  1
  O  O102  1  0.63634439  0.49191235  0.92274318  1
  O  O103  1  0.85529540  0.35426000  0.92145898  1
  O  O104  1  0.48473508  0.13379854  0.92344327  1
  O  O105  1  0.64573970  0.14470383  0.42145907  1
  O  O106  1  0.50808765  0.36365584  0.42274318  1
  O  O107  1  0.86620236  0.51526538  0.42344328  1
  O  O108  1  0.35891025  0.48746604  0.08127696  1
  O  O109  1  0.15154963  0.63393271  0.07547656  1
  O  O110  1  0.49832075  0.84226796  0.07904137  1
  O  O111  1  0.36606723  0.84845028  0.57547660  1
  O  O112  1  0.51253348  0.64109025  0.58127678  1
  O  O113  1  0.15773119  0.50167825  0.57904133  1
  O  O114  1  0.30300998  0.82524656  0.25607769  1
  O  O115  1  0.52196280  0.68759462  0.25479362  1
  O  O116  1  0.15140177  0.46713164  0.25677708  1
  O  O117  1  0.31240597  0.47803746  0.75479356  1
  O  O118  1  0.17475342  0.69698984  0.75607760  1
  O  O119  1  0.53286911  0.84859892  0.75677709  1
