# generated using pymatgen
data_EuI2
_symmetry_space_group_name_H-M   'P 1'
_cell_length_a   7.71293227
_cell_length_b   7.95186674
_cell_length_c   8.25182397
_cell_angle_alpha   90.00000000
_cell_angle_beta   90.00000000
_cell_angle_gamma   98.70105943
_symmetry_Int_Tables_number   1
_chemical_formula_structural   EuI2
_chemical_formula_sum   'Eu4 I8'
_cell_volume   500.27790783
_cell_formula_units_Z   4
loop_
 _symmetry_equiv_pos_site_id
 _symmetry_equiv_pos_as_xyz
  1  'x, y, z'
loop_
 _atom_site_type_symbol
 _atom_site_label
 _atom_site_symmetry_multiplicity
 _atom_site_fract_x
 _atom_site_fract_y
 _atom_site_fract_z
 _atom_site_occupancy
  Eu  Eu0  1  0.78667579  0.19241441  0.94675006  1
  Eu  Eu1  1  0.21332421  0.30758559  0.44675006  1
  Eu  Eu2  1  0.21332421  0.80758559  0.05324994  1
  Eu  Eu3  1  0.78667579  0.69241441  0.55324994  1
  I  I4  1  0.07400504  0.50539032  0.76931533  1
  I  I5  1  0.92599496  0.99460968  0.26931533  1
  I  I6  1  0.92599496  0.49460968  0.23068467  1
  I  I7  1  0.07400504  0.00539032  0.73068467  1
  I  I8  1  0.59328368  0.79048765  0.88575322  1
  I  I9  1  0.40671632  0.70951235  0.38575322  1
  I  I10  1  0.40671632  0.20951235  0.11424678  1
  I  I11  1  0.59328368  0.29048765  0.61424678  1
