# generated using pymatgen
data_La(BH4)3
_symmetry_space_group_name_H-M   'P 1'
_cell_length_a   11.47611500
_cell_length_b   11.47611500
_cell_length_c   11.47611500
_cell_angle_alpha   90.00000000
_cell_angle_beta   90.00000000
_cell_angle_gamma   90.00000000
_symmetry_Int_Tables_number   1
_chemical_formula_structural   La(BH4)3
_chemical_formula_sum   'La8 B24 H96'
_cell_volume   1511.41829464
_cell_formula_units_Z   8
loop_
 _symmetry_equiv_pos_site_id
 _symmetry_equiv_pos_as_xyz
  1  'x, y, z'
loop_
 _atom_site_type_symbol
 _atom_site_label
 _atom_site_symmetry_multiplicity
 _atom_site_fract_x
 _atom_site_fract_y
 _atom_site_fract_z
 _atom_site_occupancy
  La  La0  1  0.78105900  0.71894100  0.28105900  1
  La  La1  1  0.71894100  0.21894100  0.28105900  1
  La  La2  1  0.28105900  0.71894100  0.21894100  1
  La  La3  1  0.21894100  0.21894100  0.21894100  1
  La  La4  1  0.21894100  0.28105900  0.71894100  1
  La  La5  1  0.28105900  0.78105900  0.71894100  1
  La  La6  1  0.78105900  0.78105900  0.78105900  1
  La  La7  1  0.71894100  0.28105900  0.78105900  1
  B  B8  1  0.25382000  0.03181000  0.69076100  1
  B  B9  1  0.24618000  0.96819000  0.19076100  1
  B  B10  1  0.25382000  0.46819000  0.19076100  1
  B  B11  1  0.46819000  0.30923900  0.75382000  1
  B  B12  1  0.80923900  0.74618000  0.53181000  1
  B  B13  1  0.03181000  0.80923900  0.75382000  1
  B  B14  1  0.74618000  0.96819000  0.30923900  1
  B  B15  1  0.03181000  0.69076100  0.25382000  1
  B  B16  1  0.75382000  0.46819000  0.30923900  1
  B  B17  1  0.96819000  0.30923900  0.74618000  1
  B  B18  1  0.24618000  0.53181000  0.69076100  1
  B  B19  1  0.53181000  0.80923900  0.74618000  1
  B  B20  1  0.69076100  0.24618000  0.53181000  1
  B  B21  1  0.96819000  0.19076100  0.24618000  1
  B  B22  1  0.19076100  0.25382000  0.46819000  1
  B  B23  1  0.74618000  0.53181000  0.80923900  1
  B  B24  1  0.19076100  0.24618000  0.96819000  1
  B  B25  1  0.53181000  0.69076100  0.24618000  1
  B  B26  1  0.30923900  0.74618000  0.96819000  1
  B  B27  1  0.30923900  0.75382000  0.46819000  1
  B  B28  1  0.69076100  0.25382000  0.03181000  1
  B  B29  1  0.46819000  0.19076100  0.25382000  1
  B  B30  1  0.80923900  0.75382000  0.03181000  1
  B  B31  1  0.75382000  0.03181000  0.80923900  1
  H  H32  1  0.27177100  0.53434000  0.10823400  1
  H  H33  1  0.33504500  0.10176000  0.69429000  1
  H  H34  1  0.92097600  0.32560000  0.84113900  1
  H  H35  1  0.32560000  0.84113900  0.92097600  1
  H  H36  1  0.82560000  0.65886100  0.07902400  1
  H  H37  1  0.74972800  0.51893300  0.21469200  1
  H  H38  1  0.07902400  0.67440000  0.15886100  1
  H  H39  1  0.72822900  0.46566000  0.89176600  1
  H  H40  1  0.72822900  0.03434000  0.39176600  1
  H  H41  1  0.16495500  0.89824000  0.19429000  1
  H  H42  1  0.92097600  0.17440000  0.34113900  1
  H  H43  1  0.69429000  0.16495500  0.60176000  1
  H  H44  1  0.67440000  0.15886100  0.07902400  1
  H  H45  1  0.07902400  0.82560000  0.65886100  1
  H  H46  1  0.42097600  0.32560000  0.65886100  1
  H  H47  1  0.24972800  0.51893300  0.28530800  1
  H  H48  1  0.28530800  0.25027100  0.01893300  1
  H  H49  1  0.10176000  0.69429000  0.33504500  1
  H  H50  1  0.34113900  0.57902400  0.67440000  1
  H  H51  1  0.78530800  0.24972800  0.98106700  1
  H  H52  1  0.28530800  0.24972800  0.51893300  1
  H  H53  1  0.89176600  0.72822900  0.46566000  1
  H  H54  1  0.39176600  0.72822900  0.03434000  1
  H  H55  1  0.80571000  0.83504500  0.10176000  1
  H  H56  1  0.60176000  0.80571000  0.66495500  1
  H  H57  1  0.75027200  0.01893300  0.21469200  1
  H  H58  1  0.48106700  0.78530800  0.25027100  1
  H  H59  1  0.51893300  0.28530800  0.24972800  1
  H  H60  1  0.15886100  0.07902400  0.67440000  1
  H  H61  1  0.16495500  0.60176000  0.69429000  1
  H  H62  1  0.24972800  0.98106700  0.78530800  1
  H  H63  1  0.15886100  0.42097600  0.17440000  1
  H  H64  1  0.53434000  0.39176600  0.77177100  1
  H  H65  1  0.19429000  0.33504500  0.39824000  1
  H  H66  1  0.25027100  0.48106700  0.78530800  1
  H  H67  1  0.69429000  0.33504500  0.10176000  1
  H  H68  1  0.65886100  0.07902400  0.82560000  1
  H  H69  1  0.83504500  0.10176000  0.80571000  1
  H  H70  1  0.96566000  0.89176600  0.77177100  1
  H  H71  1  0.32560000  0.65886100  0.42097600  1
  H  H72  1  0.77177100  0.53434000  0.39176600  1
  H  H73  1  0.75027200  0.48106700  0.71469200  1
  H  H74  1  0.51893300  0.21469200  0.74972800  1
  H  H75  1  0.57902400  0.67440000  0.34113900  1
  H  H76  1  0.66495500  0.89824000  0.30571000  1
  H  H77  1  0.25027100  0.01893300  0.28530800  1
  H  H78  1  0.53434000  0.10823400  0.27177100  1
  H  H79  1  0.46566000  0.89176600  0.72822900  1
  H  H80  1  0.60823400  0.27177100  0.96566000  1
  H  H81  1  0.71469200  0.74972800  0.98106700  1
  H  H82  1  0.89824000  0.19429000  0.16495500  1
  H  H83  1  0.22822900  0.46566000  0.60823400  1
  H  H84  1  0.66495500  0.60176000  0.80571000  1
  H  H85  1  0.03434000  0.10823400  0.22822900  1
  H  H86  1  0.10176000  0.80571000  0.83504500  1
  H  H87  1  0.84113900  0.92097600  0.32560000  1
  H  H88  1  0.60823400  0.22822900  0.46566000  1
  H  H89  1  0.10823400  0.22822900  0.03434000  1
  H  H90  1  0.77177100  0.96566000  0.89176600  1
  H  H91  1  0.71469200  0.75027200  0.48106700  1
  H  H92  1  0.84113900  0.57902400  0.82560000  1
  H  H93  1  0.39824000  0.19429000  0.33504500  1
  H  H94  1  0.80571000  0.66495500  0.60176000  1
  H  H95  1  0.42097600  0.17440000  0.15886100  1
  H  H96  1  0.96566000  0.60823400  0.27177100  1
  H  H97  1  0.01893300  0.28530800  0.25027100  1
  H  H98  1  0.01893300  0.21469200  0.75027200  1
  H  H99  1  0.19429000  0.16495500  0.89824000  1
  H  H100  1  0.39176600  0.77177100  0.53434000  1
  H  H101  1  0.98106700  0.78530800  0.24972800  1
  H  H102  1  0.74972800  0.98106700  0.71469200  1
  H  H103  1  0.65886100  0.42097600  0.32560000  1
  H  H104  1  0.57902400  0.82560000  0.84113900  1
  H  H105  1  0.30571000  0.66495500  0.89824000  1
  H  H106  1  0.10823400  0.27177100  0.53434000  1
  H  H107  1  0.30571000  0.83504500  0.39824000  1
  H  H108  1  0.82560000  0.84113900  0.57902400  1
  H  H109  1  0.78530800  0.25027100  0.48106700  1
  H  H110  1  0.46566000  0.60823400  0.22822900  1
  H  H111  1  0.21469200  0.75027200  0.01893300  1
  H  H112  1  0.98106700  0.71469200  0.74972800  1
  H  H113  1  0.60176000  0.69429000  0.16495500  1
  H  H114  1  0.22822900  0.03434000  0.10823400  1
  H  H115  1  0.21469200  0.74972800  0.51893300  1
  H  H116  1  0.34113900  0.92097600  0.17440000  1
  H  H117  1  0.39824000  0.30571000  0.83504500  1
  H  H118  1  0.89824000  0.30571000  0.66495500  1
  H  H119  1  0.48106700  0.71469200  0.75027200  1
  H  H120  1  0.27177100  0.96566000  0.60823400  1
  H  H121  1  0.83504500  0.39824000  0.30571000  1
  H  H122  1  0.17440000  0.34113900  0.92097600  1
  H  H123  1  0.67440000  0.34113900  0.57902400  1
  H  H124  1  0.89176600  0.77177100  0.96566000  1
  H  H125  1  0.17440000  0.15886100  0.42097600  1
  H  H126  1  0.33504500  0.39824000  0.19429000  1
  H  H127  1  0.03434000  0.39176600  0.72822900  1
