# generated using pymatgen
data_La(AuF4)3
_symmetry_space_group_name_H-M   'P 1'
_cell_length_a   8.17975479
_cell_length_b   8.17975479
_cell_length_c   8.17975479
_cell_angle_alpha   80.97439993
_cell_angle_beta   80.97439993
_cell_angle_gamma   80.97439867
_symmetry_Int_Tables_number   1
_chemical_formula_structural   La(AuF4)3
_chemical_formula_sum   'La2 Au6 F24'
_cell_volume   528.89449244
_cell_formula_units_Z   2
loop_
 _symmetry_equiv_pos_site_id
 _symmetry_equiv_pos_as_xyz
  1  'x, y, z'
loop_
 _atom_site_type_symbol
 _atom_site_label
 _atom_site_symmetry_multiplicity
 _atom_site_fract_x
 _atom_site_fract_y
 _atom_site_fract_z
 _atom_site_occupancy
  La  La0  1  0.25000000  0.25000000  0.25000000  1
  La  La1  1  0.75000000  0.75000000  0.75000000  1
  Au  Au2  1  0.16265212  0.33734788  0.75000000  1
  Au  Au3  1  0.25000000  0.83734788  0.66265212  1
  Au  Au4  1  0.66265212  0.25000000  0.83734788  1
  Au  Au5  1  0.83734788  0.66265212  0.25000000  1
  Au  Au6  1  0.33734788  0.75000000  0.16265212  1
  Au  Au7  1  0.75000000  0.16265212  0.33734788  1
  F  F8  1  0.50853280  0.19993965  0.37638459  1
  F  F9  1  0.37638459  0.50853280  0.19993965  1
  F  F10  1  0.19993965  0.37638459  0.50853280  1
  F  F11  1  0.99146720  0.12361541  0.30006035  1
  F  F12  1  0.30006035  0.99146720  0.12361541  1
  F  F13  1  0.12361541  0.30006035  0.99146720  1
  F  F14  1  0.49146720  0.80006035  0.62361541  1
  F  F15  1  0.62361541  0.49146720  0.80006035  1
  F  F16  1  0.02162264  0.47837736  0.25000000  1
  F  F17  1  0.47837736  0.25000000  0.02162264  1
  F  F18  1  0.25000000  0.02162264  0.47837736  1
  F  F19  1  0.97837736  0.52162264  0.75000000  1
  F  F20  1  0.52162264  0.75000000  0.97837736  1
  F  F21  1  0.75000000  0.97837736  0.52162264  1
  F  F22  1  0.65699587  0.84300413  0.25000000  1
  F  F23  1  0.84300413  0.25000000  0.65699587  1
  F  F24  1  0.25000000  0.65699587  0.84300413  1
  F  F25  1  0.34300413  0.15699587  0.75000000  1
  F  F26  1  0.15699587  0.75000000  0.34300413  1
  F  F27  1  0.75000000  0.34300413  0.15699587  1
  F  F28  1  0.87638459  0.69993965  0.00853280  1
  F  F29  1  0.69993965  0.00853280  0.87638459  1
  F  F30  1  0.00853280  0.87638459  0.69993965  1
  F  F31  1  0.80006035  0.62361541  0.49146720  1
