# generated using pymatgen
data_Na30Ta20Zn4Si33(SO48)3
_symmetry_space_group_name_H-M   'P 1'
_cell_length_a   18.05611281
_cell_length_b   9.04170243
_cell_length_c   22.53604893
_cell_angle_alpha   90.09751182
_cell_angle_beta   89.91543111
_cell_angle_gamma   120.07199773
_symmetry_Int_Tables_number   1
_chemical_formula_structural   Na30Ta20Zn4Si33(SO48)3
_chemical_formula_sum   'Na30 Ta20 Zn4 Si33 S3 O144'
_cell_volume   3183.95264297
_cell_formula_units_Z   1
loop_
 _symmetry_equiv_pos_site_id
 _symmetry_equiv_pos_as_xyz
  1  'x, y, z'
loop_
 _atom_site_type_symbol
 _atom_site_label
 _atom_site_symmetry_multiplicity
 _atom_site_fract_x
 _atom_site_fract_y
 _atom_site_fract_z
 _atom_site_occupancy
  Na  Na0  1  0.31343417  0.97890795  0.25560909  1
  Na  Na1  1  0.18453040  0.39062312  0.25711951  1
  Na  Na2  1  0.68009011  0.38552183  0.25309401  1
  Na  Na3  1  0.50714744  0.63623797  0.26007913  1
  Na  Na4  1  0.31160742  0.64150883  0.75807208  1
  Na  Na5  1  0.00554866  0.39020813  0.75655007  1
  Na  Na6  1  0.18443771  0.97559737  0.75539388  1
  Na  Na7  1  0.65036149  0.33229529  0.58395235  1
  Na  Na8  1  0.64240145  0.96843810  0.08709141  1
  Na  Na9  1  0.34078618  0.72132170  0.08963878  1
  Na  Na10  1  0.51862303  0.31507159  0.08989732  1
  Na  Na11  1  0.98950504  0.66071294  0.91381240  1
  Na  Na12  1  0.34439843  0.02638144  0.91533316  1
  Na  Na13  1  0.66566608  0.29785195  0.91598780  1
  Na  Na14  1  0.48804412  0.31745243  0.41409783  1
  Na  Na15  1  0.99069202  0.32255522  0.41410063  1
  Na  Na16  1  0.34102942  0.66038228  0.41482483  1
  Na  Na17  1  0.84258551  0.65786957  0.41400047  1
  Na  Na18  1  0.00967685  0.00604021  0.50117419  1
  Na  Na19  1  0.50081451  0.98803351  0.50238962  1
  Na  Na20  1  0.00573218  0.01619786  0.00212796  1
  Na  Na21  1  0.49829058  0.99092306  0.00686305  1
  Na  Na22  1  0.33930212  0.34515671  0.83718671  1
  Na  Na23  1  0.82926025  0.32170545  0.83121337  1
  Na  Na24  1  0.32959403  0.32667951  0.33682620  1
  Na  Na25  1  0.83439659  0.32489762  0.33312400  1
  Na  Na26  1  0.15743658  0.65516958  0.17268496  1
  Na  Na27  1  0.67560589  0.66944802  0.17506767  1
  Na  Na28  1  0.16730078  0.67859542  0.66686241  1
  Na  Na29  1  0.66792793  0.67631101  0.66710458  1
  Ta  Ta30  1  0.99360588  0.99535396  0.35654794  1
  Ta  Ta31  1  0.49517420  0.99707066  0.35497020  1
  Ta  Ta32  1  0.99418134  0.99358259  0.85765176  1
  Ta  Ta33  1  0.49831726  0.99526375  0.85522379  1
  Ta  Ta34  1  0.99386991  0.98746535  0.64099235  1
  Ta  Ta35  1  0.49894210  0.99490067  0.64530135  1
  Ta  Ta36  1  0.99408974  0.99917961  0.14228078  1
  Ta  Ta37  1  0.34076601  0.33557437  0.68461974  1
  Ta  Ta38  1  0.83058545  0.33156508  0.68947407  1
  Ta  Ta39  1  0.33738065  0.33793246  0.18515321  1
  Ta  Ta40  1  0.84035234  0.34502829  0.18698270  1
  Ta  Ta41  1  0.33089820  0.33860941  0.97923275  1
  Ta  Ta42  1  0.83526502  0.32896881  0.97885914  1
  Ta  Ta43  1  0.33138039  0.32983488  0.48156632  1
  Ta  Ta44  1  0.83387053  0.33041771  0.48098080  1
  Ta  Ta45  1  0.16406042  0.66450694  0.02023768  1
  Ta  Ta46  1  0.66939115  0.66698572  0.02207704  1
  Ta  Ta47  1  0.16516394  0.66584802  0.52184492  1
  Ta  Ta48  1  0.66660112  0.67149171  0.51970360  1
  Ta  Ta49  1  0.66540654  0.66413611  0.80997619  1
  Zn  Zn50  1  0.49403333  0.00512899  0.14584805  1
  Zn  Zn51  1  0.16415512  0.65289750  0.32025103  1
  Zn  Zn52  1  0.67003480  0.66160673  0.31955129  1
  Zn  Zn53  1  0.16811513  0.67901674  0.82225640  1
  Si  Si54  1  0.35289926  0.70720793  0.24632015  1
  Si  Si55  1  0.85356447  0.70866677  0.24933616  1
  Si  Si56  1  0.99875926  0.28984584  0.24941013  1
  Si  Si57  1  0.50105763  0.29464553  0.24685444  1
  Si  Si58  1  0.64326166  0.28663611  0.74997885  1
  Si  Si59  1  0.99937117  0.71039792  0.74919476  1
  Si  Si60  1  0.50010665  0.71058380  0.74973974  1
  Si  Si61  1  0.35518530  0.00299786  0.75004673  1
  Si  Si62  1  0.85522571  0.99904040  0.74955406  1
  Si  Si63  1  0.48111377  0.33229231  0.58098804  1
  Si  Si64  1  0.97890760  0.33657193  0.58584008  1
  Si  Si65  1  0.18852085  0.04191680  0.58545989  1
  Si  Si66  1  0.68951300  0.04089925  0.58470928  1
  Si  Si67  1  0.33173133  0.62200043  0.58425776  1
  Si  Si68  1  0.83183562  0.61903105  0.58275891  1
  Si  Si69  1  0.48087904  0.62636795  0.08232486  1
  Si  Si70  1  0.97938427  0.62539925  0.08120926  1
  Si  Si71  1  0.32991194  0.04107321  0.08092130  1
  Si  Si72  1  0.83159056  0.04554919  0.08465778  1
  Si  Si73  1  0.18755368  0.33283076  0.08443292  1
  Si  Si74  1  0.69074004  0.33620440  0.08366831  1
  Si  Si75  1  0.30908333  0.66366499  0.91359431  1
  Si  Si76  1  0.80902187  0.66365457  0.91591230  1
  Si  Si77  1  0.02391006  0.37759870  0.91321052  1
  Si  Si78  1  0.52141899  0.38055048  0.91663406  1
  Si  Si79  1  0.16742771  0.96155688  0.91467448  1
  Si  Si80  1  0.66637732  0.95097224  0.91668847  1
  Si  Si81  1  0.30603681  0.95535023  0.41326155  1
  Si  Si82  1  0.80682568  0.95583627  0.41422136  1
  Si  Si83  1  0.16723202  0.37382962  0.41542967  1
  Si  Si84  1  0.66760595  0.37247856  0.41544446  1
  Si  Si85  1  0.02429226  0.66862192  0.41536545  1
  Si  Si86  1  0.52189738  0.66845650  0.41408438  1
  S  S87  1  0.14164843  0.00174864  0.24806892  1
  S  S88  1  0.64625595  0.00578020  0.24864897  1
  S  S89  1  0.14290029  0.28164820  0.74886008  1
  O  O90  1  0.10095386  0.02531335  0.30217104  1
  O  O91  1  0.60042640  0.02826010  0.30145099  1
  O  O92  1  0.41646099  0.80096229  0.30640084  1
  O  O93  1  0.91299109  0.80188681  0.30938858  1
  O  O94  1  0.48689484  0.16701516  0.30604843  1
  O  O95  1  0.98865579  0.16975431  0.30899254  1
  O  O96  1  0.10278183  0.17683945  0.80302707  1
  O  O97  1  0.59683854  0.16912065  0.80909714  1
  O  O98  1  0.48336068  0.80435134  0.80673850  1
  O  O99  1  0.99014171  0.80928981  0.80899788  1
  O  O100  1  0.41338039  0.02794785  0.81002343  1
  O  O101  1  0.91910244  0.03018660  0.80682605  1
  O  O102  1  0.41024826  0.98805290  0.69410293  1
  O  O103  1  0.90519107  0.97931832  0.69218188  1
  O  O104  1  0.09066983  0.19612970  0.69569113  1
  O  O105  1  0.58729815  0.19626002  0.69011590  1
  O  O106  1  0.01028456  0.83905259  0.69390734  1
  O  O107  1  0.51224061  0.82919539  0.69177921  1
  O  O108  1  0.39809195  0.81351237  0.18772550  1
  O  O109  1  0.91127365  0.82795880  0.19339500  1
  O  O110  1  0.00761348  0.17958234  0.19371801  1
  O  O111  1  0.51840199  0.21582715  0.18836082  1
  O  O112  1  0.09222340  0.98841710  0.19445712  1
  O  O113  1  0.59826969  0.98424275  0.19361610  1
  O  O114  1  0.43244607  0.35904230  0.63943167  1
  O  O115  1  0.93126138  0.36047611  0.64404625  1
  O  O116  1  0.24821323  0.13881055  0.64450421  1
  O  O117  1  0.74904841  0.13626867  0.64274854  1
  O  O118  1  0.32092449  0.50247936  0.64314433  1
  O  O119  1  0.81736680  0.49449477  0.63947558  1
  O  O120  1  0.43421533  0.50128746  0.14222451  1
  O  O121  1  0.93150187  0.50101691  0.13924368  1
  O  O122  1  0.31901361  0.13736129  0.14130869  1
  O  O123  1  0.81586438  0.13897031  0.14109794  1
  O  O124  1  0.24954871  0.36365879  0.14321846  1
  O  O125  1  0.74949918  0.35990395  0.14286174  1
  O  O126  1  0.23592361  0.30917959  0.02731957  1
  O  O127  1  0.74149524  0.31738893  0.02539065  1
  O  O128  1  0.41660183  0.52082852  0.02812331  1
  O  O129  1  0.92063489  0.53546169  0.02220213  1
  O  O130  1  0.34140997  0.16404747  0.02452971  1
  O  O131  1  0.84588078  0.16467152  0.02626965  1
  O  O132  1  0.23819713  0.16582677  0.52905561  1
  O  O133  1  0.73723932  0.16841865  0.52849253  1
  O  O134  1  0.34596395  0.52914717  0.52642388  1
  O  O135  1  0.84618503  0.53298895  0.52377097  1
  O  O136  1  0.42260287  0.30995595  0.52353946  1
  O  O137  1  0.91998545  0.30729325  0.52679151  1
  O  O138  1  0.26369166  0.69923846  0.97175167  1
  O  O139  1  0.76488753  0.69365521  0.97460860  1
  O  O140  1  0.08419033  0.47337380  0.97130913  1
  O  O141  1  0.58349566  0.47032045  0.97503869  1
  O  O142  1  0.14867650  0.82667338  0.96990922  1
  O  O143  1  0.65380691  0.83758871  0.97681897  1
  O  O144  1  0.26247111  0.82593925  0.47003923  1
  O  O145  1  0.76498213  0.82941140  0.47291237  1
  O  O146  1  0.14870516  0.46969128  0.47119583  1
  O  O147  1  0.64958520  0.46410065  0.47366313  1
  O  O148  1  0.08367125  0.69688532  0.47453706  1
  O  O149  1  0.58413634  0.69227147  0.47168144  1
  O  O150  1  0.05704697  0.61007511  0.35924131  1
  O  O151  1  0.55341910  0.61756005  0.35533316  1
  O  O152  1  0.25822307  0.88908916  0.35129772  1
  O  O153  1  0.75305029  0.87972211  0.35605998  1
  O  O154  1  0.19509110  0.48449105  0.35559249  1
  O  O155  1  0.69274999  0.48501986  0.35622802  1
  O  O156  1  0.05514435  0.49033054  0.85369950  1
  O  O157  1  0.57016046  0.50023731  0.85944136  1
  O  O158  1  0.19244298  0.90276549  0.85420661  1
  O  O159  1  0.67995013  0.85649515  0.85962157  1
  O  O160  1  0.25819455  0.63083359  0.85244228  1
  O  O161  1  0.74767160  0.63167247  0.85925381  1
  O  O162  1  0.01000358  0.83592085  0.40926927  1
  O  O163  1  0.50931746  0.83746190  0.40992035  1
  O  O164  1  0.40500708  0.97312538  0.40902950  1
  O  O165  1  0.90515359  0.97310790  0.41099620  1
  O  O166  1  0.07928102  0.18475277  0.40945494  1
  O  O167  1  0.57856416  0.18474836  0.40886527  1
  O  O168  1  0.01329351  0.18593361  0.90884843  1
  O  O169  1  0.51459083  0.19141204  0.91071185  1
  O  O170  1  0.07905665  0.97320567  0.90980047  1
  O  O171  1  0.58312798  0.97883731  0.90956215  1
  O  O172  1  0.40476990  0.84347366  0.91088689  1
  O  O173  1  0.90586141  0.83185745  0.91017657  1
  O  O174  1  0.49270783  0.16537289  0.58787635  1
  O  O175  1  0.99010913  0.16753172  0.59335766  1
  O  O176  1  0.09464837  0.02720757  0.59222272  1
  O  O177  1  0.59636208  0.03085244  0.58933601  1
  O  O178  1  0.41790474  0.81103714  0.59094453  1
  O  O179  1  0.91697630  0.81008802  0.58858533  1
  O  O180  1  0.49199776  0.81223236  0.08550300  1
  O  O181  1  0.99003709  0.81391815  0.09042015  1
  O  O182  1  0.41467653  0.02476066  0.08131515  1
  O  O183  1  0.91568140  0.02263885  0.08978823  1
  O  O184  1  0.09394313  0.16299350  0.09201250  1
  O  O185  1  0.59773920  0.16712610  0.08320038  1
  O  O186  1  0.34414243  0.17502627  0.74438877  1
  O  O187  1  0.85136251  0.17636805  0.74513857  1
  O  O188  1  0.22980589  0.29603728  0.74559556  1
  O  O189  1  0.73821750  0.30441201  0.74449344  1
  O  O190  1  0.40956573  0.52436627  0.74414784  1
  O  O191  1  0.91214786  0.52151482  0.74457534  1
  O  O192  1  0.34591148  0.51268873  0.24555306  1
  O  O193  1  0.84578341  0.51628132  0.24457053  1
  O  O194  1  0.40632466  0.29243831  0.24551861  1
  O  O195  1  0.90919606  0.29580471  0.24312769  1
  O  O196  1  0.22833023  0.16565463  0.24536557  1
  O  O197  1  0.73111947  0.17016256  0.24783743  1
  O  O198  1  0.32548421  0.50357631  0.92565301  1
  O  O199  1  0.82125906  0.49577701  0.92132145  1
  O  O200  1  0.42428450  0.34733630  0.92259798  1
  O  O201  1  0.92809629  0.35643239  0.92557922  1
  O  O202  1  0.25046507  0.15040985  0.92678592  1
  O  O203  1  0.74946050  0.14707191  0.92308435  1
  O  O204  1  0.32978531  0.15450668  0.42530828  1
  O  O205  1  0.83082408  0.15469161  0.42566358  1
  O  O206  1  0.25030410  0.34898804  0.42837941  1
  O  O207  1  0.75079848  0.34894571  0.42802227  1
  O  O208  1  0.42423866  0.50391736  0.42675615  1
  O  O209  1  0.92555157  0.50359283  0.42720624  1
  O  O210  1  0.18409895  0.50932408  0.07644801  1
  O  O211  1  0.68151662  0.50818236  0.07712844  1
  O  O212  1  0.07212606  0.63776097  0.07558316  1
  O  O213  1  0.57271549  0.63103842  0.07785745  1
  O  O214  1  0.24466367  0.85092040  0.07601443  1
  O  O215  1  0.74445674  0.85975099  0.07774699  1
  O  O216  1  0.18066284  0.85604561  0.57720390  1
  O  O217  1  0.67938206  0.85265912  0.57611555  1
  O  O218  1  0.24704799  0.63971739  0.57652683  1
  O  O219  1  0.74513053  0.63194305  0.57655130  1
  O  O220  1  0.07317241  0.50587347  0.57740493  1
  O  O221  1  0.57605731  0.50131218  0.57742378  1
  O  O222  1  0.15509638  0.85529119  0.25082885  1
  O  O223  1  0.65639535  0.85623245  0.25623518  1
  O  O224  1  0.25945716  0.68720048  0.25231034  1
  O  O225  1  0.75985578  0.68313301  0.24889277  1
  O  O226  1  0.08403248  0.47170652  0.25007569  1
  O  O227  1  0.57911167  0.48795969  0.25355570  1
  O  O228  1  0.15281644  0.45189119  0.75187677  1
  O  O229  1  0.65318005  0.47641073  0.75682860  1
  O  O230  1  0.08297553  0.68969609  0.74920393  1
  O  O231  1  0.58305981  0.68691576  0.75615806  1
  O  O232  1  0.26292717  0.83172773  0.74846756  1
  O  O233  1  0.76161525  0.82914512  0.75687246  1
