# generated using pymatgen
data_Ti2FeO5
_symmetry_space_group_name_H-M   'P 1'
_cell_length_a   3.76044486
_cell_length_b   5.20910054
_cell_length_c   10.06962576
_cell_angle_alpha   90.00000246
_cell_angle_beta   89.99999918
_cell_angle_gamma   111.16702862
_symmetry_Int_Tables_number   1
_chemical_formula_structural   Ti2FeO5
_chemical_formula_sum   'Ti4 Fe2 O10'
_cell_volume   183.94116001
_cell_formula_units_Z   2
loop_
 _symmetry_equiv_pos_site_id
 _symmetry_equiv_pos_as_xyz
  1  'x, y, z'
loop_
 _atom_site_type_symbol
 _atom_site_label
 _atom_site_symmetry_multiplicity
 _atom_site_fract_x
 _atom_site_fract_y
 _atom_site_fract_z
 _atom_site_occupancy
  Ti  Ti0  1  0.13561547  0.27121994  0.06668308  1
  Ti  Ti1  1  0.86438541  0.72878132  0.93331756  1
  Ti  Ti2  1  0.86438537  0.72878133  0.56668243  1
  Ti  Ti3  1  0.13561546  0.27121997  0.43331695  1
  Fe  Fe4  1  0.80791658  0.61453803  0.25000003  1
  Fe  Fe5  1  0.19208782  0.38548616  0.74999996  1
  O  O6  1  0.31391504  0.62797161  0.55949630  1
  O  O7  1  0.68607728  0.37202137  0.44049974  1
  O  O8  1  0.68607729  0.37202137  0.05950024  1
  O  O9  1  0.31391505  0.62797162  0.94050371  1
  O  O10  1  0.04667579  0.09335195  0.61355314  1
  O  O11  1  0.95332701  0.90664371  0.38644242  1
  O  O12  1  0.78970641  0.58019251  0.74999998  1
  O  O13  1  0.21028920  0.41980550  0.25000003  1
  O  O14  1  0.95332702  0.90664372  0.11355761  1
  O  O15  1  0.04667581  0.09335189  0.88644681  1
