# generated using pymatgen
data_MgMn4O8
_symmetry_space_group_name_H-M   'P 1'
_cell_length_a   6.22517600
_cell_length_b   6.21886633
_cell_length_c   6.24642463
_cell_angle_alpha   56.48191524
_cell_angle_beta   56.44646217
_cell_angle_gamma   56.60702828
_symmetry_Int_Tables_number   1
_chemical_formula_structural   MgMn4O8
_chemical_formula_sum   'Mg1 Mn4 O8'
_cell_volume   157.20712321
_cell_formula_units_Z   1
loop_
 _symmetry_equiv_pos_site_id
 _symmetry_equiv_pos_as_xyz
  1  'x, y, z'
loop_
 _atom_site_type_symbol
 _atom_site_label
 _atom_site_symmetry_multiplicity
 _atom_site_fract_x
 _atom_site_fract_y
 _atom_site_fract_z
 _atom_site_occupancy
  Mg  Mg0  1  0.00000000  0.00000000  0.00000000  1
  Mn  Mn1  1  0.50000100  0.50000000  0.49999900  1
  Mn  Mn2  1  0.00000000  0.50000100  0.49999900  1
  Mn  Mn3  1  0.50000000  0.50000100  0.00000000  1
  Mn  Mn4  1  0.49999900  0.00000000  0.50000100  1
  O  O5  1  0.29062400  0.75529100  0.75743300  1
  O  O6  1  0.73029300  0.73086900  0.72838400  1
  O  O7  1  0.75573200  0.29020700  0.75738500  1
  O  O8  1  0.75598200  0.75549000  0.29202600  1
  O  O9  1  0.26970600  0.26913300  0.27161500  1
  O  O10  1  0.70937600  0.24470800  0.24256700  1
  O  O11  1  0.24401700  0.24450900  0.70797500  1
  O  O12  1  0.24426700  0.70979300  0.24261600  1
