# generated using pymatgen
data_Sr5As3H
_symmetry_space_group_name_H-M   'P 1'
_cell_length_a   8.96990742
_cell_length_b   8.96990703
_cell_length_c   7.12433142
_cell_angle_alpha   90.00000000
_cell_angle_beta   90.00000000
_cell_angle_gamma   119.99999761
_symmetry_Int_Tables_number   1
_chemical_formula_structural   Sr5As3H
_chemical_formula_sum   'Sr10 As6 H2'
_cell_volume   496.42158739
_cell_formula_units_Z   2
loop_
 _symmetry_equiv_pos_site_id
 _symmetry_equiv_pos_as_xyz
  1  'x, y, z'
loop_
 _atom_site_type_symbol
 _atom_site_label
 _atom_site_symmetry_multiplicity
 _atom_site_fract_x
 _atom_site_fract_y
 _atom_site_fract_z
 _atom_site_occupancy
  Sr  Sr0  1  0.75093805  0.75093805  0.25000000  1
  Sr  Sr1  1  0.75093805  0.00000000  0.75000000  1
  Sr  Sr2  1  -0.00000000  0.24906195  0.25000000  1
  Sr  Sr3  1  0.00000000  0.75093805  0.75000000  1
  Sr  Sr4  1  0.24906195  0.24906195  0.75000000  1
  Sr  Sr5  1  0.24906195  -0.00000000  0.25000000  1
  Sr  Sr6  1  0.33333300  0.66666700  0.50000000  1
  Sr  Sr7  1  0.66666700  0.33333300  -0.00000000  1
  Sr  Sr8  1  0.66666700  0.33333300  0.50000000  1
  Sr  Sr9  1  0.33333300  0.66666700  -0.00000000  1
  As  As10  1  0.39144422  -0.00000000  0.75000000  1
  As  As11  1  0.39144422  0.39144422  0.25000000  1
  As  As12  1  0.00000000  0.60855578  0.25000000  1
  As  As13  1  -0.00000000  0.39144422  0.75000000  1
  As  As14  1  0.60855578  0.60855578  0.75000000  1
  As  As15  1  0.60855578  0.00000000  0.25000000  1
  H  H16  1  0.00000000  -0.00000000  0.50000000  1
  H  H17  1  0.00000000  -0.00000000  -0.00000000  1
