# generated using pymatgen
data_Y3TaSiS5O24
_symmetry_space_group_name_H-M   'P 1'
_cell_length_a   9.20295270
_cell_length_b   9.21156679
_cell_length_c   23.68861004
_cell_angle_alpha   90.12684713
_cell_angle_beta   90.30550124
_cell_angle_gamma   119.98085471
_symmetry_Int_Tables_number   1
_chemical_formula_structural   Y3TaSiS5O24
_chemical_formula_sum   'Y9 Ta3 Si3 S15 O72'
_cell_volume   1739.40853333
_cell_formula_units_Z   3
loop_
 _symmetry_equiv_pos_site_id
 _symmetry_equiv_pos_as_xyz
  1  'x, y, z'
loop_
 _atom_site_type_symbol
 _atom_site_label
 _atom_site_symmetry_multiplicity
 _atom_site_fract_x
 _atom_site_fract_y
 _atom_site_fract_z
 _atom_site_occupancy
  Y  Y0  1  0.01078538  0.00268084  0.35315711  1
  Y  Y1  1  0.99354536  0.99725844  0.85937689  1
  Y  Y2  1  0.99848895  0.99895308  0.64885071  1
  Y  Y3  1  0.01137545  0.99629695  0.14247731  1
  Y  Y4  1  0.66830378  0.33352571  0.69015062  1
  Y  Y5  1  0.65857501  0.32506978  0.19092289  1
  Y  Y6  1  0.66596345  0.33195564  0.47519209  1
  Y  Y7  1  0.33713197  0.66314653  0.02218050  1
  Y  Y8  1  0.33323764  0.66647231  0.52390074  1
  Ta  Ta9  1  0.67316181  0.33788801  0.97488260  1
  Ta  Ta10  1  0.33388658  0.67232252  0.31051625  1
  Ta  Ta11  1  0.33060511  0.65652223  0.82016007  1
  Si  Si12  1  0.28970141  0.99665371  0.25072184  1
  Si  Si13  1  0.61881291  0.65812355  0.91928302  1
  Si  Si14  1  0.04162396  0.38167096  0.91882219  1
  S  S15  1  0.69791752  0.70960582  0.25236634  1
  S  S16  1  0.01094690  0.30253892  0.25253780  1
  S  S17  1  0.29246477  0.30408312  0.75198558  1
  S  S18  1  0.01421587  0.70961649  0.75157083  1
  S  S19  1  0.69467221  0.98738259  0.75172592  1
  S  S20  1  0.95503518  0.33099202  0.58318706  1
  S  S21  1  0.37610983  0.04557315  0.58312397  1
  S  S22  1  0.66876269  0.62276908  0.58321712  1
  S  S23  1  0.94345202  0.61307665  0.08086796  1
  S  S24  1  0.67047282  0.05527805  0.08082554  1
  S  S25  1  0.38569455  0.33120320  0.08086437  1
  S  S26  1  0.34621739  0.95900561  0.91686394  1
  S  S27  1  0.61325414  0.94621643  0.41428034  1
  S  S28  1  0.33428569  0.38719788  0.41482602  1
  S  S29  1  0.05212883  0.66376011  0.41423789  1
  O  O30  1  0.20276703  0.01743638  0.30656816  1
  O  O31  1  0.80169168  0.78927668  0.30283223  1
  O  O32  1  0.98008584  0.19615953  0.30244930  1
  O  O33  1  0.21629812  0.19617336  0.80088342  1
  O  O34  1  0.98371350  0.78769098  0.80046851  1
  O  O35  1  0.80666514  0.02116773  0.80023405  1
  O  O36  1  0.76921506  0.95699433  0.70028018  1
  O  O37  1  0.18715897  0.23063865  0.70053433  1
  O  O38  1  0.04064708  0.81347098  0.70019806  1
  O  O39  1  0.76271627  0.81534893  0.20216454  1
  O  O40  1  0.04671734  0.23368472  0.20203539  1
  O  O41  1  0.16861588  0.95361232  0.19582562  1
  O  O42  1  0.87579706  0.35698691  0.63343498  1
  O  O43  1  0.48176195  0.12536053  0.63370264  1
  O  O44  1  0.64413456  0.51859127  0.63355669  1
  O  O45  1  0.86788145  0.51507021  0.13177817  1
  O  O46  1  0.65067418  0.13410242  0.13224153  1
  O  O47  1  0.48475435  0.35444044  0.13266439  1
  O  O48  1  0.47467992  0.31175875  0.03083311  1
  O  O49  1  0.83246399  0.51698282  0.02995001  1
  O  O50  1  0.68489665  0.16320093  0.03024676  1
  O  O51  1  0.45676264  0.14912972  0.53227454  1
  O  O52  1  0.69188447  0.54205626  0.53215809  1
  O  O53  1  0.85005705  0.30661619  0.53206898  1
  O  O54  1  0.53526712  0.69071503  0.97187191  1
  O  O55  1  0.15024962  0.47370233  0.97233625  1
  O  O56  1  0.31525376  0.85840805  0.96705271  1
  O  O57  1  0.53571327  0.84646647  0.46511926  1
  O  O58  1  0.31415302  0.46595181  0.46636733  1
  O  O59  1  0.15375821  0.68950541  0.46545290  1
  O  O60  1  0.14393125  0.64477460  0.36438928  1
  O  O61  1  0.50117005  0.85228901  0.36405572  1
  O  O62  1  0.35339963  0.49430714  0.36483435  1
  O  O63  1  0.14339931  0.51230332  0.86178144  1
  O  O64  1  0.37314813  0.87335534  0.86567721  1
  O  O65  1  0.48819898  0.63426038  0.86238034  1
  O  O66  1  0.02967305  0.80847445  0.40650875  1
  O  O67  1  0.77824995  0.96529742  0.40492708  1
  O  O68  1  0.18474901  0.22148513  0.40827353  1
  O  O69  1  0.01344033  0.20361977  0.90188493  1
  O  O70  1  0.20711608  0.98672766  0.90410801  1
  O  O71  1  0.80110390  0.79882981  0.90194153  1
  O  O72  1  0.97340759  0.18174220  0.59120891  1
  O  O73  1  0.20821473  0.02680961  0.59115929  1
  O  O74  1  0.81820123  0.79079711  0.59117843  1
  O  O75  1  0.94886635  0.77627481  0.08341281  1
  O  O76  1  0.82276131  0.04165114  0.08606181  1
  O  O77  1  0.21848987  0.17808932  0.08517725  1
  O  O78  1  0.67296174  0.13431791  0.74158799  1
  O  O79  1  0.46281402  0.33234457  0.74208751  1
  O  O80  1  0.86875583  0.54000049  0.74154197  1
  O  O81  1  0.67257580  0.54168668  0.24407926  1
  O  O82  1  0.87399636  0.33686883  0.24422660  1
  O  O83  1  0.47824583  0.14529446  0.24293524  1
  O  O84  1  0.62758868  0.48113511  0.93217905  1
  O  O85  1  0.85091988  0.36276648  0.93083802  1
  O  O86  1  0.50207770  0.12790362  0.92604277  1
  O  O87  1  0.62260282  0.11077173  0.41870180  1
  O  O88  1  0.48698349  0.37226977  0.42030838  1
  O  O89  1  0.88734028  0.50855031  0.41865131  1
  O  O90  1  0.36608009  0.47872455  0.07521008  1
  O  O91  1  0.11130756  0.63719180  0.07281700  1
  O  O92  1  0.51989679  0.89093316  0.07365857  1
  O  O93  1  0.35790162  0.87795324  0.57535251  1
  O  O94  1  0.51962467  0.64172784  0.57562860  1
  O  O95  1  0.12256954  0.48037392  0.57567229  1
  O  O96  1  0.31102541  0.82402381  0.26827189  1
  O  O97  1  0.52220046  0.68534447  0.26622236  1
  O  O98  1  0.16756054  0.47400448  0.26671166  1
  O  O99  1  0.30805756  0.47505880  0.76279763  1
  O  O100  1  0.16721679  0.69389600  0.76206138  1
  O  O101  1  0.52491138  0.83823015  0.76279593  1
