# generated using pymatgen
data_Bi2P4O13
_symmetry_space_group_name_H-M   'P 1'
_cell_length_a   6.91021905
_cell_length_b   6.91021905
_cell_length_c   13.22842647
_cell_angle_alpha   75.77635852
_cell_angle_beta   75.77635852
_cell_angle_gamma   59.70277549
_symmetry_Int_Tables_number   1
_chemical_formula_structural   Bi2P4O13
_chemical_formula_sum   'Bi4 P8 O26'
_cell_volume   523.05500633
_cell_formula_units_Z   2
loop_
 _symmetry_equiv_pos_site_id
 _symmetry_equiv_pos_as_xyz
  1  'x, y, z'
loop_
 _atom_site_type_symbol
 _atom_site_label
 _atom_site_symmetry_multiplicity
 _atom_site_fract_x
 _atom_site_fract_y
 _atom_site_fract_z
 _atom_site_occupancy
  Bi  Bi0  1  0.69445937  0.69509969  0.94291599  1
  Bi  Bi1  1  0.30490031  0.30554063  0.55708401  1
  Bi  Bi2  1  0.30554063  0.30490031  0.05708401  1
  Bi  Bi3  1  0.69509969  0.69445937  0.44291599  1
  P  P4  1  0.86547072  0.15532428  0.63647720  1
  P  P5  1  0.84467572  0.13452928  0.86352280  1
  P  P6  1  0.13452928  0.84467572  0.36352280  1
  P  P7  1  0.15532428  0.86547072  0.13647720  1
  P  P8  1  0.76222063  0.77501582  0.65949970  1
  P  P9  1  0.22498418  0.23777937  0.84050030  1
  P  P10  1  0.23777937  0.22498418  0.34050030  1
  P  P11  1  0.77501582  0.76222063  0.15949970  1
  O  O12  1  0.76579009  0.23420991  0.75000000  1
  O  O13  1  0.23420991  0.76579009  0.25000000  1
  O  O14  1  0.68872544  0.30694779  0.93473961  1
  O  O15  1  0.69305221  0.31127456  0.56526039  1
  O  O16  1  0.31127456  0.69305221  0.06526039  1
  O  O17  1  0.30694779  0.68872544  0.43473961  1
  O  O18  1  0.87980357  0.89709442  0.89443415  1
  O  O19  1  0.10290558  0.12019643  0.60556585  1
  O  O20  1  0.12019643  0.10290558  0.10556585  1
  O  O21  1  0.89709442  0.87980357  0.39443415  1
  O  O22  1  0.89827139  0.90677660  0.65634756  1
  O  O23  1  0.09322340  0.10172861  0.84365244  1
  O  O24  1  0.30689244  0.29496888  0.22677129  1
  O  O25  1  0.70503112  0.69310756  0.27322871  1
  O  O26  1  0.69310756  0.70503112  0.77322871  1
  O  O27  1  0.29496888  0.30689244  0.72677129  1
  O  O28  1  0.92595654  0.56518869  0.09749077  1
  O  O29  1  0.43481131  0.07404346  0.40250923  1
  O  O30  1  0.07404346  0.43481131  0.90250923  1
  O  O31  1  0.56518869  0.92595654  0.59749077  1
  O  O32  1  0.57874794  0.92306506  0.09839347  1
  O  O33  1  0.07693494  0.42125206  0.40160653  1
  O  O34  1  0.42125206  0.07693494  0.90160653  1
  O  O35  1  0.92306506  0.57874794  0.59839347  1
  O  O36  1  0.90677660  0.89827139  0.15634756  1
  O  O37  1  0.10172861  0.09322340  0.34365244  1
