# generated using pymatgen
data_K4BeAs2
_symmetry_space_group_name_H-M   'P 1'
_cell_length_a   9.21474402
_cell_length_b   9.21474411
_cell_length_c   9.21474438
_cell_angle_alpha   35.92289010
_cell_angle_beta   35.92288969
_cell_angle_gamma   35.92289316
_symmetry_Int_Tables_number   1
_chemical_formula_structural   K4BeAs2
_chemical_formula_sum   'K4 Be1 As2'
_cell_volume   240.85872225
_cell_formula_units_Z   1
loop_
 _symmetry_equiv_pos_site_id
 _symmetry_equiv_pos_as_xyz
  1  'x, y, z'
loop_
 _atom_site_type_symbol
 _atom_site_label
 _atom_site_symmetry_multiplicity
 _atom_site_fract_x
 _atom_site_fract_y
 _atom_site_fract_z
 _atom_site_occupancy
  K  K0  1  0.62378120  0.62378120  0.62378120  1
  K  K1  1  0.37621880  0.37621880  0.37621880  1
  K  K2  1  0.20855700  0.20855700  0.20855700  1
  K  K3  1  0.79144300  0.79144300  0.79144300  1
  Be  Be4  1  0.00000000  0.00000000  -0.00000000  1
  As  As5  1  0.91976790  0.91976790  0.91976790  1
  As  As6  1  0.08023210  0.08023210  0.08023210  1
