# generated using pymatgen
data_Na6Sc5Ta3Si6(SO8)6
_symmetry_space_group_name_H-M   'P 1'
_cell_length_a   17.91264442
_cell_length_b   8.94220297
_cell_length_c   23.00349018
_cell_angle_alpha   90.10883341
_cell_angle_beta   90.04986688
_cell_angle_gamma   119.92203063
_symmetry_Int_Tables_number   1
_chemical_formula_structural   Na6Sc5Ta3Si6(SO8)6
_chemical_formula_sum   'Na18 Sc15 Ta9 Si18 S18 O144'
_cell_volume   3193.50449311
_cell_formula_units_Z   3
loop_
 _symmetry_equiv_pos_site_id
 _symmetry_equiv_pos_as_xyz
  1  'x, y, z'
loop_
 _atom_site_type_symbol
 _atom_site_label
 _atom_site_symmetry_multiplicity
 _atom_site_fract_x
 _atom_site_fract_y
 _atom_site_fract_z
 _atom_site_occupancy
  Na  Na0  1  0.48430164  0.68591764  0.91078243  1
  Na  Na1  1  0.16277738  0.31801619  0.91168191  1
  Na  Na2  1  0.48732870  0.29643615  0.41528401  1
  Na  Na3  1  0.97717126  0.28946506  0.40939689  1
  Na  Na4  1  0.16418262  0.02384324  0.41196514  1
  Na  Na5  1  0.66508536  0.03005330  0.41931147  1
  Na  Na6  1  0.98246690  0.96720632  0.49195887  1
  Na  Na7  1  0.49388005  0.98492795  0.49354861  1
  Na  Na8  1  0.99269415  0.99654779  0.99667072  1
  Na  Na9  1  0.50111964  0.99937373  0.98848872  1
  Na  Na10  1  0.33353084  0.32627450  0.82021703  1
  Na  Na11  1  0.83189561  0.33981882  0.82994065  1
  Na  Na12  1  0.33705856  0.33198878  0.32965452  1
  Na  Na13  1  0.83987257  0.34049845  0.33287728  1
  Na  Na14  1  0.15275402  0.65868834  0.16174848  1
  Na  Na15  1  0.66661526  0.64718379  0.16465396  1
  Na  Na16  1  0.16915894  0.67018384  0.67102588  1
  Na  Na17  1  0.66195311  0.65722296  0.66264579  1
  Sc  Sc18  1  0.99697521  0.99612238  0.35109205  1
  Sc  Sc19  1  0.49436844  0.00211215  0.35519303  1
  Sc  Sc20  1  0.00205435  0.99966594  0.85123448  1
  Sc  Sc21  1  0.50015077  0.99833990  0.85129254  1
  Sc  Sc22  1  0.33489530  0.33382393  0.69147818  1
  Sc  Sc23  1  0.83300734  0.34301589  0.68920762  1
  Sc  Sc24  1  0.33524241  0.32684683  0.19096799  1
  Sc  Sc25  1  0.84129490  0.34746125  0.18303366  1
  Sc  Sc26  1  0.33212768  0.33814724  0.97823201  1
  Sc  Sc27  1  0.33883483  0.33918152  0.47723387  1
  Sc  Sc28  1  0.83368211  0.33743213  0.47398985  1
  Sc  Sc29  1  0.16108908  0.65434461  0.01675900  1
  Sc  Sc30  1  0.66716519  0.66850708  0.02129400  1
  Sc  Sc31  1  0.16949595  0.67652021  0.51787855  1
  Sc  Sc32  1  0.66721422  0.66930692  0.51421941  1
  Ta  Ta33  1  0.00416174  0.99836987  0.65045274  1
  Ta  Ta34  1  0.50061125  0.00406849  0.65448118  1
  Ta  Ta35  1  0.00409858  0.99899922  0.14906761  1
  Ta  Ta36  1  0.50685144  0.01930685  0.14647819  1
  Ta  Ta37  1  0.83365527  0.33869443  0.97897011  1
  Ta  Ta38  1  0.16014408  0.67229880  0.30953905  1
  Ta  Ta39  1  0.66389006  0.65762961  0.31700818  1
  Ta  Ta40  1  0.16416412  0.64972438  0.80881702  1
  Ta  Ta41  1  0.66522309  0.67364782  0.80973122  1
  Si  Si42  1  0.14712075  0.00658365  0.25352495  1
  Si  Si43  1  0.99762623  0.29012988  0.25246921  1
  Si  Si44  1  0.50483088  0.30352884  0.25249401  1
  Si  Si45  1  0.14610663  0.28814722  0.75252992  1
  Si  Si46  1  0.64689374  0.29143600  0.75393538  1
  Si  Si47  1  0.99970144  0.70476501  0.75382170  1
  Si  Si48  1  0.49979317  0.71055354  0.75276983  1
  Si  Si49  1  0.35318709  0.99738758  0.75409875  1
  Si  Si50  1  0.98219324  0.63186291  0.08305372  1
  Si  Si51  1  0.69176074  0.33971739  0.08478359  1
  Si  Si52  1  0.31206759  0.67413937  0.91949926  1
  Si  Si53  1  0.01822853  0.37149708  0.91622045  1
  Si  Si54  1  0.66871793  0.96062710  0.91931674  1
  Si  Si55  1  0.30966874  0.95322106  0.41747083  1
  Si  Si56  1  0.81385561  0.95440747  0.41699287  1
  Si  Si57  1  0.66713476  0.37469807  0.41809322  1
  Si  Si58  1  0.02155836  0.67078943  0.41845208  1
  Si  Si59  1  0.52011730  0.66753453  0.41754826  1
  S  S60  1  0.64414154  0.99651122  0.24940345  1
  S  S61  1  0.35523278  0.71364920  0.24805187  1
  S  S62  1  0.85272403  0.71182609  0.24860971  1
  S  S63  1  0.85483866  0.99618021  0.74928189  1
  S  S64  1  0.48062840  0.32812394  0.58394617  1
  S  S65  1  0.98024888  0.32670866  0.58417498  1
  S  S66  1  0.18410567  0.04052292  0.58404032  1
  S  S67  1  0.68412929  0.03950791  0.58454771  1
  S  S68  1  0.33557351  0.63026753  0.58429206  1
  S  S69  1  0.83473745  0.63281963  0.58504406  1
  S  S70  1  0.47809164  0.62855873  0.08473553  1
  S  S71  1  0.33574207  0.04086569  0.08497525  1
  S  S72  1  0.83565103  0.04670247  0.08303651  1
  S  S73  1  0.18666778  0.32937845  0.08510511  1
  S  S74  1  0.80990797  0.66385208  0.91678181  1
  S  S75  1  0.52447480  0.38275349  0.91679655  1
  S  S76  1  0.16739642  0.95594634  0.91682316  1
  S  S77  1  0.16858411  0.38296266  0.41641997  1
  O  O78  1  0.10554398  0.02286188  0.31278177  1
  O  O79  1  0.60311516  0.01299931  0.30197788  1
  O  O80  1  0.40646404  0.78841193  0.30072756  1
  O  O81  1  0.90343864  0.79049554  0.30122732  1
  O  O82  1  0.49114433  0.19228580  0.30978372  1
  O  O83  1  0.98978538  0.18674350  0.31158060  1
  O  O84  1  0.10354248  0.18408667  0.81128186  1
  O  O85  1  0.60396576  0.17930081  0.80989500  1
  O  O86  1  0.48851045  0.78314780  0.81329485  1
  O  O87  1  0.98107064  0.79363469  0.80775739  1
  O  O88  1  0.41248208  0.03044427  0.80947765  1
  O  O89  1  0.90467346  0.02174771  0.80180472  1
  O  O90  1  0.40334204  0.96862558  0.69490752  1
  O  O91  1  0.89657371  0.96845756  0.69660087  1
  O  O92  1  0.08019836  0.18540503  0.69531871  1
  O  O93  1  0.58287182  0.20146194  0.69468558  1
  O  O94  1  0.00918459  0.83148798  0.69478776  1
  O  O95  1  0.51682290  0.83997501  0.69580505  1
  O  O96  1  0.39968912  0.82399725  0.19603168  1
  O  O97  1  0.89838825  0.81903984  0.19572851  1
  O  O98  1  0.00700095  0.18102963  0.19513294  1
  O  O99  1  0.51349964  0.19151944  0.19496156  1
  O  O100  1  0.08205094  0.97249741  0.19564049  1
  O  O101  1  0.58597838  0.97479533  0.19688581  1
  O  O102  1  0.43380310  0.34125539  0.63354603  1
  O  O103  1  0.93579579  0.34515036  0.63478766  1
  O  O104  1  0.23611770  0.13197654  0.63392861  1
  O  O105  1  0.73804070  0.13301477  0.63488514  1
  O  O106  1  0.32767929  0.52746094  0.63551331  1
  O  O107  1  0.82807634  0.53060845  0.63671470  1
  O  O108  1  0.43325197  0.51839801  0.13435924  1
  O  O109  1  0.93812004  0.51877178  0.14013182  1
  O  O110  1  0.32832263  0.12994505  0.13661793  1
  O  O111  1  0.82250177  0.12225484  0.13566737  1
  O  O112  1  0.23974884  0.34209854  0.13515310  1
  O  O113  1  0.74334329  0.35203148  0.14250545  1
  O  O114  1  0.22254592  0.30151440  0.03032928  1
  O  O115  1  0.73701530  0.30773535  0.02653941  1
  O  O116  1  0.42893644  0.55333304  0.02987984  1
  O  O117  1  0.91749435  0.52641356  0.02645298  1
  O  O118  1  0.35210041  0.14667287  0.03228405  1
  O  O119  1  0.84791274  0.15491106  0.03039878  1
  O  O120  1  0.21837040  0.13567159  0.52907884  1
  O  O121  1  0.72226555  0.13575433  0.52980916  1
  O  O122  1  0.34500556  0.54722190  0.53060620  1
  O  O123  1  0.84950155  0.55939931  0.53190586  1
  O  O124  1  0.43207931  0.30808993  0.52850120  1
  O  O125  1  0.93164950  0.30349276  0.52967640  1
  O  O126  1  0.26527910  0.68782774  0.97697167  1
  O  O127  1  0.76837308  0.67972610  0.96937382  1
  O  O128  1  0.08041451  0.45469116  0.97208416  1
  O  O129  1  0.57506656  0.46520857  0.96937711  1
  O  O130  1  0.15722491  0.85689457  0.96972287  1
  O  O131  1  0.65562694  0.83191273  0.97257657  1
  O  O132  1  0.26732858  0.84072904  0.47510460  1
  O  O133  1  0.76928592  0.83800107  0.47332236  1
  O  O134  1  0.15616232  0.46213173  0.46881513  1
  O  O135  1  0.64470663  0.45737714  0.47267064  1
  O  O136  1  0.08299697  0.69633389  0.47335332  1
  O  O137  1  0.57958442  0.70392946  0.47413521  1
  O  O138  1  0.06972856  0.64083347  0.35857964  1
  O  O139  1  0.56879664  0.63121842  0.35979037  1
  O  O140  1  0.24760962  0.84911186  0.35993382  1
  O  O141  1  0.75071602  0.85746628  0.35824404  1
  O  O142  1  0.17995164  0.48673220  0.36341885  1
  O  O143  1  0.67982718  0.49897047  0.35932844  1
  O  O144  1  0.06688952  0.49543192  0.85869522  1
  O  O145  1  0.56892272  0.49398376  0.86387354  1
  O  O146  1  0.17836952  0.87604387  0.86404883  1
  O  O147  1  0.68039289  0.85484860  0.86107054  1
  O  O148  1  0.24634644  0.63690374  0.86233874  1
  O  O149  1  0.75767109  0.64117522  0.86350615  1
  O  O150  1  0.01680579  0.84527024  0.41269455  1
  O  O151  1  0.51505732  0.83863655  0.40601851  1
  O  O152  1  0.40775933  0.99340846  0.41261002  1
  O  O153  1  0.91213347  0.99314835  0.41221437  1
  O  O154  1  0.09055632  0.20878646  0.41195786  1
  O  O155  1  0.58438806  0.18379019  0.40870005  1
  O  O156  1  0.00748355  0.17970610  0.90987372  1
  O  O157  1  0.51290799  0.21174488  0.91163984  1
  O  O158  1  0.09133158  0.98231222  0.91319443  1
  O  O159  1  0.58431184  0.97856032  0.91434512  1
  O  O160  1  0.40953296  0.83093668  0.91541233  1
  O  O161  1  0.89634124  0.81455357  0.91216926  1
  O  O162  1  0.48795095  0.16651585  0.58876167  1
  O  O163  1  0.98623920  0.16283520  0.59180732  1
  O  O164  1  0.09350027  0.02198749  0.59095609  1
  O  O165  1  0.59598220  0.02409498  0.59029132  1
  O  O166  1  0.41542460  0.80756746  0.58871566  1
  O  O167  1  0.91384116  0.81264619  0.59220732  1
  O  O168  1  0.48514948  0.80280497  0.09270493  1
  O  O169  1  0.98379700  0.82234727  0.09043144  1
  O  O170  1  0.41595811  0.02122818  0.09357911  1
  O  O171  1  0.91522766  0.03127884  0.08793822  1
  O  O172  1  0.09757072  0.16858048  0.09140286  1
  O  O173  1  0.59232545  0.15491106  0.09280314  1
  O  O174  1  0.33875171  0.15663824  0.73955840  1
  O  O175  1  0.84076320  0.14112155  0.73956697  1
  O  O176  1  0.23955943  0.31578202  0.74125311  1
  O  O177  1  0.74073722  0.31519043  0.74061575  1
  O  O178  1  0.42349164  0.51936387  0.74051933  1
  O  O179  1  0.92104663  0.51316774  0.74105235  1
  O  O180  1  0.34334600  0.53991736  0.23963740  1
  O  O181  1  0.83995241  0.53777313  0.24308333  1
  O  O182  1  0.42408955  0.33283060  0.24149840  1
  O  O183  1  0.91585810  0.31796397  0.24520304  1
  O  O184  1  0.24064193  0.17096400  0.24233408  1
  O  O185  1  0.72876161  0.14778567  0.24118642  1
  O  O186  1  0.31736921  0.48858802  0.92407173  1
  O  O187  1  0.81629368  0.50118227  0.92061819  1
  O  O188  1  0.43987207  0.37977072  0.92015198  1
  O  O189  1  0.92460365  0.36211027  0.92552746  1
  O  O190  1  0.24560441  0.13453515  0.92234838  1
  O  O191  1  0.75772274  0.14857170  0.92582635  1
  O  O192  1  0.31055456  0.13957778  0.42168999  1
  O  O193  1  0.81678172  0.14122634  0.42062180  1
  O  O194  1  0.24489959  0.35971364  0.42196798  1
  O  O195  1  0.75211916  0.35533848  0.42062161  1
  O  O196  1  0.42815208  0.48561957  0.42037342  1
  O  O197  1  0.93136283  0.48992724  0.42098518  1
  O  O198  1  0.17524222  0.48059596  0.08247736  1
  O  O199  1  0.67136283  0.49506612  0.07623214  1
  O  O200  1  0.07965924  0.66947785  0.07653549  1
  O  O201  1  0.56583761  0.65302198  0.08094727  1
  O  O202  1  0.26117908  0.86811370  0.08086688  1
  O  O203  1  0.76073007  0.87146569  0.07588999  1
  O  O204  1  0.17006965  0.86273390  0.58214795  1
  O  O205  1  0.67287983  0.86361816  0.58320551  1
  O  O206  1  0.25831832  0.65110938  0.58059015  1
  O  O207  1  0.75842469  0.65423293  0.58243840  1
  O  O208  1  0.06924908  0.47481939  0.58083079  1
  O  O209  1  0.56803078  0.48080257  0.58210909  1
  O  O210  1  0.15341560  0.82592159  0.25511772  1
  O  O211  1  0.64900605  0.83436803  0.25009618  1
  O  O212  1  0.26902646  0.70044835  0.25294890  1
  O  O213  1  0.76837732  0.70766568  0.25086012  1
  O  O214  1  0.09165294  0.47800750  0.25657762  1
  O  O215  1  0.59533628  0.49185967  0.25324940  1
  O  O216  1  0.14744856  0.47435675  0.75333235  1
  O  O217  1  0.65772980  0.48774396  0.76149149  1
  O  O218  1  0.09101349  0.70610102  0.75816827  1
  O  O219  1  0.59236893  0.70081848  0.75724253  1
  O  O220  1  0.25922290  0.81813307  0.75945757  1
  O  O221  1  0.76858875  0.83141965  0.75411750  1
