# generated using pymatgen
data_Na10La4Si7Sn4S5O48
_symmetry_space_group_name_H-M   'P 1'
_cell_length_a   18.81228926
_cell_length_b   9.46603834
_cell_length_c   23.52039332
_cell_angle_alpha   90.04274900
_cell_angle_beta   87.84623876
_cell_angle_gamma   120.01748049
_symmetry_Int_Tables_number   1
_chemical_formula_structural   Na10La4Si7Sn4S5O48
_chemical_formula_sum   'Na30 La12 Si21 Sn12 S15 O144'
_cell_volume   3623.32359720
_cell_formula_units_Z   3
loop_
 _symmetry_equiv_pos_site_id
 _symmetry_equiv_pos_as_xyz
  1  'x, y, z'
loop_
 _atom_site_type_symbol
 _atom_site_label
 _atom_site_symmetry_multiplicity
 _atom_site_fract_x
 _atom_site_fract_y
 _atom_site_fract_z
 _atom_site_occupancy
  Na  Na0  1  0.18375089  0.37507155  0.24110482  1
  Na  Na1  1  0.68406050  0.37609594  0.24054691  1
  Na  Na2  1  0.99408996  0.62978418  0.25531069  1
  Na  Na3  1  0.49487403  0.62996630  0.25491058  1
  Na  Na4  1  0.49422986  0.35510624  0.75965748  1
  Na  Na5  1  0.18427779  0.99433256  0.74461243  1
  Na  Na6  1  0.68193805  0.99389402  0.74402890  1
  Na  Na7  1  0.65973184  0.34248647  0.58057324  1
  Na  Na8  1  0.01567947  0.70753721  0.57857162  1
  Na  Na9  1  0.82712038  0.95893048  0.59181771  1
  Na  Na10  1  0.49338412  0.67772480  0.91322823  1
  Na  Na11  1  0.99425233  0.67700568  0.91209709  1
  Na  Na12  1  0.84762150  0.03413789  0.90738345  1
  Na  Na13  1  0.15932002  0.29212446  0.92362887  1
  Na  Na14  1  0.49166695  0.30884744  0.41196898  1
  Na  Na15  1  0.98957828  0.30678544  0.41265519  1
  Na  Na16  1  0.34562867  0.65952157  0.40662210  1
  Na  Na17  1  0.84816400  0.66230934  0.41088720  1
  Na  Na18  1  0.02151861  0.01049859  0.50126922  1
  Na  Na19  1  0.51651820  0.99426087  0.49931502  1
  Na  Na20  1  0.01258210  0.01599032  0.00397110  1
  Na  Na21  1  0.51802774  0.03909973  0.99920125  1
  Na  Na22  1  0.34098383  0.32745624  0.83620939  1
  Na  Na23  1  0.84471702  0.33914635  0.82990065  1
  Na  Na24  1  0.33674584  0.33135184  0.33260495  1
  Na  Na25  1  0.83656589  0.33071992  0.33519024  1
  Na  Na26  1  0.17499284  0.65266841  0.16642304  1
  Na  Na27  1  0.67487876  0.65235949  0.16617060  1
  Na  Na28  1  0.17438079  0.68193429  0.67408478  1
  Na  Na29  1  0.67520285  0.68566948  0.67013484  1
  La  La30  1  0.00269141  0.00089028  0.34989490  1
  La  La31  1  0.50327183  0.00285812  0.34856737  1
  La  La32  1  0.99864184  0.00064235  0.84589823  1
  La  La33  1  0.49626752  0.00303709  0.85391453  1
  La  La34  1  0.33439964  0.33451185  0.68419847  1
  La  La35  1  0.83893416  0.34333695  0.68726565  1
  La  La36  1  0.33513976  0.33680006  0.18163785  1
  La  La37  1  0.83494516  0.33586303  0.18183240  1
  La  La38  1  0.16197081  0.65669845  0.01995991  1
  La  La39  1  0.66061644  0.64977883  0.02125957  1
  La  La40  1  0.16707548  0.67442934  0.51858758  1
  La  La41  1  0.65961015  0.67156994  0.51834314  1
  Si  Si42  1  0.34907817  0.71370671  0.25124645  1
  Si  Si43  1  0.84944834  0.71413320  0.25125257  1
  Si  Si44  1  0.00329592  0.30685159  0.25371907  1
  Si  Si45  1  0.50323520  0.30709800  0.25365219  1
  Si  Si46  1  0.00495721  0.69941524  0.75360097  1
  Si  Si47  1  0.50364262  0.69939975  0.75434176  1
  Si  Si48  1  0.34931959  0.98476873  0.74875982  1
  Si  Si49  1  0.84445394  0.98239974  0.75231423  1
  Si  Si50  1  0.17934083  0.04281467  0.58857711  1
  Si  Si51  1  0.68225655  0.04762368  0.58870220  1
  Si  Si52  1  0.83652127  0.63963007  0.58212988  1
  Si  Si53  1  0.17884478  0.31555753  0.08746387  1
  Si  Si54  1  0.67842133  0.31498768  0.08960862  1
  Si  Si55  1  0.01508558  0.37578133  0.91796706  1
  Si  Si56  1  0.51314219  0.37514416  0.91754125  1
  Si  Si57  1  0.16965969  0.96991295  0.91616520  1
  Si  Si58  1  0.67048205  0.96767842  0.91835035  1
  Si  Si59  1  0.16990905  0.37136627  0.41743631  1
  Si  Si60  1  0.66949401  0.36972098  0.41969432  1
  Si  Si61  1  0.01274621  0.65116521  0.41942964  1
  Si  Si62  1  0.51066143  0.65198009  0.41663212  1
  Sn  Sn63  1  0.99384977  0.97222461  0.65173758  1
  Sn  Sn64  1  0.49678034  0.97286801  0.65277903  1
  Sn  Sn65  1  0.99708489  0.01891977  0.15022510  1
  Sn  Sn66  1  0.49704598  0.01718805  0.15021184  1
  Sn  Sn67  1  0.32462368  0.30647502  0.98065076  1
  Sn  Sn68  1  0.82160638  0.31577286  0.98006001  1
  Sn  Sn69  1  0.32246344  0.32964554  0.48033839  1
  Sn  Sn70  1  0.82454150  0.34932271  0.48234999  1
  Sn  Sn71  1  0.16205920  0.64047738  0.31552165  1
  Sn  Sn72  1  0.66166632  0.64181794  0.31586071  1
  Sn  Sn73  1  0.16034832  0.68341975  0.81521932  1
  Sn  Sn74  1  0.66172622  0.68412750  0.81619534  1
  S  S75  1  0.14655406  0.98035347  0.24742246  1
  S  S76  1  0.64686321  0.97975454  0.24751306  1
  S  S77  1  0.14545800  0.31308616  0.74890758  1
  S  S78  1  0.64359363  0.30623795  0.74678081  1
  S  S79  1  0.47917413  0.30706497  0.58140450  1
  S  S80  1  0.97901361  0.31311224  0.57907470  1
  S  S81  1  0.34275921  0.64389741  0.58057627  1
  S  S82  1  0.47956989  0.65340673  0.08251031  1
  S  S83  1  0.97935649  0.65248158  0.08185819  1
  S  S84  1  0.34141900  0.03925456  0.08213022  1
  S  S85  1  0.84136653  0.03899103  0.08065245  1
  S  S86  1  0.30947206  0.64428100  0.91575929  1
  S  S87  1  0.81175175  0.64818068  0.91599095  1
  S  S88  1  0.31231676  0.97662355  0.41432682  1
  S  S89  1  0.81118339  0.97490186  0.41587717  1
  O  O90  1  0.11382574  0.01007565  0.30103304  1
  O  O91  1  0.61451355  0.00968253  0.30128541  1
  O  O92  1  0.39976798  0.77583696  0.30854573  1
  O  O93  1  0.90094961  0.77655843  0.30819451  1
  O  O94  1  0.49314368  0.21687926  0.31386611  1
  O  O95  1  0.99403600  0.21611487  0.31361315  1
  O  O96  1  0.11407251  0.22700853  0.80458621  1
  O  O97  1  0.60474903  0.20536019  0.79792100  1
  O  O98  1  0.49432666  0.77706798  0.81258845  1
  O  O99  1  -0.00034202  0.78040967  0.81266707  1
  O  O100  1  0.41104491  0.03811359  0.79961609  1
  O  O101  1  0.89209774  0.00783746  0.81003013  1
  O  O102  1  0.39720774  0.96311604  0.68917495  1
  O  O103  1  0.89680036  0.97336765  0.69245397  1
  O  O104  1  0.09199183  0.21860751  0.70181649  1
  O  O105  1  0.59438330  0.22464706  0.69508615  1
  O  O106  1  0.01894985  0.82070997  0.69612003  1
  O  O107  1  0.52117628  0.82425210  0.69762239  1
  O  O108  1  0.40259265  0.83586015  0.19494898  1
  O  O109  1  0.90266864  0.83631121  0.19461217  1
  O  O110  1  0.02069967  0.21217439  0.19916057  1
  O  O111  1  0.51988669  0.21023105  0.19958836  1
  O  O112  1  0.09342694  0.96231118  0.19935076  1
  O  O113  1  0.59333967  0.96138328  0.19972844  1
  O  O114  1  0.44089922  0.32554568  0.63406058  1
  O  O115  1  0.93984977  0.33550026  0.63041328  1
  O  O116  1  0.22804261  0.11707504  0.64520345  1
  O  O117  1  0.73014448  0.12128184  0.64576727  1
  O  O118  1  0.33296939  0.54697510  0.63117319  1
  O  O119  1  0.81962062  0.51590624  0.63349480  1
  O  O120  1  0.44228164  0.56018463  0.13636490  1
  O  O121  1  0.94143296  0.55958956  0.13544588  1
  O  O122  1  0.33162743  0.11309008  0.13418817  1
  O  O123  1  0.83235523  0.11655333  0.13190976  1
  O  O124  1  0.22425527  0.32561997  0.14541729  1
  O  O125  1  0.72265516  0.32437176  0.14811036  1
  O  O126  1  0.23038345  0.29868911  0.02784880  1
  O  O127  1  0.73178540  0.29889883  0.03177390  1
  O  O128  1  0.43176342  0.56142027  0.03257372  1
  O  O129  1  0.93218189  0.56180870  0.03141582  1
  O  O130  1  0.35240043  0.14437655  0.03033009  1
  O  O131  1  0.85156344  0.13966533  0.02779599  1
  O  O132  1  0.23182167  0.16106219  0.52965525  1
  O  O133  1  0.72957025  0.17693956  0.53137419  1
  O  O134  1  0.35117062  0.56254373  0.52695891  1
  O  O135  1  0.85512113  0.56212491  0.52196244  1
  O  O136  1  0.43354038  0.30528438  0.53026294  1
  O  O137  1  0.93047643  0.29863989  0.52777765  1
  O  O138  1  0.27423913  0.66706330  0.96852529  1
  O  O139  1  0.77546303  0.67019916  0.96850078  1
  O  O140  1  0.07555839  0.44666713  0.96954265  1
  O  O141  1  0.56791304  0.46342852  0.96997837  1
  O  O142  1  0.15469549  0.85003521  0.96863186  1
  O  O143  1  0.66467847  0.85601269  0.97096998  1
  O  O144  1  0.27697389  0.88492212  0.46764305  1
  O  O145  1  0.77749438  0.88508186  0.47009771  1
  O  O146  1  0.16248867  0.46948385  0.47033241  1
  O  O147  1  0.66198930  0.45266111  0.47751390  1
  O  O148  1  0.06236309  0.67576138  0.47610003  1
  O  O149  1  0.56509229  0.68177455  0.46993256  1
  O  O150  1  0.06288926  0.62902010  0.36045358  1
  O  O151  1  0.55743766  0.62555453  0.35698391  1
  O  O152  1  0.26283932  0.89302827  0.36485133  1
  O  O153  1  0.76037852  0.88662312  0.36705470  1
  O  O154  1  0.18892415  0.48643102  0.35752693  1
  O  O155  1  0.68580925  0.49093080  0.36181403  1
  O  O156  1  0.06141755  0.50305221  0.86090335  1
  O  O157  1  0.55825137  0.49343403  0.85681020  1
  O  O158  1  0.18234568  0.89121751  0.85513005  1
  O  O159  1  0.68938961  0.89114209  0.85786273  1
  O  O160  1  0.26108514  0.63277334  0.86558628  1
  O  O161  1  0.76351648  0.63187406  0.86557470  1
  O  O162  1  0.98980471  0.79385845  0.41317506  1
  O  O163  1  0.48490879  0.79095096  0.41207119  1
  O  O164  1  0.39631730  0.99925265  0.40960942  1
  O  O165  1  0.89500729  0.99512205  0.41003419  1
  O  O166  1  0.08738768  0.19443059  0.41611467  1
  O  O167  1  0.58625328  0.19365038  0.41565473  1
  O  O168  1  0.99286201  0.18729377  0.91132428  1
  O  O169  1  0.49352661  0.19031264  0.91436942  1
  O  O170  1  0.09119647  0.00162058  0.91493348  1
  O  O171  1  0.58786839  0.97969513  0.91605163  1
  O  O172  1  0.39593094  0.77742132  0.91148926  1
  O  O173  1  0.89659326  0.79226125  0.91122367  1
  O  O174  1  0.48458168  0.15448012  0.58325260  1
  O  O175  1  0.98155269  0.15787805  0.58387003  1
  O  O176  1  0.08674938  0.03168553  0.59095914  1
  O  O177  1  0.58949527  0.04144564  0.59171832  1
  O  O178  1  0.42150193  0.80689648  0.58249280  1
  O  O179  1  0.92378039  0.81946293  0.58785670  1
  O  O180  1  0.48135991  0.81343808  0.08508062  1
  O  O181  1  0.98188790  0.81325793  0.08415042  1
  O  O182  1  0.41961603  0.03143168  0.08387863  1
  O  O183  1  0.91996400  0.03133351  0.08310790  1
  O  O184  1  0.08605561  0.14021716  0.08923071  1
  O  O185  1  0.58584300  0.14061914  0.08995051  1
  O  O186  1  0.33028846  0.13547583  0.74216866  1
  O  O187  1  0.82231752  0.12679921  0.74639630  1
  O  O188  1  0.22799807  0.32972243  0.74186115  1
  O  O189  1  0.72650867  0.32880162  0.74272472  1
  O  O190  1  0.43019215  0.51104590  0.74829178  1
  O  O191  1  0.92704248  0.51867650  0.75134057  1
  O  O192  1  0.33196315  0.52669402  0.24326292  1
  O  O193  1  0.83268582  0.52761142  0.24292724  1
  O  O194  1  0.42932913  0.34792814  0.24775413  1
  O  O195  1  0.92939134  0.34749202  0.24779703  1
  O  O196  1  0.23066373  0.12125641  0.24069816  1
  O  O197  1  0.73100175  0.12016296  0.24063707  1
  O  O198  1  0.31043042  0.48429696  0.91888231  1
  O  O199  1  0.82184774  0.49868443  0.92014487  1
  O  O200  1  0.42385139  0.38436652  0.92510137  1
  O  O201  1  0.92512923  0.37889619  0.92782193  1
  O  O202  1  0.25355586  0.15657233  0.91998959  1
  O  O203  1  0.75961886  0.14958989  0.92034610  1
  O  O204  1  0.32146504  0.14448133  0.41825290  1
  O  O205  1  0.82084003  0.14212457  0.41879259  1
  O  O206  1  0.25860433  0.36780888  0.42021558  1
  O  O207  1  0.75826818  0.36647469  0.41828536  1
  O  O208  1  0.42172151  0.46545262  0.42463832  1
  O  O209  1  0.92378167  0.46664776  0.42306033  1
  O  O210  1  0.16794021  0.47370900  0.08274694  1
  O  O211  1  0.66764819  0.47327739  0.08558486  1
  O  O212  1  0.06315366  0.67757242  0.07965633  1
  O  O213  1  0.56368533  0.68011943  0.08019745  1
  O  O214  1  0.27034525  0.87541990  0.07804914  1
  O  O215  1  0.77065996  0.87385517  0.07806571  1
  O  O216  1  0.15910377  0.85470525  0.58206835  1
  O  O217  1  0.67585573  0.87228650  0.58107374  1
  O  O218  1  0.27182729  0.66886854  0.57813538  1
  O  O219  1  0.75953799  0.67205143  0.57977611  1
  O  O220  1  0.06218871  0.45711538  0.57573053  1
  O  O221  1  0.56463054  0.44808334  0.57987215  1
  O  O222  1  0.14765661  0.82322383  0.25230592  1
  O  O223  1  0.64794939  0.82258623  0.25236149  1
  O  O224  1  0.25637344  0.70035893  0.25598628  1
  O  O225  1  0.75645143  0.69944650  0.25663632  1
  O  O226  1  0.09233983  0.48915283  0.25250348  1
  O  O227  1  0.59265875  0.48855426  0.25260025  1
  O  O228  1  0.15286570  0.47723349  0.75113396  1
  O  O229  1  0.64551808  0.46604839  0.75114505  1
  O  O230  1  0.09541219  0.70344419  0.75081913  1
  O  O231  1  0.59252525  0.69535839  0.75261746  1
  O  O232  1  0.25796068  0.81320791  0.75689207  1
  O  O233  1  0.75431049  0.80378576  0.75521772  1
