# generated using pymatgen
data_MgVBr2O
_symmetry_space_group_name_H-M   'P 1'
_cell_length_a   4.23354695
_cell_length_b   3.82560607
_cell_length_c   7.73314464
_cell_angle_alpha   104.42927708
_cell_angle_beta   112.00062625
_cell_angle_gamma   89.95582707
_symmetry_Int_Tables_number   1
_chemical_formula_structural   MgVBr2O
_chemical_formula_sum   'Mg1 V1 Br2 O1'
_cell_volume   111.86236221
_cell_formula_units_Z   1
loop_
 _symmetry_equiv_pos_site_id
 _symmetry_equiv_pos_as_xyz
  1  'x, y, z'
loop_
 _atom_site_type_symbol
 _atom_site_label
 _atom_site_symmetry_multiplicity
 _atom_site_fract_x
 _atom_site_fract_y
 _atom_site_fract_z
 _atom_site_occupancy
  Mg  Mg0  1  0.16915900  0.67040500  0.33288700  1
  V  V1  1  0.00436400  0.98411300  0.96733100  1
  Br  Br2  1  0.36545900  0.84911400  0.70213500  1
  Br  Br3  1  0.64639900  0.16416400  0.32497400  1
  O  O4  1  0.01104900  0.52863200  0.05600800  1
