# generated using pymatgen
data_Ba2Mg(NiO3)2
_symmetry_space_group_name_H-M   'P 1'
_cell_length_a   5.53699872
_cell_length_b   6.27109859
_cell_length_c   5.27663158
_cell_angle_alpha   107.09340086
_cell_angle_beta   89.95618853
_cell_angle_gamma   116.24368374
_symmetry_Int_Tables_number   1
_chemical_formula_structural   Ba2Mg(NiO3)2
_chemical_formula_sum   'Ba2 Mg1 Ni2 O6'
_cell_volume   155.28127907
_cell_formula_units_Z   1
loop_
 _symmetry_equiv_pos_site_id
 _symmetry_equiv_pos_as_xyz
  1  'x, y, z'
loop_
 _atom_site_type_symbol
 _atom_site_label
 _atom_site_symmetry_multiplicity
 _atom_site_fract_x
 _atom_site_fract_y
 _atom_site_fract_z
 _atom_site_occupancy
  Ba  Ba0  1  0.70685700  0.41296800  0.67962100  1
  Ba  Ba1  1  0.29289500  0.58469400  0.30091000  1
  Mg  Mg2  1  0.49979300  0.99858200  0.98997400  1
  Ni  Ni3  1  0.00009000  0.99935200  0.49038200  1
  Ni  Ni4  1  0.99979700  0.99878000  0.99000000  1
  O  O5  1  0.82684400  0.12921800  0.25722300  1
  O  O6  1  0.69709700  0.86882900  0.72288100  1
  O  O7  1  0.15415800  0.30724600  0.78632100  1
  O  O8  1  0.84619300  0.69154600  0.19357300  1
  O  O9  1  0.17308500  0.86898600  0.72292900  1
  O  O10  1  0.30319100  0.12938300  0.25729700  1
