# generated using pymatgen
data_Na10Sc7Ta(PO4)12
_symmetry_space_group_name_H-M   'P 1'
_cell_length_a   17.94140394
_cell_length_b   8.98027684
_cell_length_c   22.59959087
_cell_angle_alpha   90.00157433
_cell_angle_beta   89.97884700
_cell_angle_gamma   120.10609128
_symmetry_Int_Tables_number   1
_chemical_formula_structural   Na10Sc7Ta(PO4)12
_chemical_formula_sum   'Na30 Sc21 Ta3 P36 O144'
_cell_volume   3150.01082884
_cell_formula_units_Z   3
loop_
 _symmetry_equiv_pos_site_id
 _symmetry_equiv_pos_as_xyz
  1  'x, y, z'
loop_
 _atom_site_type_symbol
 _atom_site_label
 _atom_site_symmetry_multiplicity
 _atom_site_fract_x
 _atom_site_fract_y
 _atom_site_fract_z
 _atom_site_occupancy
  Na  Na0  1  0.31740529  0.00008076  0.25211615  1
  Na  Na1  1  0.68343268  0.36478901  0.25227515  1
  Na  Na2  1  0.31396144  0.62954351  0.75296102  1
  Na  Na3  1  0.81392694  0.62923291  0.75271601  1
  Na  Na4  1  0.15205728  0.33459671  0.58249218  1
  Na  Na5  1  0.65199814  0.33393495  0.58246924  1
  Na  Na6  1  0.01410848  0.69599857  0.58295597  1
  Na  Na7  1  0.51489558  0.69659214  0.58270398  1
  Na  Na8  1  0.33275923  0.96879554  0.58249901  1
  Na  Na9  1  0.83314458  0.97040795  0.58214950  1
  Na  Na10  1  0.15223677  0.97041780  0.08246654  1
  Na  Na11  1  0.65258650  0.97184051  0.08314359  1
  Na  Na12  1  0.33293984  0.69572475  0.08300096  1
  Na  Na13  1  0.83300975  0.69537945  0.08275126  1
  Na  Na14  1  0.01430752  0.33361860  0.08239039  1
  Na  Na15  1  0.51464325  0.33317029  0.08316317  1
  Na  Na16  1  0.66718482  0.03218086  0.41388540  1
  Na  Na17  1  0.34803557  0.66521935  0.41327021  1
  Na  Na18  1  0.00002542  0.99902765  0.49787080  1
  Na  Na19  1  0.49943539  0.01477648  0.49484795  1
  Na  Na20  1  0.99994324  0.99978109  0.99959205  1
  Na  Na21  1  0.50001571  0.99990675  -0.00002635  1
  Na  Na22  1  0.33391400  0.32037514  0.83722023  1
  Na  Na23  1  0.83387635  0.32040510  0.83722339  1
  Na  Na24  1  0.33500283  0.33530203  0.33253774  1
  Na  Na25  1  0.84589885  0.34490876  0.33306633  1
  Na  Na26  1  0.16081637  0.65095869  0.17197566  1
  Na  Na27  1  0.66567803  0.68108262  0.17187960  1
  Na  Na28  1  0.15973487  0.66735321  0.67267598  1
  Na  Na29  1  0.65979262  0.66735468  0.67268792  1
  Sc  Sc30  1  0.49946554  0.00487077  0.35043612  1
  Sc  Sc31  1  0.00158451  0.00287983  0.65113047  1
  Sc  Sc32  1  0.50155248  0.00215336  0.65053005  1
  Sc  Sc33  1  0.99985348  0.99936668  0.15107207  1
  Sc  Sc34  1  0.50033545  0.99772052  0.15160542  1
  Sc  Sc35  1  0.33366958  0.32637610  0.68959410  1
  Sc  Sc36  1  0.83361833  0.32624172  0.68967296  1
  Sc  Sc37  1  0.33264646  0.34165017  0.18692156  1
  Sc  Sc38  1  0.83754443  0.33088688  0.18831420  1
  Sc  Sc39  1  0.33325856  0.33389555  0.97852952  1
  Sc  Sc40  1  0.83317478  0.33423156  0.97862208  1
  Sc  Sc41  1  0.33252367  0.32444150  0.47949211  1
  Sc  Sc42  1  0.83687169  0.34184573  0.47913343  1
  Sc  Sc43  1  0.16671109  0.66739917  0.01214647  1
  Sc  Sc44  1  0.66659375  0.66637754  0.01229774  1
  Sc  Sc45  1  0.16325520  0.66398663  0.51344405  1
  Sc  Sc46  1  0.66858145  0.66516672  0.51371527  1
  Sc  Sc47  1  0.16369569  0.66095129  0.31501876  1
  Sc  Sc48  1  0.66467471  0.66881112  0.31570137  1
  Sc  Sc49  1  0.16349738  0.66729342  0.81667858  1
  Sc  Sc50  1  0.66350651  0.66734287  0.81670088  1
  Ta  Ta51  1  0.00024098  0.99884394  0.35114096  1
  Ta  Ta52  1  0.00129926  0.00271750  0.85327163  1
  Ta  Ta53  1  0.50128493  0.00266998  0.85323688  1
  P  P54  1  0.14719329  0.99909599  0.24929808  1
  P  P55  1  0.64924909  0.00072332  0.25021648  1
  P  P56  1  0.35075797  0.70313906  0.25131151  1
  P  P57  1  0.85255966  0.70469630  0.24963128  1
  P  P58  1  0.00029400  0.29202707  0.24951830  1
  P  P59  1  0.49970571  0.29727241  0.24808140  1
  P  P60  1  0.14716490  0.29519418  0.74970884  1
  P  P61  1  0.64705878  0.29491715  0.74963358  1
  P  P62  1  0.00074524  0.70865033  0.74938087  1
  P  P63  1  0.50074981  0.70877989  0.74932569  1
  P  P64  1  0.35402739  0.99954638  0.75021522  1
  P  P65  1  0.85389925  0.99934441  0.75029787  1
  P  P66  1  0.48034542  0.33442631  0.58399054  1
  P  P67  1  0.97960028  0.33380301  0.58369401  1
  P  P68  1  0.18665956  0.03890827  0.58379787  1
  P  P69  1  0.68721597  0.03981327  0.58181698  1
  P  P70  1  0.33249530  0.62629572  0.58361919  1
  P  P71  1  0.83318285  0.62703900  0.58606232  1
  P  P72  1  0.48025283  0.62603873  0.08245266  1
  P  P73  1  0.98050086  0.62614246  0.08288613  1
  P  P74  1  0.33239924  0.03875765  0.08467520  1
  P  P75  1  0.83308491  0.03955743  0.08247276  1
  P  P76  1  0.18613608  0.33410660  0.08212128  1
  P  P77  1  0.68746219  0.33526032  0.08492016  1
  P  P78  1  0.31596478  0.66801530  0.91416033  1
  P  P79  1  0.81596836  0.66808782  0.91416626  1
  P  P80  1  0.01809696  0.36828195  0.91645644  1
  P  P81  1  0.51812267  0.36810159  0.91644318  1
  P  P82  1  0.16611866  0.96367465  0.91619018  1
  P  P83  1  0.66611898  0.96362722  0.91626241  1
  P  P84  1  0.31430882  0.96128991  0.41557424  1
  P  P85  1  0.81668107  0.96374741  0.41684600  1
  P  P86  1  0.16488745  0.36772708  0.41693925  1
  P  P87  1  0.66708071  0.36804338  0.41588975  1
  P  P88  1  0.01873747  0.67069688  0.41611447  1
  P  P89  1  0.51784431  0.66689658  0.41791209  1
  O  O90  1  0.09355517  0.01022822  0.30262174  1
  O  O91  1  0.60457418  0.02391809  0.30526880  1
  O  O92  1  0.40385590  0.79161462  0.30735599  1
  O  O93  1  0.91195343  0.81251658  0.30292612  1
  O  O94  1  0.48684114  0.17823738  0.30100496  1
  O  O95  1  0.99499235  0.17278719  0.30261409  1
  O  O96  1  0.09433299  0.17701064  0.80270480  1
  O  O97  1  0.59423787  0.17699049  0.80273676  1
  O  O98  1  0.49294646  0.81518452  0.80188275  1
  O  O99  1  0.99302075  0.81533902  0.80188650  1
  O  O100  1  0.41336772  0.01249993  0.80327561  1
  O  O101  1  0.91337472  0.01271890  0.80327780  1
  O  O102  1  0.39443780  0.97557163  0.69294336  1
  O  O103  1  0.89423187  0.97557614  0.69297340  1
  O  O104  1  0.09757701  0.21502015  0.69182399  1
  O  O105  1  0.59741732  0.21453874  0.69180523  1
  O  O106  1  0.00987273  0.80790370  0.69134686  1
  O  O107  1  0.50993381  0.80792134  0.69125911  1
  O  O108  1  0.39500723  0.81444962  0.19517708  1
  O  O109  1  0.89321372  0.80518471  0.19215783  1
  O  O110  1  0.00921593  0.21143908  0.19152687  1
  O  O111  1  0.51255157  0.21554358  0.19086961  1
  O  O112  1  0.09732669  0.98182609  0.19184443  1
  O  O113  1  0.59632523  0.98158489  0.19320612  1
  O  O114  1  0.43808358  0.36396224  0.63897298  1
  O  O115  1  0.93758895  0.36336398  0.63877973  1
  O  O116  1  0.24403976  0.12372490  0.63862480  1
  O  O117  1  0.74605393  0.13044933  0.63561056  1
  O  O118  1  0.31940252  0.51563481  0.63968425  1
  O  O119  1  0.81952173  0.52003142  0.64304341  1
  O  O120  1  0.43829757  0.51278961  0.13752684  1
  O  O121  1  0.93896600  0.51261860  0.13812810  1
  O  O122  1  0.31751958  0.11537688  0.14203573  1
  O  O123  1  0.81829961  0.12288251  0.13772772  1
  O  O124  1  0.24271107  0.36383180  0.13729367  1
  O  O125  1  0.74084122  0.36402690  0.14212098  1
  O  O126  1  0.22843467  0.30355788  0.02795333  1
  O  O127  1  0.73210885  0.30602372  0.03180759  1
  O  O128  1  0.42278155  0.54262942  0.02813892  1
  O  O129  1  0.92280682  0.54239504  0.02862382  1
  O  O130  1  0.34725208  0.15827583  0.03186282  1
  O  O131  1  0.84873058  0.15487658  0.02827734  1
  O  O132  1  0.22831746  0.15313119  0.52919936  1
  O  O133  1  0.72659617  0.14631601  0.52500371  1
  O  O134  1  0.34597909  0.54181026  0.52823927  1
  O  O135  1  0.84734111  0.53749623  0.53273349  1
  O  O136  1  0.42280004  0.30280118  0.52952333  1
  O  O137  1  0.92285260  0.30344996  0.52898819  1
  O  O138  1  0.27723537  0.69963608  0.97094322  1
  O  O139  1  0.77729701  0.69965020  0.97098214  1
  O  O140  1  0.07011073  0.43955422  0.97447955  1
  O  O141  1  0.57011557  0.43933917  0.97451152  1
  O  O142  1  0.14914828  0.85946653  0.97426222  1
  O  O143  1  0.64922469  0.85907083  0.97424071  1
  O  O144  1  0.26963630  0.84849481  0.47164391  1
  O  O145  1  0.78191558  0.86183587  0.47555032  1
  O  O146  1  0.14777463  0.43729373  0.47530679  1
  O  O147  1  0.65830449  0.45476990  0.47312992  1
  O  O148  1  0.06899483  0.70241082  0.47499214  1
  O  O149  1  0.57181673  0.69168280  0.47504047  1
  O  O150  1  0.06659323  0.65098071  0.36379890  1
  O  O151  1  0.56493208  0.64750716  0.36437502  1
  O  O152  1  0.26165033  0.87190044  0.35969439  1
  O  O153  1  0.75546323  0.86822893  0.36543078  1
  O  O154  1  0.17899541  0.48919420  0.36540233  1
  O  O155  1  0.67535206  0.47459172  0.36024988  1
  O  O156  1  0.06615579  0.48204266  0.86369328  1
  O  O157  1  0.56593411  0.48214063  0.86372606  1
  O  O158  1  0.17560585  0.86856611  0.86347377  1
  O  O159  1  0.67577482  0.86893693  0.86346374  1
  O  O160  1  0.26253024  0.65047846  0.85898049  1
  O  O161  1  0.76248377  0.65035175  0.85898911  1
  O  O162  1  0.00965789  0.83537329  0.40647070  1
  O  O163  1  0.51097515  0.83243265  0.41320059  1
  O  O164  1  0.40287756  0.97007868  0.41334336  1
  O  O165  1  0.90787078  0.98404791  0.40624511  1
  O  O166  1  0.08435946  0.18468681  0.40643000  1
  O  O167  1  0.58669879  0.18478185  0.41326605  1
  O  O168  1  0.01013019  0.18569420  0.90684483  1
  O  O169  1  0.51014470  0.18563604  0.90688039  1
  O  O170  1  0.08310252  0.98040707  0.90629949  1
  O  O171  1  0.58306799  0.98027101  0.90627425  1
  O  O172  1  0.40804692  0.83525435  0.90648276  1
  O  O173  1  0.90808124  0.83510322  0.90645118  1
  O  O174  1  0.49082475  0.17287578  0.58916466  1
  O  O175  1  0.99078100  0.17304014  0.58891616  1
  O  O176  1  0.09526616  0.01805123  0.58885371  1
  O  O177  1  0.59611446  0.01970462  0.58814164  1
  O  O178  1  0.41349107  0.80990742  0.58827547  1
  O  O179  1  0.91408400  0.81089691  0.58892900  1
  O  O180  1  0.49098699  0.80931476  0.08836504  1
  O  O181  1  0.99126489  0.80921706  0.08860371  1
  O  O182  1  0.41335223  0.01654569  0.08870598  1
  O  O183  1  0.91357286  0.01692131  0.08817357  1
  O  O184  1  0.09452853  0.17242541  0.08797416  1
  O  O185  1  0.59535355  0.17269787  0.08854305  1
  O  O186  1  0.34843657  0.16409636  0.75003235  1
  O  O187  1  0.84821387  0.16380688  0.74993191  1
  O  O188  1  0.23694621  0.31036578  0.74994088  1
  O  O189  1  0.73674535  0.30947332  0.75001464  1
  O  O190  1  0.41419209  0.53585627  0.74968921  1
  O  O191  1  0.91435681  0.53556824  0.74984017  1
  O  O192  1  0.34089883  0.52338094  0.24684826  1
  O  O193  1  0.84602334  0.52703627  0.25058908  1
  O  O194  1  0.41682305  0.30840778  0.24446608  1
  O  O195  1  0.91671265  0.29926031  0.25110510  1
  O  O196  1  0.23698888  0.16232198  0.25061470  1
  O  O197  1  0.73719821  0.17045566  0.24611292  1
  O  O198  1  0.32923340  0.51318269  0.91941631  1
  O  O199  1  0.82913742  0.51314680  0.91949593  1
  O  O200  1  0.42690028  0.33977466  0.92035050  1
  O  O201  1  0.92700047  0.34060174  0.92014471  1
  O  O202  1  0.24369644  0.14561648  0.92017229  1
  O  O203  1  0.74330986  0.14600528  0.92038674  1
  O  O204  1  0.32466994  0.14128579  0.42039054  1
  O  O205  1  0.82483561  0.14240378  0.42099185  1
  O  O206  1  0.24669372  0.35327627  0.42159897  1
  O  O207  1  0.74663922  0.34348808  0.41967477  1
  O  O208  1  0.42532959  0.51142749  0.42137184  1
  O  O209  1  0.92767866  0.51437424  0.41984392  1
  O  O210  1  0.17644370  0.49662372  0.07629479  1
  O  O211  1  0.67748981  0.49721681  0.07719831  1
  O  O212  1  0.07170332  0.64652530  0.07676463  1
  O  O213  1  0.57165652  0.64729689  0.07646102  1
  O  O214  1  0.25151834  0.85616817  0.07691980  1
  O  O215  1  0.75176099  0.85688412  0.07640650  1
  O  O216  1  0.17601903  0.85636375  0.57804952  1
  O  O217  1  0.67672991  0.85696318  0.57802328  1
  O  O218  1  0.25118203  0.64626904  0.57789580  1
  O  O219  1  0.75198871  0.64633382  0.57934370  1
  O  O220  1  0.07070264  0.49648664  0.57798490  1
  O  O221  1  0.57176729  0.49585016  0.57798323  1
  O  O222  1  0.15751836  0.83997440  0.25556065  1
  O  O223  1  0.65981360  0.84146989  0.25460520  1
  O  O224  1  0.26246279  0.69521721  0.25407506  1
  O  O225  1  0.76195940  0.68139268  0.25661489  1
  O  O226  1  0.08101208  0.46860847  0.25659905  1
  O  O227  1  0.58286376  0.47385604  0.25412084  1
  O  O228  1  0.15886181  0.47660856  0.75572727  1
  O  O229  1  0.65890726  0.47645144  0.75577955  1
  O  O230  1  0.07971792  0.68860082  0.75585248  1
  O  O231  1  0.57961365  0.68837714  0.75587344  1
  O  O232  1  0.26619097  0.83304294  0.75654106  1
  O  O233  1  0.76608864  0.83298284  0.75659557  1
