# generated using pymatgen
data_Na2Nb5In3(PO4)12
_symmetry_space_group_name_H-M   'P 1'
_cell_length_a   17.64431286
_cell_length_b   8.82148603
_cell_length_c   22.87327702
_cell_angle_alpha   89.99502960
_cell_angle_beta   90.01135700
_cell_angle_gamma   119.98418692
_symmetry_Int_Tables_number   1
_chemical_formula_structural   Na2Nb5In3(PO4)12
_chemical_formula_sum   'Na6 Nb15 In9 P36 O144'
_cell_volume   3083.71826399
_cell_formula_units_Z   3
loop_
 _symmetry_equiv_pos_site_id
 _symmetry_equiv_pos_as_xyz
  1  'x, y, z'
loop_
 _atom_site_type_symbol
 _atom_site_label
 _atom_site_symmetry_multiplicity
 _atom_site_fract_x
 _atom_site_fract_y
 _atom_site_fract_z
 _atom_site_occupancy
  Na  Na0  1  0.33153661  0.33044390  0.82888356  1
  Na  Na1  1  0.83520557  0.33648162  0.82964221  1
  Na  Na2  1  0.33157145  0.32957720  0.32877587  1
  Na  Na3  1  0.83465914  0.33714422  0.32766486  1
  Na  Na4  1  0.66777922  0.66679690  0.16743719  1
  Na  Na5  1  0.16604649  0.66576582  0.66528464  1
  Nb  Nb6  1  0.50179331  0.00293279  0.35682409  1
  Nb  Nb7  1  0.00219649  0.00086727  0.85611898  1
  Nb  Nb8  1  0.49794819  0.99882922  0.85634083  1
  Nb  Nb9  1  0.00077109  0.00048577  0.64127648  1
  Nb  Nb10  1  0.49955299  0.00000751  0.64102873  1
  Nb  Nb11  1  0.99928313  0.99923622  0.14611391  1
  Nb  Nb12  1  0.50060398  0.00016432  0.14369735  1
  Nb  Nb13  1  0.33527639  0.33659250  0.98145183  1
  Nb  Nb14  1  0.83134958  0.32946371  0.98150550  1
  Nb  Nb15  1  0.32966705  0.33265658  0.47881036  1
  Nb  Nb16  1  0.83746500  0.33559075  0.47912964  1
  Nb  Nb17  1  0.16604326  0.66549391  0.02199322  1
  Nb  Nb18  1  0.66697534  0.66852060  0.52125273  1
  Nb  Nb19  1  0.16437527  0.66386653  0.30918746  1
  Nb  Nb20  1  0.66745371  0.66708982  0.80862966  1
  In  In21  1  0.99723726  0.99730901  0.35592992  1
  In  In22  1  0.33450063  0.33309354  0.68761125  1
  In  In23  1  0.83225695  0.33366760  0.68722709  1
  In  In24  1  0.33276078  0.33224991  0.18764991  1
  In  In25  1  0.83383264  0.33430487  0.18695947  1
  In  In26  1  0.66692775  0.66748470  0.01804224  1
  In  In27  1  0.16807810  0.66807274  0.51806340  1
  In  In28  1  0.66877089  0.66836233  0.31165885  1
  In  In29  1  0.16614705  0.66657740  0.81157384  1
  P  P30  1  0.14409220  0.00127037  0.25121060  1
  P  P31  1  0.64315394  0.99907134  0.25016687  1
  P  P32  1  0.35764891  0.71501518  0.25146055  1
  P  P33  1  0.85396147  0.70920238  0.25024708  1
  P  P34  1  0.99871018  0.28605280  0.25148935  1
  P  P35  1  0.50057301  0.28687809  0.24974690  1
  P  P36  1  0.14307615  0.28620183  0.74929863  1
  P  P37  1  0.64173837  0.28303789  0.75036868  1
  P  P38  1  0.00000303  0.71449893  0.74905822  1
  P  P39  1  0.49982792  0.71596960  0.75059062  1
  P  P40  1  0.35689187  0.99865576  0.74897028  1
  P  P41  1  0.85884133  0.00243273  0.75078143  1
  P  P42  1  0.47725667  0.33497884  0.58258835  1
  P  P43  1  0.97964850  0.33809971  0.58563073  1
  P  P44  1  0.18942744  0.04156313  0.58466840  1
  P  P45  1  0.69051423  0.04562546  0.58354463  1
  P  P46  1  0.33110846  0.61994939  0.58523873  1
  P  P47  1  0.83255289  0.62047089  0.58316400  1
  P  P48  1  0.47967846  0.62304962  0.08587321  1
  P  P49  1  0.97775171  0.62499339  0.08309864  1
  P  P50  1  0.33329425  0.04342761  0.08349474  1
  P  P51  1  0.83279510  0.04046486  0.08568218  1
  P  P52  1  0.18841437  0.33259323  0.08409674  1
  P  P53  1  0.68759043  0.33472816  0.08484368  1
  P  P54  1  0.30971151  0.66384392  0.91637798  1
  P  P55  1  0.81078792  0.66350427  0.91556487  1
  P  P56  1  0.02145756  0.37849813  0.91642461  1
  P  P57  1  0.52178380  0.38058356  0.91557590  1
  P  P58  1  0.16897522  0.95719273  0.91657461  1
  P  P59  1  0.66747640  0.95630623  0.91540608  1
  P  P60  1  0.31019429  0.95717303  0.41524451  1
  P  P61  1  0.81059302  0.95540767  0.41679478  1
  P  P62  1  0.16583324  0.37793050  0.41607811  1
  P  P63  1  0.66885781  0.38080367  0.41671463  1
  P  P64  1  0.02252117  0.66663935  0.41660788  1
  P  P65  1  0.52196249  0.66404292  0.41620895  1
  O  O66  1  0.10474316  0.03040124  0.30495551  1
  O  O67  1  0.59478599  0.01539019  0.30527714  1
  O  O68  1  0.41564952  0.80941060  0.30538287  1
  O  O69  1  0.90626174  0.78964092  0.30489913  1
  O  O70  1  0.49351137  0.17389985  0.30452474  1
  O  O71  1  0.98432288  0.18082818  0.30599731  1
  O  O72  1  0.09507173  0.17447665  0.80516449  1
  O  O73  1  0.59468948  0.17040516  0.80466107  1
  O  O74  1  0.48952170  0.80820303  0.80531854  1
  O  O75  1  0.99340253  0.81279858  0.80459902  1
  O  O76  1  0.41250806  0.01274491  0.80439932  1
  O  O77  1  0.91490453  0.02172630  0.80554815  1
  O  O78  1  0.40636561  0.98327544  0.69438637  1
  O  O79  1  0.89975859  0.97363982  0.69585522  1
  O  O80  1  0.08557318  0.18788045  0.69503230  1
  O  O81  1  0.58678082  0.19979321  0.69511357  1
  O  O82  1  0.00719085  0.82617357  0.69429418  1
  O  O83  1  0.51422727  0.82959005  0.69596001  1
  O  O84  1  0.40079910  0.82645681  0.19599381  1
  O  O85  1  0.90591962  0.82844001  0.19433715  1
  O  O86  1  0.01360423  0.19845580  0.19583460  1
  O  O87  1  0.50729020  0.18812628  0.19426938  1
  O  O88  1  0.08738668  0.97560868  0.19486840  1
  O  O89  1  0.58533799  0.98317991  0.19507037  1
  O  O90  1  0.44478646  0.37502658  0.63779465  1
  O  O91  1  0.93930377  0.36640569  0.63978885  1
  O  O92  1  0.24372491  0.12144268  0.63881089  1
  O  O93  1  0.74301623  0.11007059  0.63884259  1
  O  O94  1  0.31833936  0.51497303  0.64008318  1
  O  O95  1  0.81059703  0.51110793  0.63755956  1
  O  O96  1  0.43929075  0.51066480  0.13903847  1
  O  O97  1  0.94471326  0.51234290  0.13613679  1
  O  O98  1  0.31089705  0.11207641  0.13644698  1
  O  O99  1  0.81672863  0.12042432  0.13882888  1
  O  O100  1  0.24500507  0.37941886  0.13736906  1
  O  O101  1  0.74332389  0.36491133  0.13775646  1
  O  O102  1  0.23503268  0.30587183  0.02975933  1
  O  O103  1  0.73355089  0.30652041  0.02894421  1
  O  O104  1  0.41987697  0.53041418  0.03013862  1
  O  O105  1  0.91766338  0.53269028  0.02858526  1
  O  O106  1  0.34872893  0.16379875  0.02891998  1
  O  O107  1  0.84505284  0.16067471  0.02998955  1
  O  O108  1  0.23376679  0.16132778  0.52950710  1
  O  O109  1  0.73377875  0.16533705  0.53039647  1
  O  O110  1  0.34612636  0.53117598  0.53044733  1
  O  O111  1  0.84937936  0.53358507  0.52961031  1
  O  O112  1  0.41696472  0.30105234  0.52929714  1
  O  O113  1  0.91996662  0.30793777  0.53070637  1
  O  O114  1  0.26617111  0.69389533  0.97009333  1
  O  O115  1  0.77724145  0.70406006  0.97008585  1
  O  O116  1  0.08096478  0.46780678  0.96993059  1
  O  O117  1  0.57488135  0.44602741  0.97039316  1
  O  O118  1  0.15366651  0.83864260  0.97007008  1
  O  O119  1  0.64705706  0.84948970  0.97013915  1
  O  O120  1  0.27938632  0.85499914  0.47095294  1
  O  O121  1  0.75967276  0.83674549  0.47047204  1
  O  O122  1  0.15542995  0.45575572  0.47183943  1
  O  O123  1  0.65286374  0.46763670  0.47039762  1
  O  O124  1  0.07401462  0.69089450  0.47153854  1
  O  O125  1  0.57972715  0.69298062  0.47052001  1
  O  O126  1  0.06673539  0.63262340  0.36213979  1
  O  O127  1  0.55556722  0.62163685  0.36170171  1
  O  O128  1  0.25077707  0.87041415  0.36163970  1
  O  O129  1  0.75402926  0.89076538  0.36245639  1
  O  O130  1  0.18425438  0.50136156  0.36202265  1
  O  O131  1  0.68887279  0.48799264  0.36176985  1
  O  O132  1  0.05475929  0.48798508  0.86183365  1
  O  O133  1  0.56594696  0.49873864  0.86158541  1
  O  O134  1  0.19004478  0.89093836  0.86176113  1
  O  O135  1  0.68290606  0.86733230  0.86159393  1
  O  O136  1  0.25593333  0.62207470  0.86146474  1
  O  O137  1  0.75045934  0.63345134  0.86177862  1
  O  O138  1  0.00627058  0.81508021  0.40800558  1
  O  O139  1  0.51152335  0.82757738  0.40781212  1
  O  O140  1  0.40280773  0.98456498  0.40200405  1
  O  O141  1  0.89982676  0.97587265  0.41555003  1
  O  O142  1  0.09160416  0.19638347  0.40776489  1
  O  O143  1  0.58675812  0.19636463  0.40818050  1
  O  O144  1  0.01164814  0.19504658  0.90782632  1
  O  O145  1  0.50814912  0.19576641  0.90230793  1
  O  O146  1  0.08701713  0.97699720  0.90800013  1
  O  O147  1  0.58869014  0.98336123  0.90196438  1
  O  O148  1  0.40206042  0.82706157  0.90802597  1
  O  O149  1  0.90246642  0.82155635  0.90185394  1
  O  O150  1  0.48780245  0.17083728  0.59199374  1
  O  O151  1  0.98299795  0.16420200  0.59382879  1
  O  O152  1  0.09828212  0.03186616  0.59254339  1
  O  O153  1  0.59856693  0.02637244  0.59310048  1
  O  O154  1  0.41828927  0.80349195  0.59342662  1
  O  O155  1  0.91434791  0.80328804  0.59239099  1
  O  O156  1  0.48276078  0.80190433  0.09293138  1
  O  O157  1  0.98844208  0.80801868  0.09069982  1
  O  O158  1  0.41482900  0.02475762  0.09122738  1
  O  O159  1  0.91909628  0.03313494  0.09255187  1
  O  O160  1  0.09786811  0.16962355  0.09155321  1
  O  O161  1  0.59713793  0.16298208  0.09184462  1
  O  O162  1  0.35291994  0.16753951  0.74855354  1
  O  O163  1  0.84583184  0.15998844  0.74952168  1
  O  O164  1  0.23226073  0.29740553  0.74900847  1
  O  O165  1  0.73276919  0.30573154  0.74900932  1
  O  O166  1  0.42011321  0.53430069  0.74905085  1
  O  O167  1  0.91610936  0.53621698  0.74893923  1
  O  O168  1  0.34750383  0.53371859  0.24904523  1
  O  O169  1  0.84556885  0.52939396  0.24400104  1
  O  O170  1  0.41674436  0.29660569  0.24843620  1
  O  O171  1  0.92212268  0.31758441  0.24463980  1
  O  O172  1  0.23651343  0.15617555  0.24473052  1
  O  O173  1  0.73195920  0.16493276  0.24857722  1
  O  O174  1  0.32454668  0.50627283  0.92865459  1
  O  O175  1  0.82098220  0.49822965  0.92251896  1
  O  O176  1  0.42834072  0.35789754  0.92257556  1
  O  O177  1  0.92839158  0.35102080  0.92908551  1
  O  O178  1  0.24783886  0.14431870  0.92895979  1
  O  O179  1  0.75014118  0.14220337  0.92257828  1
  O  O180  1  0.32199619  0.14488679  0.42317433  1
  O  O181  1  0.81913920  0.13965369  0.43052535  1
  O  O182  1  0.25371772  0.36550857  0.42424016  1
  O  O183  1  0.74780949  0.35284287  0.42934399  1
  O  O184  1  0.42899011  0.50551691  0.42919731  1
  O  O185  1  0.92929661  0.49114877  0.42386574  1
  O  O186  1  0.17622591  0.49132905  0.06788293  1
  O  O187  1  0.67383846  0.48914503  0.07626344  1
  O  O188  1  0.06936366  0.64815072  0.06729586  1
  O  O189  1  0.57065089  0.65122412  0.07706343  1
  O  O190  1  0.25434734  0.86015993  0.06782934  1
  O  O191  1  0.75513929  0.85913463  0.07651361  1
  O  O192  1  0.17437079  0.85874365  0.57725621  1
  O  O193  1  0.67444961  0.85922810  0.56974870  1
  O  O194  1  0.25592096  0.65412768  0.57844761  1
  O  O195  1  0.75439143  0.64857861  0.56860356  1
  O  O196  1  0.07148705  0.48936751  0.57839326  1
  O  O197  1  0.56958652  0.49032838  0.56851756  1
  O  O198  1  0.15034810  0.83012511  0.25927939  1
  O  O199  1  0.64619906  0.82985089  0.25126802  1
  O  O200  1  0.26756622  0.70287285  0.26134986  1
  O  O201  1  0.76520743  0.70193732  0.24764241  1
  O  O202  1  0.08530541  0.46972348  0.25881199  1
  O  O203  1  0.58411560  0.46366688  0.25139203  1
  O  O204  1  0.14782631  0.46324971  0.75155997  1
  O  O205  1  0.64883835  0.46527537  0.76120195  1
  O  O206  1  0.08351892  0.70401319  0.75134765  1
  O  O207  1  0.58417591  0.70257360  0.76126802  1
  O  O208  1  0.26813138  0.83234492  0.75102556  1
  O  O209  1  0.76745652  0.83297757  0.76175062  1
