# generated using pymatgen
data_NaZrScSi(SO6)2
_symmetry_space_group_name_H-M   'P 1'
_cell_length_a   8.94183240
_cell_length_b   8.95303659
_cell_length_c   23.45417156
_cell_angle_alpha   89.85449647
_cell_angle_beta   90.00000000
_cell_angle_gamma   119.95861131
_symmetry_Int_Tables_number   1
_chemical_formula_structural   NaZrScSi(SO6)2
_chemical_formula_sum   'Na6 Zr6 Sc6 Si6 S12 O72'
_cell_volume   1626.77213369
_cell_formula_units_Z   6
loop_
 _symmetry_equiv_pos_site_id
 _symmetry_equiv_pos_as_xyz
  1  'x, y, z'
loop_
 _atom_site_type_symbol
 _atom_site_label
 _atom_site_symmetry_multiplicity
 _atom_site_fract_x
 _atom_site_fract_y
 _atom_site_fract_z
 _atom_site_occupancy
  Na  Na0  1  0.01232876  0.00712427  0.50251699  1
  Na  Na1  1  0.99479551  0.00712427  0.00251699  1
  Na  Na2  1  0.67685595  0.33144720  0.83554889  1
  Na  Na3  1  0.65459225  0.33144720  0.33554889  1
  Na  Na4  1  0.33813712  0.68020715  0.16884318  1
  Na  Na5  1  0.34206903  0.68020715  0.66884318  1
  Zr  Zr6  1  0.01917021  0.01135254  0.35333269  1
  Zr  Zr7  1  0.99218233  0.01135254  0.85333269  1
  Zr  Zr8  1  0.65996926  0.31383937  0.68643714  1
  Zr  Zr9  1  0.65387111  0.31383937  0.18643714  1
  Zr  Zr10  1  0.33257545  0.66479074  0.01965451  1
  Zr  Zr11  1  0.33221430  0.66479074  0.51965451  1
  Sc  Sc12  1  0.99628910  0.99599613  0.64805858  1
  Sc  Sc13  1  0.99970703  0.99599613  0.14805858  1
  Sc  Sc14  1  0.68134108  0.32361411  0.98073766  1
  Sc  Sc15  1  0.64227403  0.32361411  0.48073766  1
  Sc  Sc16  1  0.33773578  0.66688846  0.31425197  1
  Sc  Sc17  1  0.32915169  0.66688846  0.81425197  1
  Si  Si18  1  0.28838993  0.99090855  0.24796695  1
  Si  Si19  1  0.70251862  0.99090855  0.74796695  1
  Si  Si20  1  0.36621485  0.03745558  0.58221650  1
  Si  Si21  1  0.67124173  0.03745558  0.08221650  1
  Si  Si22  1  0.04275824  0.38102599  0.91558542  1
  Si  Si23  1  0.33826675  0.38102599  0.41558542  1
  S  S24  1  0.71003304  0.71038792  0.24987695  1
  S  S25  1  0.00242909  0.29234670  0.24941106  1
  S  S26  1  0.28991761  0.29234670  0.74941106  1
  S  S27  1  0.00035487  0.71038792  0.74987695  1
  S  S28  1  0.95512443  0.33131077  0.58219101  1
  S  S29  1  0.66936463  0.62413561  0.58296143  1
  S  S30  1  0.95477198  0.62413561  0.08296143  1
  S  S31  1  0.37618734  0.33131077  0.08219101  1
  S  S32  1  0.62233594  0.66235227  0.91622650  1
  S  S33  1  0.33395594  0.95851583  0.91605313  1
  S  S34  1  0.62455890  0.95851583  0.41605313  1
  S  S35  1  0.04001532  0.66235227  0.41622650  1
  O  O36  1  0.20140073  0.02721701  0.30507741  1
  O  O37  1  0.81491311  0.79112718  0.30171924  1
  O  O38  1  0.96915044  0.18301588  0.30137218  1
  O  O39  1  0.21386544  0.18301588  0.80137218  1
  O  O40  1  0.97621407  0.79112718  0.80171924  1
  O  O41  1  0.82581628  0.02721701  0.80507741  1
  O  O42  1  0.80177879  0.97324608  0.69320667  1
  O  O43  1  0.18574189  0.21054158  0.69860805  1
  O  O44  1  0.02763283  0.81655284  0.69856093  1
  O  O45  1  0.78892001  0.81655284  0.19856093  1
  O  O46  1  0.02479969  0.21054158  0.19860805  1
  O  O47  1  0.17146729  0.97324608  0.19320667  1
  O  O48  1  0.87840525  0.36250592  0.63459171  1
  O  O49  1  0.49178587  0.12986357  0.63864533  1
  O  O50  1  0.64171791  0.51857617  0.63505491  1
  O  O51  1  0.87685925  0.51857617  0.13505491  1
  O  O52  1  0.63807870  0.12986357  0.13864533  1
  O  O53  1  0.48410167  0.36250592  0.13459171  1
  O  O54  1  0.45783313  0.31059146  0.03144624  1
  O  O55  1  0.85036869  0.54532323  0.03189498  1
  O  O56  1  0.69460073  0.15860088  0.02769558  1
  O  O57  1  0.46400116  0.15860088  0.52769558  1
  O  O58  1  0.69495553  0.54532323  0.53189498  1
  O  O59  1  0.85275933  0.31059146  0.53144624  1
  O  O60  1  0.54616844  0.69647289  0.96807480  1
  O  O61  1  0.16241080  0.46906178  0.97249962  1
  O  O62  1  0.30847550  0.85099164  0.96795837  1
  O  O63  1  0.54251514  0.85099164  0.46795837  1
  O  O64  1  0.30664998  0.46906178  0.47249962  1
  O  O65  1  0.15030345  0.69647289  0.46807480  1
  O  O66  1  0.12347917  0.64247619  0.36519155  1
  O  O67  1  0.51712215  0.87977875  0.36529278  1
  O  O68  1  0.35793450  0.49621393  0.35989762  1
  O  O69  1  0.13827844  0.49621393  0.85989762  1
  O  O70  1  0.36265561  0.87977875  0.86529278  1
  O  O71  1  0.51899602  0.64247619  0.86519155  1
  O  O72  1  0.01978742  0.81887888  0.41030847  1
  O  O73  1  0.79599434  0.97067888  0.40982843  1
  O  O74  1  0.16043763  0.18696961  0.41075086  1
  O  O75  1  0.02653198  0.18696961  0.91075086  1
  O  O76  1  0.17468454  0.97067888  0.90982843  1
  O  O77  1  0.79909145  0.81887888  0.91030847  1
  O  O78  1  0.97631998  0.17960605  0.59001586  1
  O  O79  1  0.17831644  0.01912237  0.59152242  1
  O  O80  1  0.82098363  0.79822173  0.58909547  1
  O  O81  1  0.97723810  0.79822173  0.08909547  1
  O  O82  1  0.84080593  0.01912237  0.09152242  1
  O  O83  1  0.20328607  0.17960605  0.09001586  1
  O  O84  1  0.69215396  0.17199427  0.74397135  1
  O  O85  1  0.46656157  0.31330644  0.74359313  1
  O  O86  1  0.84280083  0.53741635  0.74296088  1
  O  O87  1  0.69461652  0.53741635  0.24296088  1
  O  O88  1  0.84674588  0.31330644  0.24359313  1
  O  O89  1  0.47984131  0.17199427  0.24397135  1
  O  O90  1  0.63900380  0.50954093  0.92438291  1
  O  O91  1  0.85084984  0.35759588  0.92171343  1
  O  O92  1  0.48402418  0.13199991  0.92338653  1
  O  O93  1  0.64797673  0.13199991  0.42338653  1
  O  O94  1  0.50674704  0.35759588  0.42171343  1
  O  O95  1  0.87053813  0.50954093  0.42438291  1
  O  O96  1  0.35879174  0.48956863  0.07747244  1
  O  O97  1  0.13042622  0.64170030  0.07673628  1
  O  O98  1  0.49436537  0.84775252  0.07534830  1
  O  O99  1  0.35338614  0.84775252  0.57534830  1
  O  O100  1  0.51127308  0.64170030  0.57673628  1
  O  O101  1  0.13077589  0.48956863  0.57747244  1
  O  O102  1  0.31359684  0.82613804  0.25766806  1
  O  O103  1  0.53618907  0.69001984  0.25591922  1
  O  O104  1  0.15527483  0.46363319  0.25666741  1
  O  O105  1  0.30835737  0.46363319  0.75666741  1
  O  O106  1  0.15382977  0.69001984  0.75591922  1
  O  O107  1  0.51254020  0.82613804  0.75766806  1
