# generated using pymatgen
data_Na4GaSi2GePO12
_symmetry_space_group_name_H-M   'P 1'
_cell_length_a   8.84682736
_cell_length_b   8.84682707
_cell_length_c   21.66188685
_cell_angle_alpha   90.73212946
_cell_angle_beta   89.26787055
_cell_angle_gamma   120.00804154
_symmetry_Int_Tables_number   1
_chemical_formula_structural   Na4GaSi2GePO12
_chemical_formula_sum   'Na24 Ga6 Si12 Ge6 P6 O72'
_cell_volume   1467.97795844
_cell_formula_units_Z   6
loop_
 _symmetry_equiv_pos_site_id
 _symmetry_equiv_pos_as_xyz
  1  'x, y, z'
loop_
 _atom_site_type_symbol
 _atom_site_label
 _atom_site_symmetry_multiplicity
 _atom_site_fract_x
 _atom_site_fract_y
 _atom_site_fract_z
 _atom_site_occupancy
  Na  Na0  1  0.63605558  0.00481688  0.25035548  1
  Na  Na1  1  0.37133769  0.36771019  0.24656272  1
  Na  Na2  1  0.99156737  0.62490034  0.25022894  1
  Na  Na3  1  0.63228981  0.62866231  0.74656272  1
  Na  Na4  1  0.99518312  0.36394442  0.75035548  1
  Na  Na5  1  0.37509966  0.00843263  0.75022894  1
  Na  Na6  1  0.30272258  0.33814988  0.58368848  1
  Na  Na7  1  0.03800469  0.70104319  0.57989572  1
  Na  Na8  1  0.65823437  0.95823334  0.58356194  1
  Na  Na9  1  0.29895681  0.96199531  0.07989572  1
  Na  Na10  1  0.66185012  0.69727742  0.08368848  1
  Na  Na11  1  0.04176666  0.34176563  0.08356194  1
  Na  Na12  1  0.96938858  0.67148388  0.91702248  1
  Na  Na13  1  0.70467069  0.03437719  0.91322972  1
  Na  Na14  1  0.32490037  0.29156734  0.91689594  1
  Na  Na15  1  0.96562281  0.29532931  0.41322972  1
  Na  Na16  1  0.32851612  0.03061142  0.41702248  1
  Na  Na17  1  0.70843266  0.67509963  0.41689594  1
  Na  Na18  1  0.99651958  0.99497019  0.49796615  1
  Na  Na19  1  0.00502981  0.00348042  0.99796615  1
  Na  Na20  1  0.66318658  0.32830319  0.83129915  1
  Na  Na21  1  0.67169681  0.33681342  0.33129915  1
  Na  Na22  1  0.32985258  0.66163719  0.16463315  1
  Na  Na23  1  0.33836281  0.67014742  0.66463315  1
  Ga  Ga24  1  0.98964122  0.99287940  0.35159105  1
  Ga  Ga25  1  0.00712060  0.01035878  0.85159105  1
  Ga  Ga26  1  0.65630822  0.32621240  0.68492405  1
  Ga  Ga27  1  0.67378760  0.34369178  0.18492405  1
  Ga  Ga28  1  0.32297422  0.65954640  0.01825805  1
  Ga  Ga29  1  0.34045360  0.67702578  0.51825805  1
  Si  Si30  1  0.70811752  0.71087046  0.25061639  1
  Si  Si31  1  0.00123805  0.28947240  0.25125161  1
  Si  Si32  1  0.28912954  0.29188248  0.75061639  1
  Si  Si33  1  0.71052760  0.99876195  0.75125161  1
  Si  Si34  1  0.37478452  0.04420346  0.58394939  1
  Si  Si35  1  0.66790505  0.62280540  0.58458461  1
  Si  Si36  1  0.95579654  0.62521548  0.08394939  1
  Si  Si37  1  0.37719460  0.33209495  0.08458461  1
  Si  Si38  1  0.04145052  0.37753746  0.91728339  1
  Si  Si39  1  0.33457105  0.95613940  0.91791861  1
  Si  Si40  1  0.62246254  0.95854948  0.41728339  1
  Si  Si41  1  0.04386060  0.66542895  0.41791861  1
  Ge  Ge42  1  0.99843532  0.99757337  0.64802875  1
  Ge  Ge43  1  0.00242663  0.00156468  0.14802875  1
  Ge  Ge44  1  0.66510232  0.33090637  0.98136175  1
  Ge  Ge45  1  0.66909363  0.33489768  0.48136175  1
  Ge  Ge46  1  0.33176832  0.66424037  0.31469575  1
  Ge  Ge47  1  0.33575963  0.66823168  0.81469575  1
  P  P48  1  0.28663372  0.99747999  0.25053749  1
  P  P49  1  0.00252001  0.71336628  0.75053749  1
  P  P50  1  0.95330072  0.33081299  0.58387049  1
  P  P51  1  0.66918701  0.04669928  0.08387049  1
  P  P52  1  0.61996672  0.66414699  0.91720449  1
  P  P53  1  0.33585301  0.38003328  0.41720449  1
  O  O54  1  0.20813171  0.03408049  0.30824567  1
  O  O55  1  0.83035905  0.78718538  0.31056881  1
  O  O56  1  0.96774530  0.17153687  0.31152362  1
  O  O57  1  0.21281462  0.16964095  0.81056881  1
  O  O58  1  0.96591951  0.79186829  0.80824567  1
  O  O59  1  0.82846313  0.03225470  0.81152362  1
  O  O60  1  0.79561300  0.95520797  0.68930178  1
  O  O61  1  0.15942807  0.20460825  0.68982166  1
  O  O62  1  0.03957618  0.83063404  0.69203253  1
  O  O63  1  0.79539175  0.84057193  0.18982166  1
  O  O64  1  0.04479203  0.20438700  0.18930178  1
  O  O65  1  0.16936596  0.96042382  0.19203253  1
  O  O66  1  0.87479871  0.36741349  0.64157867  1
  O  O67  1  0.49702605  0.12051838  0.64390181  1
  O  O68  1  0.63441230  0.50486987  0.64485662  1
  O  O69  1  0.87948162  0.50297395  0.14390181  1
  O  O70  1  0.63258651  0.12520129  0.14157867  1
  O  O71  1  0.49513013  0.36558770  0.14485662  1
  O  O72  1  0.46228000  0.28854097  0.02263478  1
  O  O73  1  0.82609507  0.53794125  0.02315466  1
  O  O74  1  0.70624318  0.16396704  0.02536553  1
  O  O75  1  0.46205875  0.17390493  0.52315466  1
  O  O76  1  0.71145903  0.53772000  0.52263478  1
  O  O77  1  0.83603296  0.29375682  0.52536553  1
  O  O78  1  0.54146471  0.70074749  0.97491267  1
  O  O79  1  0.16369205  0.45385238  0.97723581  1
  O  O80  1  0.30107830  0.83820387  0.97819062  1
  O  O81  1  0.54614762  0.83630795  0.47723581  1
  O  O82  1  0.29925251  0.45853529  0.47491267  1
  O  O83  1  0.16179613  0.69892170  0.47819062  1
  O  O84  1  0.12894600  0.62187497  0.35596878  1
  O  O85  1  0.49276107  0.87127525  0.35648866  1
  O  O86  1  0.37290918  0.49730104  0.35869953  1
  O  O87  1  0.12872475  0.50723893  0.85648866  1
  O  O88  1  0.37812503  0.87105400  0.85596878  1
  O  O89  1  0.50269896  0.62709082  0.85869953  1
  O  O90  1  0.02624569  0.83988458  0.41187423  1
  O  O91  1  0.81876725  0.98593037  0.41233439  1
  O  O92  1  0.17568780  0.19511226  0.41084435  1
  O  O93  1  0.01406963  0.18123275  0.91233439  1
  O  O94  1  0.16011542  0.97375431  0.91187423  1
  O  O95  1  0.80488774  0.82431220  0.91084435  1
  O  O96  1  0.96705391  0.16119296  0.58722428  1
  O  O97  1  0.17990778  0.03037307  0.59015105  1
  O  O98  1  0.84777887  0.81942121  0.58893907  1
  O  O99  1  0.96962693  0.82009222  0.09015105  1
  O  O100  1  0.83880704  0.03294609  0.08722428  1
  O  O101  1  0.18057879  0.15222113  0.08893907  1
  O  O102  1  0.69291269  0.17321758  0.74520723  1
  O  O103  1  0.48543425  0.31926337  0.74566739  1
  O  O104  1  0.84235480  0.52844526  0.74417735  1
  O  O105  1  0.68073663  0.51456575  0.24566739  1
  O  O106  1  0.82678242  0.30708731  0.24520723  1
  O  O107  1  0.47155474  0.15764520  0.24417735  1
  O  O108  1  0.63372091  0.49452596  0.92055728  1
  O  O109  1  0.84657478  0.36370607  0.92348405  1
  O  O110  1  0.51444587  0.15275421  0.92227207  1
  O  O111  1  0.63629393  0.15342522  0.42348405  1
  O  O112  1  0.50547404  0.36627909  0.42055728  1
  O  O113  1  0.84724579  0.48555413  0.42227207  1
  O  O114  1  0.35957869  0.50655158  0.07854123  1
  O  O115  1  0.15210025  0.65259737  0.07900139  1
  O  O116  1  0.50902080  0.86177926  0.07751135  1
  O  O117  1  0.34740263  0.84789975  0.57900139  1
  O  O118  1  0.49344842  0.64042131  0.57854123  1
  O  O119  1  0.13822074  0.49097920  0.57751135  1
  O  O120  1  0.30038691  0.82785996  0.25389128  1
  O  O121  1  0.51324078  0.69704007  0.25681805  1
  O  O122  1  0.18111187  0.48608821  0.25560607  1
  O  O123  1  0.30295993  0.48675922  0.75681805  1
  O  O124  1  0.17214004  0.69961309  0.75389128  1
  O  O125  1  0.51391179  0.81888813  0.75560607  1
