# generated using pymatgen
data_Na6Ca4Nb20Si21(S5O48)3
_symmetry_space_group_name_H-M   'P 1'
_cell_length_a   17.86781522
_cell_length_b   8.96119506
_cell_length_c   23.19686503
_cell_angle_alpha   90.03448651
_cell_angle_beta   89.79477826
_cell_angle_gamma   120.04531336
_symmetry_Int_Tables_number   1
_chemical_formula_structural   Na6Ca4Nb20Si21(S5O48)3
_chemical_formula_sum   'Na6 Ca4 Nb20 Si21 S15 O144'
_cell_volume   3215.10847570
_cell_formula_units_Z   1
loop_
 _symmetry_equiv_pos_site_id
 _symmetry_equiv_pos_as_xyz
  1  'x, y, z'
loop_
 _atom_site_type_symbol
 _atom_site_label
 _atom_site_symmetry_multiplicity
 _atom_site_fract_x
 _atom_site_fract_y
 _atom_site_fract_z
 _atom_site_occupancy
  Na  Na0  1  0.99848949  0.99702501  0.49920606  1
  Na  Na1  1  0.50000061  0.00200251  0.00117854  1
  Na  Na2  1  0.33563079  0.31816437  0.83698459  1
  Na  Na3  1  0.83244820  0.33293819  0.83443327  1
  Na  Na4  1  0.33503204  0.33366279  0.33282494  1
  Na  Na5  1  0.83234327  0.35006988  0.33426395  1
  Ca  Ca6  1  0.99806107  0.98215511  0.35506904  1
  Ca  Ca7  1  0.49776882  0.01548446  0.85487286  1
  Ca  Ca8  1  0.99415590  0.00538411  0.64650511  1
  Ca  Ca9  1  0.49567215  0.97944161  0.14811140  1
  Nb  Nb10  1  0.50254378  0.98981886  0.36000503  1
  Nb  Nb11  1  0.99441187  0.00170132  0.86139894  1
  Nb  Nb12  1  0.49200670  0.99075544  0.63861270  1
  Nb  Nb13  1  0.99194129  0.99297195  0.13862976  1
  Nb  Nb14  1  0.33507431  0.33490544  0.68491215  1
  Nb  Nb15  1  0.83805368  0.31901485  0.68427113  1
  Nb  Nb16  1  0.33952744  0.36068810  0.18575443  1
  Nb  Nb17  1  0.83024138  0.32393033  0.18956780  1
  Nb  Nb18  1  0.33075462  0.33178774  0.97827991  1
  Nb  Nb19  1  0.84344360  0.34592325  0.97820965  1
  Nb  Nb20  1  0.34254075  0.34044272  0.47604870  1
  Nb  Nb21  1  0.83001734  0.32863662  0.47682608  1
  Nb  Nb22  1  0.15827509  0.65935233  0.02515223  1
  Nb  Nb23  1  0.66737430  0.66219559  0.02551438  1
  Nb  Nb24  1  0.16834820  0.67440983  0.52392724  1
  Nb  Nb25  1  0.65887923  0.65865324  0.52381466  1
  Nb  Nb26  1  0.16651988  0.67957292  0.31376237  1
  Nb  Nb27  1  0.66809336  0.66048694  0.30800127  1
  Nb  Nb28  1  0.16917879  0.67945044  0.81172929  1
  Nb  Nb29  1  0.66626338  0.65578490  0.81440114  1
  Si  Si30  1  0.64422916  0.99836355  0.25207039  1
  Si  Si31  1  0.35361253  0.71256868  0.25289821  1
  Si  Si32  1  0.85649097  0.70920215  0.24895949  1
  Si  Si33  1  0.35464769  0.00136228  0.74909077  1
  Si  Si34  1  0.85279026  0.99832953  0.75246888  1
  Si  Si35  1  0.47592148  0.33144105  0.58254310  1
  Si  Si36  1  0.97985139  0.33332322  0.57768069  1
  Si  Si37  1  0.69012992  0.04466430  0.58265300  1
  Si  Si38  1  0.32904374  0.60982895  0.58199262  1
  Si  Si39  1  0.47917009  0.62826396  0.07851089  1
  Si  Si40  1  0.97392838  0.61666844  0.08542977  1
  Si  Si41  1  0.82956829  0.04879277  0.08246943  1
  Si  Si42  1  0.19058234  0.33581153  0.08330247  1
  Si  Si43  1  0.80628063  0.65655768  0.91812429  1
  Si  Si44  1  0.02710878  0.38699668  0.91617411  1
  Si  Si45  1  0.52182443  0.37970828  0.92017771  1
  Si  Si46  1  0.16685314  0.95338431  0.91699701  1
  Si  Si47  1  0.31000285  0.95641960  0.41721327  1
  Si  Si48  1  0.66636120  0.38422097  0.41601498  1
  Si  Si49  1  0.02156320  0.66414968  0.41959098  1
  Si  Si50  1  0.52750069  0.66647458  0.41573498  1
  S  S51  1  0.15002291  0.00405069  0.24725688  1
  S  S52  1  0.00162408  0.29578491  0.24926649  1
  S  S53  1  0.49720061  0.29066447  0.25089317  1
  S  S54  1  0.14869546  0.29567339  0.75353427  1
  S  S55  1  0.64976219  0.29690363  0.74742649  1
  S  S56  1  0.99899214  0.70595478  0.75187204  1
  S  S57  1  0.49990358  0.70485552  0.74901721  1
  S  S58  1  0.19336177  0.05106448  0.58047129  1
  S  S59  1  0.83097488  0.61234136  0.58065705  1
  S  S60  1  0.33058588  0.04774489  0.08027534  1
  S  S61  1  0.69309133  0.33538811  0.08035622  1
  S  S62  1  0.30600266  0.66092990  0.91888372  1
  S  S63  1  0.66927005  0.95100617  0.91968248  1
  S  S64  1  0.80682589  0.95135536  0.41942998  1
  S  S65  1  0.16943749  0.38770573  0.41989270  1
  O  O66  1  0.12062121  0.04535922  0.30027595  1
  O  O67  1  0.59642017  0.03145425  0.30813071  1
  O  O68  1  0.41803865  0.80668449  0.30781843  1
  O  O69  1  0.91000980  0.76177110  0.30634016  1
  O  O70  1  0.48319157  0.18240884  0.30184509  1
  O  O71  1  0.98419542  0.19363116  0.30147104  1
  O  O72  1  0.10620639  0.18011252  0.80372472  1
  O  O73  1  0.62035410  0.19594584  0.80031391  1
  O  O74  1  0.48120620  0.76945967  0.80119162  1
  O  O75  1  0.98694862  0.79227158  0.80251853  1
  O  O76  1  0.40764964  0.05710668  0.80668151  1
  O  O77  1  0.91834334  0.02820204  0.80766028  1
  O  O78  1  0.40578322  0.97540554  0.69335587  1
  O  O79  1  0.88229726  0.95424864  0.69467067  1
  O  O80  1  0.10092131  0.23304544  0.70046461  1
  O  O81  1  0.59363204  0.21054259  0.69767964  1
  O  O82  1  0.01720182  0.80258527  0.69905656  1
  O  O83  1  0.51169404  0.81241622  0.69769466  1
  O  O84  1  0.37768950  0.80785838  0.19361169  1
  O  O85  1  0.90735803  0.84104323  0.19339700  1
  O  O86  1  0.01344494  0.21194454  0.19765279  1
  O  O87  1  0.51287458  0.22748962  0.19782538  1
  O  O88  1  0.09371375  0.97810850  0.19746756  1
  O  O89  1  0.59538418  0.95657101  0.19325872  1
  O  O90  1  0.42700650  0.35830182  0.63815513  1
  O  O91  1  0.93184720  0.35662581  0.63878929  1
  O  O92  1  0.24436699  0.13409523  0.63405553  1
  O  O93  1  0.75375044  0.14143304  0.63966776  1
  O  O94  1  0.31477360  0.49229551  0.63970006  1
  O  O95  1  0.81947792  0.50794550  0.63360906  1
  O  O96  1  0.43236572  0.50959424  0.13884003  1
  O  O97  1  0.92650482  0.49173109  0.13869968  1
  O  O98  1  0.31818598  0.12661382  0.13263275  1
  O  O99  1  0.81504176  0.13651312  0.13922854  1
  O  O100  1  0.25409156  0.36502843  0.13935623  1
  O  O101  1  0.74260416  0.35403485  0.13352502  1
  O  O102  1  0.23339042  0.30033612  0.02637526  1
  O  O103  1  0.73934692  0.32057353  0.02872960  1
  O  O104  1  0.41305919  0.50171243  0.02724579  1
  O  O105  1  0.91807869  0.53218521  0.02551581  1
  O  O106  1  0.33633476  0.15011662  0.02709184  1
  O  O107  1  0.84515418  0.17381381  0.02627387  1
  O  O108  1  0.23773731  0.15728358  0.52945649  1
  O  O109  1  0.73319266  0.16753222  0.52689810  1
  O  O110  1  0.34451158  0.51449245  0.52698874  1
  O  O111  1  0.83818679  0.52361037  0.52826645  1
  O  O112  1  0.41712964  0.30217614  0.52534111  1
  O  O113  1  0.91270323  0.32151209  0.52719743  1
  O  O114  1  0.26179085  0.67750972  0.97002602  1
  O  O115  1  0.76475299  0.69135834  0.97413189  1
  O  O116  1  0.08188521  0.47477898  0.97451142  1
  O  O117  1  0.58639656  0.49942423  0.97220278  1
  O  O118  1  0.15475076  0.83094252  0.97225715  1
  O  O119  1  0.66298588  0.85133281  0.97171933  1
  O  O120  1  0.26470580  0.83837740  0.47382623  1
  O  O121  1  0.76236238  0.84787566  0.47116885  1
  O  O122  1  0.16330937  0.47474060  0.47243567  1
  O  O123  1  0.65726185  0.48363762  0.47331667  1
  O  O124  1  0.08587878  0.67291643  0.47232616  1
  O  O125  1  0.58168249  0.68735539  0.47519665  1
  O  O126  1  0.06698918  0.63617811  0.36056745  1
  O  O127  1  0.57169968  0.63326859  0.36117630  1
  O  O128  1  0.24501598  0.86246119  0.36091217  1
  O  O129  1  0.75820658  0.87348983  0.36603714  1
  O  O130  1  0.18183543  0.49177267  0.36719985  1
  O  O131  1  0.68482334  0.50749696  0.35978376  1
  O  O132  1  0.07364766  0.50504474  0.86002586  1
  O  O133  1  0.56817421  0.49853450  0.86060625  1
  O  O134  1  0.18340380  0.86129463  0.85931612  1
  O  O135  1  0.68118221  0.86904134  0.86659405  1
  O  O136  1  0.25608615  0.64237997  0.86496959  1
  O  O137  1  0.74584872  0.62857879  0.86031055  1
  O  O138  1  0.01670239  0.83551433  0.42387623  1
  O  O139  1  0.51499505  0.83379692  0.40993325  1
  O  O140  1  0.40387351  0.98337817  0.40260532  1
  O  O141  1  0.89467360  0.98103948  0.41800976  1
  O  O142  1  0.09277013  0.21710599  0.41618757  1
  O  O143  1  0.58083851  0.19807714  0.40445226  1
  O  O144  1  0.01570368  0.19469300  0.90690628  1
  O  O145  1  0.51602051  0.19751525  0.92327620  1
  O  O146  1  0.08241546  0.97024273  0.90027940  1
  O  O147  1  0.59224488  0.96675377  0.91491992  1
  O  O148  1  0.39332837  0.80746797  0.91570680  1
  O  O149  1  0.90248646  0.82437226  0.90420979  1
  O  O150  1  0.48723689  0.16439980  0.59428080  1
  O  O151  1  0.98897257  0.16714590  0.57665131  1
  O  O152  1  0.10730655  0.02709131  0.58507362  1
  O  O153  1  0.59629920  0.02085424  0.60146584  1
  O  O154  1  0.41701983  0.79802895  0.59409616  1
  O  O155  1  0.90966034  0.77988500  0.58292439  1
  O  O156  1  0.48535644  0.80887347  0.07352685  1
  O  O157  1  0.98770538  0.80978579  0.09425230  1
  O  O158  1  0.40877671  0.03650494  0.08123662  1
  O  O159  1  0.91725813  0.03512320  0.09297631  1
  O  O160  1  0.09703397  0.17237710  0.10068627  1
  O  O161  1  0.60665123  0.18849649  0.08179215  1
  O  O162  1  0.33185858  0.15532140  0.73148672  1
  O  O163  1  0.84426062  0.17884160  0.74510280  1
  O  O164  1  0.23794005  0.31692062  0.74824199  1
  O  O165  1  0.74040282  0.33491708  0.73617983  1
  O  O166  1  0.42161533  0.52308225  0.73913519  1
  O  O167  1  0.91999218  0.53017429  0.74764751  1
  O  O168  1  0.34393929  0.51188618  0.24461971  1
  O  O169  1  0.83773972  0.51539743  0.23061780  1
  O  O170  1  0.41740264  0.31004834  0.24600053  1
  O  O171  1  0.92425895  0.32107594  0.24036759  1
  O  O172  1  0.24040834  0.14697999  0.23593905  1
  O  O173  1  0.74410889  0.17281634  0.24560742  1
  O  O174  1  0.30880221  0.49575702  0.92220526  1
  O  O175  1  0.81507840  0.48344477  0.92354206  1
  O  O176  1  0.42628278  0.36955193  0.92463913  1
  O  O177  1  0.92962928  0.36235290  0.92310622  1
  O  O178  1  0.25144014  0.14400048  0.92361715  1
  O  O179  1  0.74913848  0.12547340  0.92362811  1
  O  O180  1  0.31462215  0.14466305  0.42513457  1
  O  O181  1  0.81013596  0.12390039  0.42381011  1
  O  O182  1  0.24923097  0.37136716  0.42472008  1
  O  O183  1  0.75094652  0.36012016  0.42549935  1
  O  O184  1  0.42933095  0.49494951  0.42408544  1
  O  O185  1  0.92595154  0.48460115  0.42523821  1
  O  O186  1  0.18344880  0.50782233  0.07038034  1
  O  O187  1  0.69142370  0.50084293  0.07486665  1
  O  O188  1  0.06892833  0.63751693  0.07385204  1
  O  O189  1  0.57146384  0.63076639  0.07238651  1
  O  O190  1  0.25212869  0.87448070  0.07194931  1
  O  O191  1  0.74863114  0.85992749  0.07044094  1
  O  O192  1  0.19168433  0.88325758  0.57646046  1
  O  O193  1  0.68376641  0.86001447  0.57120439  1
  O  O194  1  0.24833412  0.63769675  0.57149319  1
  O  O195  1  0.75305231  0.62914853  0.57402684  1
  O  O196  1  0.07176651  0.51512417  0.57213767  1
  O  O197  1  0.56952569  0.50157122  0.57483679  1
  O  O198  1  0.15588005  0.84107621  0.25472586  1
  O  O199  1  0.66236082  0.84293631  0.27213783  1
  O  O200  1  0.25453519  0.66536009  0.27262944  1
  O  O201  1  0.75966930  0.68815954  0.25703380  1
  O  O202  1  0.07847722  0.47085707  0.25523405  1
  O  O203  1  0.57187923  0.47128600  0.26076920  1
  O  O204  1  0.16231158  0.47129198  0.76594165  1
  O  O205  1  0.65566265  0.47126635  0.75531740  1
  O  O206  1  0.07405096  0.67574925  0.76328837  1
  O  O207  1  0.57596457  0.68118847  0.75480824  1
  O  O208  1  0.25844983  0.82486930  0.75822314  1
  O  O209  1  0.75508906  0.84517446  0.77204512  1
