# generated using pymatgen
data_Na6Mg4Nb2P6(SO12)3
_symmetry_space_group_name_H-M   'P 1'
_cell_length_a   8.86421836
_cell_length_b   8.83738138
_cell_length_c   22.39563765
_cell_angle_alpha   90.24371240
_cell_angle_beta   90.00000000
_cell_angle_gamma   120.10050606
_symmetry_Int_Tables_number   1
_chemical_formula_structural   Na6Mg4Nb2P6(SO12)3
_chemical_formula_sum   'Na12 Mg8 Nb4 P12 S6 O72'
_cell_volume   1517.79154081
_cell_formula_units_Z   2
loop_
 _symmetry_equiv_pos_site_id
 _symmetry_equiv_pos_as_xyz
  1  'x, y, z'
loop_
 _atom_site_type_symbol
 _atom_site_label
 _atom_site_symmetry_multiplicity
 _atom_site_fract_x
 _atom_site_fract_y
 _atom_site_fract_z
 _atom_site_occupancy
  Na  Na0  1  0.99609015  0.63936714  0.24617151  1
  Na  Na1  1  0.64327699  0.63936714  0.74617151  1
  Na  Na2  1  0.30298187  0.33826414  0.58593269  1
  Na  Na3  1  0.66776721  0.95938916  0.58394760  1
  Na  Na4  1  0.29162295  0.95938916  0.08394760  1
  Na  Na5  1  0.03528327  0.33826414  0.08593269  1
  Na  Na6  1  0.99569405  0.98573681  0.49184781  1
  Na  Na7  1  0.99004276  0.98573681  0.99184781  1
  Na  Na8  1  0.65770239  0.31151796  0.82575840  1
  Na  Na9  1  0.65381657  0.31151796  0.32575840  1
  Na  Na10  1  0.34558014  0.66685341  0.16544484  1
  Na  Na11  1  0.32127227  0.66685341  0.66544484  1
  Mg  Mg12  1  0.00532527  0.00943568  0.35212524  1
  Mg  Mg13  1  0.00411041  0.00943568  0.85212524  1
  Mg  Mg14  1  0.99576499  0.99563074  0.65329312  1
  Mg  Mg15  1  0.99986575  0.99563074  0.15329312  1
  Mg  Mg16  1  0.66118502  0.32779473  0.68709323  1
  Mg  Mg17  1  0.66661072  0.32779473  0.18709323  1
  Mg  Mg18  1  0.33369225  0.66807031  0.01483381  1
  Mg  Mg19  1  0.33437705  0.66807031  0.51483381  1
  Nb  Nb20  1  0.67467479  0.34426591  0.97415502  1
  Nb  Nb21  1  0.66959212  0.34426591  0.47415502  1
  Nb  Nb22  1  0.33238223  0.66738781  0.31513312  1
  Nb  Nb23  1  0.33500457  0.66738781  0.81513312  1
  P  P24  1  0.29530967  0.00683965  0.24991868  1
  P  P25  1  0.99580571  0.28727333  0.24949233  1
  P  P26  1  0.29146762  0.28727333  0.74949233  1
  P  P27  1  0.71152998  0.00683965  0.74991868  1
  P  P28  1  0.66921128  0.62850836  0.58599211  1
  P  P29  1  0.95929808  0.62850836  0.08599211  1
  P  P30  1  0.62883100  0.67734847  0.91846689  1
  P  P31  1  0.04752081  0.37224199  0.92000233  1
  P  P32  1  0.32653605  0.95631183  0.92051289  1
  P  P33  1  0.62977478  0.95631183  0.42051289  1
  P  P34  1  0.32472018  0.37224199  0.42000233  1
  P  P35  1  0.04851647  0.67734847  0.41846689  1
  S  S36  1  0.70818244  0.70919024  0.25040745  1
  S  S37  1  0.00100780  0.70919024  0.75040745  1
  S  S38  1  0.95768389  0.33743240  0.58402046  1
  S  S39  1  0.37515983  0.04100055  0.58333143  1
  S  S40  1  0.66584172  0.04100055  0.08333143  1
  S  S41  1  0.37974951  0.33743240  0.08402046  1
  O  O42  1  0.20137994  0.01877303  0.30409235  1
  O  O43  1  0.81430739  0.78861440  0.30356041  1
  O  O44  1  0.97318131  0.17768750  0.30296175  1
  O  O45  1  0.20450619  0.17768750  0.80296175  1
  O  O46  1  0.97430700  0.78861440  0.80356041  1
  O  O47  1  0.81739309  0.01877303  0.80409235  1
  O  O48  1  0.77078081  0.95499005  0.69190764  1
  O  O49  1  0.19138906  0.22166974  0.68993461  1
  O  O50  1  0.03351215  0.81378992  0.69606661  1
  O  O51  1  0.78027777  0.81378992  0.19606661  1
  O  O52  1  0.03028068  0.22166974  0.18993461  1
  O  O53  1  0.18420924  0.95499005  0.19190764  1
  O  O54  1  0.87311335  0.35671881  0.63674853  1
  O  O55  1  0.48584135  0.12242748  0.63568134  1
  O  O56  1  0.64116245  0.51414148  0.64015523  1
  O  O57  1  0.87298004  0.51414148  0.14015523  1
  O  O58  1  0.63658714  0.12242748  0.13568134  1
  O  O59  1  0.48360646  0.35671881  0.13674853  1
  O  O60  1  0.46487552  0.31014365  0.02930732  1
  O  O61  1  0.83900692  0.52366371  0.02905191  1
  O  O62  1  0.69042146  0.15379868  0.02902030  1
  O  O63  1  0.46337822  0.15379868  0.52902030  1
  O  O64  1  0.68465779  0.52366371  0.52905191  1
  O  O65  1  0.84526913  0.31014365  0.52930732  1
  O  O66  1  0.53844882  0.69284054  0.97278431  1
  O  O67  1  0.14386954  0.45471288  0.97724344  1
  O  O68  1  0.30971548  0.85741619  0.97733549  1
  O  O69  1  0.54769971  0.85741619  0.47733549  1
  O  O70  1  0.31084233  0.45471288  0.47724344  1
  O  O71  1  0.15439071  0.69284054  0.47278431  1
  O  O72  1  0.12831345  0.63894232  0.36074288  1
  O  O73  1  0.50397444  0.86506556  0.36519335  1
  O  O74  1  0.35968005  0.49565663  0.36501405  1
  O  O75  1  0.13597558  0.49565663  0.86501405  1
  O  O76  1  0.36109012  0.86506556  0.86519335  1
  O  O77  1  0.51062786  0.63894232  0.86074288  1
  O  O78  1  0.01324758  0.82383636  0.40878097  1
  O  O79  1  0.80855021  0.98269826  0.40956466  1
  O  O80  1  0.17491882  0.18998542  0.41104443  1
  O  O81  1  0.01506660  0.18998542  0.91104443  1
  O  O82  1  0.17414804  0.98269826  0.90956466  1
  O  O83  1  0.81058877  0.82383636  0.90878097  1
  O  O84  1  0.97288262  0.17584452  0.58601773  1
  O  O85  1  0.20380190  0.03116089  0.58725799  1
  O  O86  1  0.83310971  0.81050192  0.58593417  1
  O  O87  1  0.97739221  0.81050192  0.08593417  1
  O  O88  1  0.82735899  0.03116089  0.08725799  1
  O  O89  1  0.20296190  0.17584452  0.08601773  1
  O  O90  1  0.68224236  0.16111544  0.74329842  1
  O  O91  1  0.48414037  0.33343676  0.74523541  1
  O  O92  1  0.84658553  0.53177381  0.74360111  1
  O  O93  1  0.68518929  0.53177381  0.24360111  1
  O  O94  1  0.84929740  0.33343676  0.24523541  1
  O  O95  1  0.47887408  0.16111544  0.24329842  1
  O  O96  1  0.63619048  0.49844600  0.92372884  1
  O  O97  1  0.86000873  0.36159929  0.92333211  1
  O  O98  1  0.50233875  0.14227502  0.92536186  1
  O  O99  1  0.63993727  0.14227502  0.42536186  1
  O  O100  1  0.50159156  0.36159929  0.42333211  1
  O  O101  1  0.86225652  0.49844600  0.42372884  1
  O  O102  1  0.35696206  0.49118164  0.07765373  1
  O  O103  1  0.14071103  0.64366163  0.07851153  1
  O  O104  1  0.50879692  0.86607097  0.07638807  1
  O  O105  1  0.35727306  0.86607097  0.57638807  1
  O  O106  1  0.50294959  0.64366163  0.57851153  1
  O  O107  1  0.13421858  0.49118164  0.57765373  1
  O  O108  1  0.31386491  0.83223243  0.25980641  1
  O  O109  1  0.52750814  0.68783147  0.25731421  1
  O  O110  1  0.16994655  0.48150099  0.25915190  1
  O  O111  1  0.31155344  0.48150099  0.75915190  1
  O  O112  1  0.16032233  0.68783147  0.75731421  1
  O  O113  1  0.51836652  0.83223243  0.75980641  1
