# generated using pymatgen
data_Na6Y2Ta2Si5SO24
_symmetry_space_group_name_H-M   'P 1'
_cell_length_a   9.26913193
_cell_length_b   9.25328511
_cell_length_c   22.86607902
_cell_angle_alpha   89.64304387
_cell_angle_beta   90.52811898
_cell_angle_gamma   120.00157369
_symmetry_Int_Tables_number   1
_chemical_formula_structural   Na6Y2Ta2Si5SO24
_chemical_formula_sum   'Na18 Y6 Ta6 Si15 S3 O72'
_cell_volume   1698.36582382
_cell_formula_units_Z   3
loop_
 _symmetry_equiv_pos_site_id
 _symmetry_equiv_pos_as_xyz
  1  'x, y, z'
loop_
 _atom_site_type_symbol
 _atom_site_label
 _atom_site_symmetry_multiplicity
 _atom_site_fract_x
 _atom_site_fract_y
 _atom_site_fract_z
 _atom_site_occupancy
  Na  Na0  1  0.65107961  0.02025776  0.24848547  1
  Na  Na1  1  0.36075163  0.34203510  0.25607802  1
  Na  Na2  1  0.98916305  0.63138771  0.24844765  1
  Na  Na3  1  0.98809105  0.35039955  0.74787407  1
  Na  Na4  1  0.29767283  0.34371737  0.58055334  1
  Na  Na5  1  0.65898846  0.95488304  0.57946048  1
  Na  Na6  1  0.67848099  0.69646527  0.07323925  1
  Na  Na7  1  0.01569601  0.33829035  0.08010357  1
  Na  Na8  1  0.95239843  0.66362264  0.90819941  1
  Na  Na9  1  0.72064911  0.03652085  0.91681482  1
  Na  Na10  1  0.32587897  0.30867350  0.90813678  1
  Na  Na11  1  0.69666094  0.67784295  0.41696746  1
  Na  Na12  1  0.01268301  0.02258645  0.49604437  1
  Na  Na13  1  0.98551386  0.99457199  0.99717944  1
  Na  Na14  1  0.66398264  0.34746538  0.82879357  1
  Na  Na15  1  0.66090300  0.31656154  0.33430898  1
  Na  Na16  1  0.33088672  0.69870381  0.16252809  1
  Na  Na17  1  0.32927168  0.67961124  0.66239689  1
  Y  Y18  1  0.00644930  0.01314745  0.35482085  1
  Y  Y19  1  0.99336746  0.99675067  0.84104402  1
  Y  Y20  1  0.66933940  0.32946659  0.18219046  1
  Y  Y21  1  0.68591155  0.34402567  0.98226335  1
  Y  Y22  1  0.33700266  0.67577276  0.01772515  1
  Y  Y23  1  0.32623008  0.66505625  0.52377346  1
  Ta  Ta24  1  0.99376902  0.99094834  0.64832359  1
  Ta  Ta25  1  0.99388073  0.99370095  0.15395093  1
  Ta  Ta26  1  0.66625229  0.33598756  0.68608603  1
  Ta  Ta27  1  0.65263162  0.31983415  0.48241857  1
  Ta  Ta28  1  0.34750997  0.67142705  0.31435520  1
  Ta  Ta29  1  0.33586558  0.65289148  0.80527915  1
  Si  Si30  1  0.29229816  0.99188631  0.25257923  1
  Si  Si31  1  0.69990407  0.70352207  0.25455323  1
  Si  Si32  1  0.00912790  0.30267187  0.24970558  1
  Si  Si33  1  0.30029680  0.29083546  0.74892177  1
  Si  Si34  1  0.00191071  0.69993565  0.75057571  1
  Si  Si35  1  0.69643161  0.99811299  0.74791637  1
  Si  Si36  1  0.94737650  0.32300067  0.58625550  1
  Si  Si37  1  0.36990208  0.04860078  0.58695783  1
  Si  Si38  1  0.68012694  0.62486080  0.58244001  1
  Si  Si39  1  0.97483506  0.65081592  0.08640170  1
  Si  Si40  1  0.67472544  0.02534686  0.08615481  1
  Si  Si41  1  0.62691274  0.66499281  0.91511462  1
  Si  Si42  1  0.04214322  0.37249753  0.91400280  1
  Si  Si43  1  0.62348184  0.96620698  0.42119248  1
  Si  Si44  1  0.34492496  0.37508227  0.42138268  1
  S  S45  1  0.35364731  0.32027182  0.08328026  1
  S  S46  1  0.33431545  0.95959726  0.91131230  1
  S  S47  1  0.03269289  0.65175185  0.41441633  1
  O  O48  1  0.21343961  0.03224133  0.30704397  1
  O  O49  1  0.81285620  0.77261192  0.31206172  1
  O  O50  1  0.95959006  0.17343502  0.30232815  1
  O  O51  1  0.23706260  0.19891878  0.81080704  1
  O  O52  1  0.96861616  0.76010880  0.81204650  1
  O  O53  1  0.80731931  0.04882320  0.80722265  1
  O  O54  1  0.80267440  0.97216940  0.69392383  1
  O  O55  1  0.16159970  0.19121187  0.69593000  1
  O  O56  1  0.02186609  0.83497461  0.69760160  1
  O  O57  1  0.80328530  0.83645289  0.19799711  1
  O  O58  1  0.03985178  0.20920821  0.19129628  1
  O  O59  1  0.16485329  0.96898769  0.19561454  1
  O  O60  1  0.85113183  0.33610637  0.64353233  1
  O  O61  1  0.49494871  0.15884018  0.63942036  1
  O  O62  1  0.66634346  0.50527496  0.63700662  1
  O  O63  1  0.88026049  0.54090537  0.14316734  1
  O  O64  1  0.65393472  0.11029985  0.14408116  1
  O  O65  1  0.45395438  0.34115651  0.13619660  1
  O  O66  1  0.43486374  0.30436306  0.03036479  1
  O  O67  1  0.85666064  0.57341206  0.02732341  1
  O  O68  1  0.70174618  0.13825750  0.02679482  1
  O  O69  1  0.46471060  0.17048492  0.52701705  1
  O  O70  1  0.69776760  0.53215129  0.52281939  1
  O  O71  1  0.82325772  0.30309935  0.52912093  1
  O  O72  1  0.55300381  0.69042629  0.97566338  1
  O  O73  1  0.13988223  0.45666144  0.97456719  1
  O  O74  1  0.31416049  0.86692542  0.96629599  1
  O  O75  1  0.53610079  0.86294604  0.47939583  1
  O  O76  1  0.33032828  0.46248747  0.47971730  1
  O  O77  1  0.13081764  0.67040494  0.46696676  1
  O  O78  1  0.12200910  0.64258159  0.36052330  1
  O  O79  1  0.49874410  0.86111084  0.36193797  1
  O  O80  1  0.36078840  0.50309612  0.36286990  1
  O  O81  1  0.15292623  0.49473440  0.85701103  1
  O  O82  1  0.34824055  0.86924165  0.86061050  1
  O  O83  1  0.50180399  0.66132178  0.85967337  1
  O  O84  1  0.00399297  0.79431222  0.41145548  1
  O  O85  1  0.79961702  0.96946174  0.41586077  1
  O  O86  1  0.19243701  0.18708670  0.41746874  1
  O  O87  1  0.02514845  0.18785842  0.91126906  1
  O  O88  1  0.18635794  0.98092549  0.90798048  1
  O  O89  1  0.81566754  0.82522819  0.91063491  1
  O  O90  1  0.95444220  0.14620674  0.59086592  1
  O  O91  1  0.19073285  0.04437616  0.59317481  1
  O  O92  1  0.84697505  0.81377234  0.59131365  1
  O  O93  1  0.98733824  0.83575050  0.09425788  1
  O  O94  1  0.85653383  0.02651920  0.09226052  1
  O  O95  1  0.18520411  0.16941599  0.08792688  1
  O  O96  1  0.67524285  0.16174330  0.73640631  1
  O  O97  1  0.48953677  0.32954384  0.73727468  1
  O  O98  1  0.84591244  0.50909783  0.73855324  1
  O  O99  1  0.64804348  0.51238187  0.24229999  1
  O  O100  1  0.85802876  0.34309579  0.24437602  1
  O  O101  1  0.48109099  0.14581949  0.24464888  1
  O  O102  1  0.62191990  0.48550636  0.91299474  1
  O  O103  1  0.85914348  0.36159352  0.91156422  1
  O  O104  1  0.48844095  0.12630002  0.91480372  1
  O  O105  1  0.63936819  0.15360187  0.42399636  1
  O  O106  1  0.52964463  0.38168122  0.42129171  1
  O  O107  1  0.86713532  0.49379990  0.41626567  1
  O  O108  1  0.33286944  0.46899789  0.08023862  1
  O  O109  1  0.15221265  0.65595306  0.08313437  1
  O  O110  1  0.52870281  0.82976924  0.08525709  1
  O  O111  1  0.36468349  0.87318379  0.58609956  1
  O  O112  1  0.51535931  0.64520559  0.58417107  1
  O  O113  1  0.13611307  0.47679544  0.58584243  1
  O  O114  1  0.29333632  0.81287147  0.25827278  1
  O  O115  1  0.52309376  0.71101775  0.25899013  1
  O  O116  1  0.18731635  0.48292628  0.25923733  1
  O  O117  1  0.30780207  0.47738675  0.75331130  1
  O  O118  1  0.17017595  0.67983766  0.75440494  1
  O  O119  1  0.51226425  0.82824799  0.75513935  1
