# generated using pymatgen
data_Na6YTa3(SiO4)6
_symmetry_space_group_name_H-M   'P 1'
_cell_length_a   15.85226431
_cell_length_b   9.12418020
_cell_length_c   9.17494840
_cell_angle_alpha   90.05721159
_cell_angle_beta   125.03194002
_cell_angle_gamma   90.03748243
_symmetry_Int_Tables_number   1
_chemical_formula_structural   Na6YTa3(SiO4)6
_chemical_formula_sum   'Na12 Y2 Ta6 Si12 O48'
_cell_volume   1086.63323210
_cell_formula_units_Z   2
loop_
 _symmetry_equiv_pos_site_id
 _symmetry_equiv_pos_as_xyz
  1  'x, y, z'
loop_
 _atom_site_type_symbol
 _atom_site_label
 _atom_site_symmetry_multiplicity
 _atom_site_fract_x
 _atom_site_fract_y
 _atom_site_fract_z
 _atom_site_occupancy
  Na  Na0  1  0.25285237  0.74974080  0.00020850  1
  Na  Na1  1  0.74883363  0.74998199  0.49431852  1
  Na  Na2  1  0.75285237  0.24974080  0.00020850  1
  Na  Na3  1  0.24883363  0.24998199  0.49431852  1
  Na  Na4  1  0.50697938  0.10192361  0.76259319  1
  Na  Na5  1  0.50128967  0.88049601  0.24497034  1
  Na  Na6  1  0.00697938  0.60192361  0.76259319  1
  Na  Na7  1  0.00128967  0.38049601  0.24497034  1
  Na  Na8  1  0.80140740  0.93654055  0.22758790  1
  Na  Na9  1  0.18526570  0.06604259  0.78506100  1
  Na  Na10  1  0.30140740  0.43654055  0.22758790  1
  Na  Na11  1  0.68526570  0.56604259  0.78506100  1
  Y  Y12  1  0.10338860  0.23827230  0.06477146  1
  Y  Y13  1  0.60338860  0.73827230  0.06477146  1
  Ta  Ta14  1  0.10688487  0.74848926  0.56084777  1
  Ta  Ta15  1  0.89559293  0.75599636  0.93270175  1
  Ta  Ta16  1  0.89191408  0.25093583  0.43724326  1
  Ta  Ta17  1  0.60688487  0.24848926  0.56084777  1
  Ta  Ta18  1  0.39559293  0.25599636  0.93270175  1
  Ta  Ta19  1  0.39191408  0.75093583  0.43724326  1
  Si  Si20  1  0.99534218  0.95260509  0.73743693  1
  Si  Si21  1  0.99790998  0.03972459  0.25985810  1
  Si  Si22  1  0.49534218  0.45260509  0.73743693  1
  Si  Si23  1  0.49790998  0.53972459  0.25985810  1
  Si  Si24  1  0.35343208  0.89782203  0.75937552  1
  Si  Si25  1  0.64757957  0.89696190  0.74721392  1
  Si  Si26  1  0.64598882  0.11773608  0.24487074  1
  Si  Si27  1  0.35999662  0.09919827  0.25146037  1
  Si  Si28  1  0.85343208  0.39782203  0.75937552  1
  Si  Si29  1  0.14757957  0.39696190  0.74721392  1
  Si  Si30  1  0.14598882  0.61773608  0.24487074  1
  Si  Si31  1  0.85999662  0.59919827  0.25146037  1
  O  O32  1  0.15858590  0.57229311  0.71915855  1
  O  O33  1  0.85220277  0.58022601  0.75695407  1
  O  O34  1  0.85538484  0.41872587  0.26206135  1
  O  O35  1  0.15814028  0.44191558  0.25923545  1
  O  O36  1  0.65858590  0.07229311  0.71915855  1
  O  O37  1  0.35220277  0.08022601  0.75695407  1
  O  O38  1  0.35538484  0.91872587  0.26206135  1
  O  O39  1  0.65814028  0.94191558  0.25923545  1
  O  O40  1  0.42664460  0.55945535  0.55920661  1
  O  O41  1  0.58111218  0.55010654  0.90209672  1
  O  O42  1  0.55170744  0.43350779  0.43441144  1
  O  O43  1  0.43413853  0.42626407  0.08449514  1
  O  O44  1  0.92664460  0.05945535  0.55920661  1
  O  O45  1  0.08111218  0.05010654  0.90209672  1
  O  O46  1  0.05170744  0.93350779  0.43441144  1
  O  O47  1  0.93413853  0.92626407  0.08449514  1
  O  O48  1  0.24501923  0.84574609  0.73101916  1
  O  O49  1  0.74254293  0.80477007  0.76437735  1
  O  O50  1  0.74467290  0.19202807  0.25676822  1
  O  O51  1  0.27586200  0.18777891  0.26071693  1
  O  O52  1  0.74501923  0.34574609  0.73101916  1
  O  O53  1  0.24254293  0.30477007  0.76437735  1
  O  O54  1  0.24467290  0.69202807  0.25676822  1
  O  O55  1  0.77586200  0.68777891  0.26071693  1
  O  O56  1  0.36194833  0.84705220  0.59172716  1
  O  O57  1  0.64815234  0.88813148  0.92329599  1
  O  O58  1  0.64657994  0.18131239  0.41221209  1
  O  O59  1  0.35701323  0.13655853  0.07009263  1
  O  O60  1  0.86194833  0.34705220  0.59172716  1
  O  O61  1  0.14815234  0.38813148  0.92329599  1
  O  O62  1  0.14657994  0.68131239  0.41221209  1
  O  O63  1  0.85701323  0.63655853  0.07009263  1
  O  O64  1  0.44865748  0.83515289  0.94475950  1
  O  O65  1  0.53739939  0.82543446  0.57344228  1
  O  O66  1  0.53690328  0.17470160  0.06069099  1
  O  O67  1  0.47556959  0.14559946  0.41975759  1
  O  O68  1  0.94865748  0.33515289  0.94475950  1
  O  O69  1  0.03739939  0.32543446  0.57344228  1
  O  O70  1  0.03690328  0.67470160  0.06069099  1
  O  O71  1  0.97556959  0.64559946  0.41975759  1
  O  O72  1  0.06266190  0.82515233  0.71720520  1
  O  O73  1  0.91457871  0.86023989  0.76238475  1
  O  O74  1  0.90916642  0.13921864  0.25631572  1
  O  O75  1  0.08069791  0.14616143  0.26709584  1
  O  O76  1  0.56266190  0.32515233  0.71720520  1
  O  O77  1  0.41457871  0.36023989  0.76238475  1
  O  O78  1  0.40916642  0.63921864  0.25631572  1
  O  O79  1  0.58069791  0.64616143  0.26709584  1
