# generated using pymatgen
data_Na3InGe3(PO4)6
_symmetry_space_group_name_H-M   'P 1'
_cell_length_a   8.55945684
_cell_length_b   8.56778456
_cell_length_c   21.91351469
_cell_angle_alpha   89.93123783
_cell_angle_beta   90.04025766
_cell_angle_gamma   120.26008727
_symmetry_Int_Tables_number   1
_chemical_formula_structural   Na3InGe3(PO4)6
_chemical_formula_sum   'Na9 In3 Ge9 P18 O72'
_cell_volume   1388.07495566
_cell_formula_units_Z   3
loop_
 _symmetry_equiv_pos_site_id
 _symmetry_equiv_pos_as_xyz
  1  'x, y, z'
loop_
 _atom_site_type_symbol
 _atom_site_label
 _atom_site_symmetry_multiplicity
 _atom_site_fract_x
 _atom_site_fract_y
 _atom_site_fract_z
 _atom_site_occupancy
  Na  Na0  1  0.36310325  0.35638171  0.24821090  1
  Na  Na1  1  0.63322528  0.62860371  0.74946074  1
  Na  Na2  1  0.96775969  0.29605746  0.41550250  1
  Na  Na3  1  0.00074217  0.99103566  0.50107535  1
  Na  Na4  1  -0.00000977  0.00018550  0.00016718  1
  Na  Na5  1  0.66756791  0.32385066  0.83531194  1
  Na  Na6  1  0.66697771  0.33407230  0.33050666  1
  Na  Na7  1  0.33229539  0.67672139  0.16313449  1
  Na  Na8  1  0.32322360  0.66814095  0.66485682  1
  In  In9  1  0.99883408  0.99123100  0.35531215  1
  In  In10  1  0.66710651  0.32671615  0.68502402  1
  In  In11  1  0.67298385  0.33293721  0.17850142  1
  Ge  Ge12  1  0.00140999  0.00136249  0.85660124  1
  Ge  Ge13  1  0.00216769  0.00144998  0.64580181  1
  Ge  Ge14  1  0.99811962  0.99687250  0.14540060  1
  Ge  Ge15  1  0.66678946  0.33311908  0.98139150  1
  Ge  Ge16  1  0.66144901  0.33369672  0.48248249  1
  Ge  Ge17  1  0.33309937  0.66624811  0.01636140  1
  Ge  Ge18  1  0.33508669  0.66797921  0.52019665  1
  Ge  Ge19  1  0.33489372  0.67320622  0.31249099  1
  Ge  Ge20  1  0.32838069  0.66768780  0.81535660  1
  P  P21  1  0.28770225  0.99152490  0.24904580  1
  P  P22  1  0.70504898  0.71194115  0.24936405  1
  P  P23  1  0.00170397  0.29458753  0.25194541  1
  P  P24  1  0.27563518  0.28501880  0.75282343  1
  P  P25  1  0.01190499  0.72496925  0.75249813  1
  P  P26  1  0.71611554  0.99687510  0.75354463  1
  P  P27  1  0.96436578  0.33356789  0.58119414  1
  P  P28  1  0.36935736  0.03528597  0.58168515  1
  P  P29  1  0.66599601  0.62957226  0.58300110  1
  P  P30  1  0.96657602  0.63158752  0.07949076  1
  P  P31  1  0.66548370  0.03413746  0.07975356  1
  P  P32  1  0.36879975  0.33483989  0.08082084  1
  P  P33  1  0.62106288  0.66473665  0.91604501  1
  P  P34  1  0.04388381  0.37866277  0.91661072  1
  P  P35  1  0.33458583  0.95554927  0.91653232  1
  P  P36  1  0.60970518  0.95420216  0.41939437  1
  P  P37  1  0.34684830  0.39025330  0.41846357  1
  P  P38  1  0.04712876  0.66156749  0.42008827  1
  O  O39  1  0.22135016  0.03741691  0.30692114  1
  O  O40  1  0.80747929  0.77765157  0.30862624  1
  O  O41  1  0.97663839  0.19669865  0.31265665  1
  O  O42  1  0.19292483  0.16905494  0.80990802  1
  O  O43  1  0.97269775  0.80734851  0.80888004  1
  O  O44  1  0.83068620  0.02286588  0.81057417  1
  O  O45  1  0.79365208  0.95530441  0.69495780  1
  O  O46  1  0.16450102  0.20490219  0.69340529  1
  O  O47  1  0.04215080  0.83614161  0.69313187  1
  O  O48  1  0.79358111  0.83238126  0.19194839  1
  O  O49  1  0.04254524  0.20532009  0.19610241  1
  O  O50  1  0.16659914  0.95941847  0.19172708  1
  O  O51  1  0.89822073  0.37889664  0.63861294  1
  O  O52  1  0.47739925  0.09929162  0.64008063  1
  O  O53  1  0.62499814  0.52549949  0.64293725  1
  O  O54  1  0.90685306  0.52698363  0.13842689  1
  O  O55  1  0.61891112  0.09379172  0.13822130  1
  O  O56  1  0.47080060  0.37603670  0.14085690  1
  O  O57  1  0.46129274  0.29623643  0.02624104  1
  O  O58  1  0.83666337  0.54132632  0.02414209  1
  O  O59  1  0.70572507  0.16380840  0.02431555  1
  O  O60  1  0.45691802  0.16243920  0.52555514  1
  O  O61  1  0.70441553  0.53907518  0.52785517  1
  O  O62  1  0.84155710  0.29599614  0.52354013  1
  O  O63  1  0.53571629  0.70216614  0.97104670  1
  O  O64  1  0.16507841  0.46181000  0.97243695  1
  O  O65  1  0.29638960  0.83430043  0.97222621  1
  O  O66  1  0.52602437  0.83760228  0.47556698  1
  O  O67  1  0.30974532  0.47725029  0.47320007  1
  O  O68  1  0.16234060  0.68654728  0.47609431  1
  O  O69  1  0.12567193  0.62107480  0.36156057  1
  O  O70  1  0.49831431  0.87315057  0.36008285  1
  O  O71  1  0.37457413  0.49760159  0.35797517  1
  O  O72  1  0.12481301  0.49794401  0.85868569  1
  O  O73  1  0.37359622  0.87544782  0.85877946  1
  O  O74  1  0.50604614  0.62906398  0.85677299  1
  O  O75  1  0.02611191  0.82607912  0.41939222  1
  O  O76  1  0.80204896  0.98421524  0.41808648  1
  O  O77  1  0.17674022  0.20249623  0.41764358  1
  O  O78  1  0.02533146  0.18896973  0.91043003  1
  O  O79  1  0.16357381  0.97437816  0.91003215  1
  O  O80  1  0.81216204  0.83633890  0.91035355  1
  O  O81  1  0.97810309  0.15965809  0.58815304  1
  O  O82  1  0.18104720  0.02057144  0.58793323  1
  O  O83  1  0.83955107  0.81902371  0.58866044  1
  O  O84  1  0.98055646  0.81944297  0.08611443  1
  O  O85  1  0.83965065  0.02040241  0.08706260  1
  O  O86  1  0.17929372  0.16106509  0.08723180  1
  O  O87  1  0.69522267  0.16183653  0.75082750  1
  O  O88  1  0.46810514  0.31473744  0.74972446  1
  O  O89  1  0.84140852  0.53713698  0.74916808  1
  O  O90  1  0.66878342  0.51921914  0.24302988  1
  O  O91  1  0.84229206  0.32161887  0.24615782  1
  O  O92  1  0.47612722  0.15559871  0.24249759  1
  O  O93  1  0.63867892  0.49398055  0.92357897  1
  O  O94  1  0.85465639  0.35982559  0.92382267  1
  O  O95  1  0.50506011  0.14569271  0.92410483  1
  O  O96  1  0.62840018  0.14544428  0.42466712  1
  O  O97  1  0.52027511  0.37704442  0.42506335  1
  O  O98  1  0.85736109  0.48441786  0.42543733  1
  O  O99  1  0.34805741  0.50173190  0.06984362  1
  O  O100  1  0.15554914  0.65379046  0.06915184  1
  O  O101  1  0.49933195  0.84420971  0.06896471  1
  O  O102  1  0.34471440  0.84545054  0.57248252  1
  O  O103  1  0.50021298  0.65249973  0.57286348  1
  O  O104  1  0.15603921  0.49845438  0.57233625  1
  O  O105  1  0.29483338  0.81438334  0.25590694  1
  O  O106  1  0.51546441  0.69955896  0.25461978  1
  O  O107  1  0.18403839  0.48203797  0.25603053  1
  O  O108  1  0.29492212  0.47698729  0.75823512  1
  O  O109  1  0.18441331  0.70960240  0.75868777  1
  O  O110  1  0.52593364  0.81918584  0.75887051  1
