# generated using pymatgen
data_MgMn2V2O7
_symmetry_space_group_name_H-M   'P 1'
_cell_length_a   5.41672520
_cell_length_b   5.67235484
_cell_length_c   5.57849894
_cell_angle_alpha   111.82516375
_cell_angle_beta   95.33570829
_cell_angle_gamma   93.33225334
_symmetry_Int_Tables_number   1
_chemical_formula_structural   MgMn2V2O7
_chemical_formula_sum   'Mg1 Mn2 V2 O7'
_cell_volume   157.62875415
_cell_formula_units_Z   1
loop_
 _symmetry_equiv_pos_site_id
 _symmetry_equiv_pos_as_xyz
  1  'x, y, z'
loop_
 _atom_site_type_symbol
 _atom_site_label
 _atom_site_symmetry_multiplicity
 _atom_site_fract_x
 _atom_site_fract_y
 _atom_site_fract_z
 _atom_site_occupancy
  Mg  Mg0  1  0.86894300  0.66581000  0.57415900  1
  Mn  Mn1  1  0.02753400  0.83211400  0.18411000  1
  Mn  Mn2  1  0.02022100  0.21665100  0.84976300  1
  V  V3  1  0.38604100  0.75724800  0.75880600  1
  V  V4  1  0.62355600  0.20280600  0.24341700  1
  O  O5  1  0.84879900  0.44149600  0.18249900  1
  O  O6  1  0.17969200  0.88723800  0.56587100  1
  O  O7  1  0.12924700  0.56626100  0.82137100  1
  O  O8  1  0.77608200  0.06245600  0.44104700  1
  O  O9  1  0.52183700  0.49227400  0.51115600  1
  O  O10  1  0.29670300  0.06580100  0.07144500  1
  O  O11  1  0.72134600  0.91698700  0.90350000  1
