# generated using pymatgen
data_Zn(AsO2)2
_symmetry_space_group_name_H-M   'P 1'
_cell_length_a   5.02781666
_cell_length_b   4.56109558
_cell_length_c   17.65356353
_cell_angle_alpha   89.48623711
_cell_angle_beta   90.00000000
_cell_angle_gamma   90.00000000
_symmetry_Int_Tables_number   1
_chemical_formula_structural   Zn(AsO2)2
_chemical_formula_sum   'Zn4 As8 O16'
_cell_volume   404.82146391
_cell_formula_units_Z   4
loop_
 _symmetry_equiv_pos_site_id
 _symmetry_equiv_pos_as_xyz
  1  'x, y, z'
loop_
 _atom_site_type_symbol
 _atom_site_label
 _atom_site_symmetry_multiplicity
 _atom_site_fract_x
 _atom_site_fract_y
 _atom_site_fract_z
 _atom_site_occupancy
  Zn  Zn0  1  0.98872475  0.74551661  0.25171260  1
  Zn  Zn1  1  0.48872475  0.25448339  0.24828740  1
  Zn  Zn2  1  0.01127525  0.25448339  0.74828740  1
  Zn  Zn3  1  0.51127525  0.74551661  0.75171260  1
  As  As4  1  0.27423772  0.51397224  0.40815171  1
  As  As5  1  0.77423772  0.48602776  0.09184829  1
  As  As6  1  0.72576228  0.48602776  0.59184829  1
  As  As7  1  0.22576228  0.51397224  0.90815171  1
  As  As8  1  0.71533589  0.01186917  0.40567427  1
  As  As9  1  0.21533589  0.98813083  0.09432573  1
  As  As10  1  0.28466411  0.98813083  0.59432573  1
  As  As11  1  0.78466411  0.01186917  0.90567427  1
  O  O12  1  0.23677699  0.49359530  0.30846083  1
  O  O13  1  0.73677699  0.50640470  0.19153917  1
  O  O14  1  0.76322301  0.50640470  0.69153917  1
  O  O15  1  0.26322301  0.49359530  0.80846083  1
  O  O16  1  0.73655876  0.99775702  0.30592104  1
  O  O17  1  0.23655876  0.00224298  0.19407896  1
  O  O18  1  0.26344124  0.00224298  0.69407896  1
  O  O19  1  0.76344124  0.99775702  0.80592104  1
  O  O20  1  0.37117165  0.89445536  0.41538914  1
  O  O21  1  0.87117165  0.10554464  0.08461086  1
  O  O22  1  0.62882835  0.10554464  0.58461086  1
  O  O23  1  0.12882835  0.89445536  0.91538914  1
  O  O24  1  0.88160674  0.39291827  0.91093427  1
  O  O25  1  0.38160674  0.60708173  0.58906573  1
  O  O26  1  0.11839326  0.60708173  0.08906573  1
  O  O27  1  0.61839326  0.39291827  0.41093427  1
