# generated using pymatgen
data_Na2AlInSi(SO6)2
_symmetry_space_group_name_H-M   'P 1'
_cell_length_a   8.79576921
_cell_length_b   8.82002967
_cell_length_c   22.44002711
_cell_angle_alpha   89.88049762
_cell_angle_beta   89.49277098
_cell_angle_gamma   119.97834173
_symmetry_Int_Tables_number   1
_chemical_formula_structural   Na2AlInSi(SO6)2
_chemical_formula_sum   'Na12 Al6 In6 Si6 S12 O72'
_cell_volume   1507.86805107
_cell_formula_units_Z   6
loop_
 _symmetry_equiv_pos_site_id
 _symmetry_equiv_pos_as_xyz
  1  'x, y, z'
loop_
 _atom_site_type_symbol
 _atom_site_label
 _atom_site_symmetry_multiplicity
 _atom_site_fract_x
 _atom_site_fract_y
 _atom_site_fract_z
 _atom_site_occupancy
  Na  Na0  1  0.00097009  0.62876898  0.25082709  1
  Na  Na1  1  0.37797002  0.00331232  0.74872897  1
  Na  Na2  1  0.66035883  0.96565212  0.59184010  1
  Na  Na3  1  0.03043929  0.33550724  0.09297822  1
  Na  Na4  1  0.98496904  0.67717629  0.92556969  1
  Na  Na5  1  0.32265973  0.01695989  0.42225388  1
  Na  Na6  1  0.01014092  0.98637972  0.50074584  1
  Na  Na7  1  0.01331626  0.98582687  0.00164561  1
  Na  Na8  1  0.66205451  0.30671205  0.83163961  1
  Na  Na9  1  0.68471582  0.33719362  0.33551412  1
  Na  Na10  1  0.33412920  0.66127917  0.17073270  1
  Na  Na11  1  0.33399246  0.66599994  0.66456120  1
  Al  Al12  1  0.98067092  0.99213984  0.34966892  1
  Al  Al13  1  0.01182954  0.00026095  0.64792087  1
  Al  Al14  1  0.66613248  0.32123276  0.68222789  1
  Al  Al15  1  0.68522940  0.32783445  0.18847945  1
  Al  Al16  1  0.67067619  0.34777620  0.48450887  1
  Al  Al17  1  0.30228466  0.63630999  0.31833011  1
  In  In18  1  0.99794654  0.00650222  0.84601089  1
  In  In19  1  0.00143026  0.99318696  0.15558654  1
  In  In20  1  0.66116944  0.33058322  0.98303407  1
  In  In21  1  0.32675707  0.68330844  0.02160133  1
  In  In22  1  0.31480580  0.67696660  0.51627342  1
  In  In23  1  0.35650402  0.68654835  0.81062405  1
  Si  Si24  1  0.00038146  0.28958449  0.25186897  1
  Si  Si25  1  0.72018015  0.01238774  0.74099722  1
  Si  Si26  1  0.37604097  0.05811457  0.58289715  1
  Si  Si27  1  0.95244829  0.62625612  0.08638342  1
  Si  Si28  1  0.33307644  0.97483204  0.91205507  1
  Si  Si29  1  0.02070643  0.66634462  0.41308569  1
  S  S30  1  0.30913960  0.00249725  0.25402905  1
  S  S31  1  0.69007629  0.69884095  0.25467123  1
  S  S32  1  0.30149601  0.29613432  0.74361630  1
  S  S33  1  0.98471964  0.69416334  0.74403869  1
  S  S34  1  0.94877820  0.32989980  0.58382117  1
  S  S35  1  0.67273605  0.61747480  0.58497507  1
  S  S36  1  0.66528868  0.04225674  0.08858995  1
  S  S37  1  0.38040856  0.33568449  0.08866259  1
  S  S38  1  0.62697035  0.66523146  0.91760618  1
  S  S39  1  0.04412611  0.37195264  0.91687197  1
  S  S40  1  0.62967042  0.95749845  0.41438698  1
  S  S41  1  0.33101505  0.37320991  0.41533696  1
  O  O42  1  0.22266349  0.03189741  0.30615881  1
  O  O43  1  0.82139635  0.78760284  0.30294711  1
  O  O44  1  0.97646529  0.15389648  0.30485094  1
  O  O45  1  0.24203143  0.19140421  0.79984160  1
  O  O46  1  0.95690720  0.75525208  0.80269133  1
  O  O47  1  0.81751399  0.03862606  0.80437078  1
  O  O48  1  0.82526821  0.98909825  0.68448412  1
  O  O49  1  0.18423997  0.19878299  0.69383999  1
  O  O50  1  0.02224546  0.82669339  0.69637782  1
  O  O51  1  0.75335670  0.80012389  0.19828317  1
  O  O52  1  0.03490527  0.22423603  0.18770452  1
  O  O53  1  0.19208079  0.94915495  0.20088748  1
  O  O54  1  0.86720553  0.35606600  0.63766079  1
  O  O55  1  0.50024038  0.14905137  0.64025454  1
  O  O56  1  0.65666866  0.51211408  0.63778701  1
  O  O57  1  0.84690881  0.49839323  0.14342850  1
  O  O58  1  0.64485357  0.13442453  0.14027445  1
  O  O59  1  0.48381873  0.33910124  0.14007410  1
  O  O60  1  0.44637155  0.31042167  0.03080866  1
  O  O61  1  0.86225652  0.55056286  0.02143290  1
  O  O62  1  0.68639427  0.13585481  0.03166240  1
  O  O63  1  0.47400364  0.17116696  0.52088543  1
  O  O64  1  0.69592548  0.53787130  0.52962340  1
  O  O65  1  0.84222137  0.31051440  0.53007095  1
  O  O66  1  0.53905280  0.67403052  0.97257130  1
  O  O67  1  0.13986371  0.44661921  0.97324436  1
  O  O68  1  0.28738695  0.84634141  0.96994273  1
  O  O69  1  0.57006355  0.85928020  0.47234145  1
  O  O70  1  0.30261811  0.44647074  0.47095959  1
  O  O71  1  0.15398774  0.73694970  0.47025110  1
  O  O72  1  0.12085978  0.63376953  0.35636783  1
  O  O73  1  0.50670231  0.86061819  0.36582669  1
  O  O74  1  0.35832447  0.49031816  0.36369732  1
  O  O75  1  0.13646628  0.47879549  0.86366713  1
  O  O76  1  0.35409788  0.89437668  0.84873269  1
  O  O77  1  0.52428209  0.63852101  0.86344315  1
  O  O78  1  0.00901068  0.84562201  0.39895882  1
  O  O79  1  0.80876592  0.98430860  0.40460066  1
  O  O80  1  0.17676622  0.19463039  0.40690962  1
  O  O81  1  0.01541578  0.19322031  0.91474591  1
  O  O82  1  0.14828329  0.97945964  0.90938275  1
  O  O83  1  0.80101338  0.82734000  0.91468405  1
  O  O84  1  0.96002283  0.16734607  0.58738079  1
  O  O85  1  0.17685682  0.02996197  0.59283299  1
  O  O86  1  0.82963397  0.79741641  0.58853843  1
  O  O87  1  0.97991943  0.82252616  0.09018785  1
  O  O88  1  0.82773334  0.03214902  0.09217345  1
  O  O89  1  0.19643949  0.18601462  0.09074354  1
  O  O90  1  0.68688517  0.18117256  0.73700234  1
  O  O91  1  0.48173239  0.32536614  0.73459838  1
  O  O92  1  0.82731702  0.52460859  0.73247988  1
  O  O93  1  0.67634127  0.52373960  0.24826881  1
  O  O94  1  0.82516485  0.31629306  0.24619203  1
  O  O95  1  0.47841303  0.16473438  0.24215382  1
  O  O96  1  0.66085910  0.51622066  0.91793871  1
  O  O97  1  0.87199212  0.36679754  0.91784936  1
  O  O98  1  0.50843263  0.16384773  0.91789198  1
  O  O99  1  0.63887110  0.13079154  0.41947132  1
  O  O100  1  0.49014791  0.35372321  0.41915964  1
  O  O101  1  0.83267568  0.48874620  0.42862569  1
  O  O102  1  0.37192976  0.50086614  0.08678588  1
  O  O103  1  0.14206282  0.62738129  0.08890817  1
  O  O104  1  0.50979779  0.86526457  0.08831707  1
  O  O105  1  0.36880605  0.86460522  0.58186000  1
  O  O106  1  0.51284517  0.63515149  0.58090314  1
  O  O107  1  0.12911912  0.48318536  0.58079030  1
  O  O108  1  0.33654652  0.85011290  0.26377590  1
  O  O109  1  0.51791973  0.68215247  0.26841397  1
  O  O110  1  0.17077488  0.49022637  0.26023177  1
  O  O111  1  0.30474445  0.46462079  0.74870498  1
  O  O112  1  0.14388248  0.67501326  0.74560411  1
  O  O113  1  0.52011831  0.83589998  0.74029068  1
