# generated using pymatgen
data_Na2Sc3NbP4(SO12)2
_symmetry_space_group_name_H-M   'P 1'
_cell_length_a   8.82260414
_cell_length_b   8.82612834
_cell_length_c   23.06002984
_cell_angle_alpha   90.19108923
_cell_angle_beta   89.84865867
_cell_angle_gamma   120.05442987
_symmetry_Int_Tables_number   1
_chemical_formula_structural   Na2Sc3NbP4(SO12)2
_chemical_formula_sum   'Na6 Sc9 Nb3 P12 S6 O72'
_cell_volume   1554.23390944
_cell_formula_units_Z   3
loop_
 _symmetry_equiv_pos_site_id
 _symmetry_equiv_pos_as_xyz
  1  'x, y, z'
loop_
 _atom_site_type_symbol
 _atom_site_label
 _atom_site_symmetry_multiplicity
 _atom_site_fract_x
 _atom_site_fract_y
 _atom_site_fract_z
 _atom_site_occupancy
  Na  Na0  1  0.99706039  0.99625869  0.49946352  1
  Na  Na1  1  0.00269041  0.00000888  0.99861537  1
  Na  Na2  1  0.66678965  0.33258724  0.83105798  1
  Na  Na3  1  0.67326233  0.33629363  0.33224654  1
  Na  Na4  1  0.33106885  0.66087424  0.16279067  1
  Na  Na5  1  0.33352991  0.66651087  0.66760106  1
  Sc  Sc6  1  0.98639748  0.99308351  0.35209857  1
  Sc  Sc7  1  0.00066458  0.00067563  0.85209992  1
  Sc  Sc8  1  0.99972125  0.99941455  0.65294054  1
  Sc  Sc9  1  0.99816926  0.00198974  0.14547322  1
  Sc  Sc10  1  0.66651329  0.33347148  0.69024081  1
  Sc  Sc11  1  0.67463496  0.34617830  0.18494610  1
  Sc  Sc12  1  0.67345935  0.33322129  0.47904544  1
  Sc  Sc13  1  0.32796988  0.66132861  0.01863879  1
  Sc  Sc14  1  0.33506318  0.67473209  0.51790936  1
  Nb  Nb15  1  0.66384155  0.34134414  0.97804662  1
  Nb  Nb16  1  0.33105246  0.66779034  0.31218724  1
  Nb  Nb17  1  0.33236906  0.66709546  0.81262818  1
  P  P18  1  0.71125820  0.70948820  0.24984040  1
  P  P19  1  0.99586489  0.28602867  0.25031436  1
  P  P20  1  0.28970086  0.28874854  0.75069839  1
  P  P21  1  0.99876891  0.71039170  0.75067238  1
  P  P22  1  0.71147611  0.00135250  0.75077710  1
  P  P23  1  0.95932026  0.62557088  0.08362707  1
  P  P24  1  0.37555604  0.33404580  0.08447943  1
  P  P25  1  0.62304756  0.67282260  0.91735468  1
  P  P26  1  0.04423686  0.37513232  0.91737214  1
  P  P27  1  0.33078443  0.95412206  0.91798234  1
  P  P28  1  0.62310510  0.95671988  0.41721175  1
  P  P29  1  0.04337822  0.66905679  0.41727475  1
  S  S30  1  0.29068565  0.00267741  0.25039644  1
  S  S31  1  0.95851338  0.33264565  0.58339520  1
  S  S32  1  0.37545148  0.04397212  0.58314647  1
  S  S33  1  0.66673885  0.62422042  0.58307813  1
  S  S34  1  0.66527823  0.04435264  0.08321799  1
  S  S35  1  0.33252128  0.37639923  0.41680165  1
  O  O36  1  0.21240044  0.02661538  0.30333903  1
  O  O37  1  0.81962635  0.79084719  0.30465292  1
  O  O38  1  0.97612437  0.18135491  0.30526941  1
  O  O39  1  0.20991972  0.18069376  0.80464637  1
  O  O40  1  0.97059961  0.79017315  0.80476431  1
  O  O41  1  0.81954159  0.02941432  0.80470454  1
  O  O42  1  0.78474100  0.96396990  0.69519298  1
  O  O43  1  0.17919948  0.21516660  0.69523709  1
  O  O44  1  0.03629913  0.82079402  0.69527163  1
  O  O45  1  0.78629053  0.82256435  0.19595732  1
  O  O46  1  0.03703943  0.21373890  0.19596618  1
  O  O47  1  0.18362683  0.96553939  0.19823621  1
  O  O48  1  0.87800212  0.36147183  0.63519662  1
  O  O49  1  0.48370076  0.12291348  0.63519362  1
  O  O50  1  0.63899779  0.51651315  0.63513591  1
  O  O51  1  0.87429360  0.51050803  0.13687276  1
  O  O52  1  0.63855309  0.12303892  0.13593424  1
  O  O53  1  0.48946823  0.35899190  0.13743320  1
  O  O54  1  0.47095991  0.30808170  0.02882095  1
  O  O55  1  0.83706574  0.52780538  0.02893196  1
  O  O56  1  0.69319759  0.15510171  0.03042366  1
  O  O57  1  0.45733797  0.15048995  0.53051970  1
  O  O58  1  0.69222177  0.54186296  0.53038101  1
  O  O59  1  0.85022878  0.30628790  0.53078057  1
  O  O60  1  0.53933150  0.69381096  0.97160541  1
  O  O61  1  0.15380045  0.45968736  0.97088323  1
  O  O62  1  0.30747640  0.84562464  0.97138812  1
  O  O63  1  0.53860579  0.84208931  0.47058477  1
  O  O64  1  0.30488343  0.45644893  0.46897517  1
  O  O65  1  0.15655060  0.69340547  0.47055855  1
  O  O66  1  0.13697952  0.64097061  0.36232771  1
  O  O67  1  0.50365783  0.86141504  0.36254161  1
  O  O68  1  0.36083495  0.48818207  0.36382322  1
  O  O69  1  0.13053867  0.49511330  0.86250205  1
  O  O70  1  0.36423787  0.86865403  0.86251110  1
  O  O71  1  0.50453362  0.63515872  0.86233611  1
  O  O72  1  0.02906229  0.83273979  0.40894772  1
  O  O73  1  0.80461776  0.97653945  0.41009767  1
  O  O74  1  0.17739306  0.20234293  0.40922754  1
  O  O75  1  0.01979359  0.19380677  0.90941848  1
  O  O76  1  0.17502751  0.98015711  0.90956538  1
  O  O77  1  0.80664516  0.82560671  0.90962363  1
  O  O78  1  0.97601475  0.17450907  0.58851658  1
  O  O79  1  0.19850450  0.02368410  0.58855232  1
  O  O80  1  0.82470268  0.80086224  0.58852337  1
  O  O81  1  0.97054602  0.80414958  0.08834834  1
  O  O82  1  0.82475103  0.02890940  0.08793242  1
  O  O83  1  0.19553721  0.16686714  0.08808262  1
  O  O84  1  0.68407264  0.15899089  0.74254067  1
  O  O85  1  0.47489609  0.31601262  0.74253081  1
  O  O86  1  0.84109665  0.52504065  0.74252048  1
  O  O87  1  0.68170950  0.52333630  0.24476072  1
  O  O88  1  0.83837436  0.31328539  0.24427361  1
  O  O89  1  0.46876667  0.15289707  0.24408090  1
  O  O90  1  0.63849280  0.50015357  0.92414301  1
  O  O91  1  0.85873013  0.35972194  0.92526504  1
  O  O92  1  0.50239971  0.13994580  0.92525358  1
  O  O93  1  0.63629779  0.13686688  0.42198063  1
  O  O94  1  0.49199536  0.36202630  0.42206125  1
  O  O95  1  0.86211607  0.50245248  0.42201703  1
  O  O96  1  0.36078225  0.49771130  0.07638817  1
  O  O97  1  0.13946173  0.64332259  0.07636168  1
  O  O98  1  0.50988927  0.86917332  0.07665944  1
  O  O99  1  0.35734295  0.86664634  0.57706215  1
  O  O100  1  0.50764796  0.64143238  0.57652159  1
  O  O101  1  0.13494353  0.49074535  0.57629755  1
  O  O102  1  0.30881516  0.83895672  0.25795604  1
  O  O103  1  0.52248059  0.68958281  0.26103522  1
  O  O104  1  0.16624464  0.47643357  0.26105111  1
  O  O105  1  0.31040435  0.47709635  0.75934877  1
  O  O106  1  0.16663218  0.68972281  0.75915154  1
  O  O107  1  0.52300142  0.83316700  0.75933309  1
