# generated using pymatgen
data_NaCa2Zr2PS5O24
_symmetry_space_group_name_H-M   'P 1'
_cell_length_a   9.09656301
_cell_length_b   9.11227217
_cell_length_c   23.72695439
_cell_angle_alpha   89.79879410
_cell_angle_beta   90.02180229
_cell_angle_gamma   120.08199985
_symmetry_Int_Tables_number   1
_chemical_formula_structural   NaCa2Zr2PS5O24
_chemical_formula_sum   'Na3 Ca6 Zr6 P3 S15 O72'
_cell_volume   1701.82134919
_cell_formula_units_Z   3
loop_
 _symmetry_equiv_pos_site_id
 _symmetry_equiv_pos_as_xyz
  1  'x, y, z'
loop_
 _atom_site_type_symbol
 _atom_site_label
 _atom_site_symmetry_multiplicity
 _atom_site_fract_x
 _atom_site_fract_y
 _atom_site_fract_z
 _atom_site_occupancy
  Na  Na0  1  0.67018159  0.33265691  0.82751760  1
  Na  Na1  1  0.65894474  0.33473051  0.33191509  1
  Na  Na2  1  0.33782668  0.67024811  0.16242408  1
  Ca  Ca3  1  0.99932655  0.00296036  0.85582939  1
  Ca  Ca4  1  0.66658135  0.33205612  0.68318363  1
  Ca  Ca5  1  0.66142285  0.33318514  0.19005690  1
  Ca  Ca6  1  0.66582905  0.33388819  0.48575510  1
  Ca  Ca7  1  0.33214958  0.66354909  0.01695487  1
  Ca  Ca8  1  0.33382902  0.66687391  0.52204012  1
  Zr  Zr9  1  0.00159140  0.99459279  0.35365492  1
  Zr  Zr10  1  0.99804045  0.99969136  0.64660923  1
  Zr  Zr11  1  0.99916231  0.99095845  0.14572415  1
  Zr  Zr12  1  0.67213160  0.33232109  0.97783877  1
  Zr  Zr13  1  0.33993769  0.67347896  0.31193722  1
  Zr  Zr14  1  0.32309542  0.65817394  0.81191914  1
  P  P15  1  0.28247476  0.99398246  0.25156793  1
  P  P16  1  0.71358554  0.71774548  0.25173104  1
  P  P17  1  0.04010384  0.37936811  0.91691862  1
  S  S18  1  0.00658751  0.28827897  0.25140918  1
  S  S19  1  0.29092313  0.29310570  0.75125305  1
  S  S20  1  0.00236229  0.71036151  0.75155953  1
  S  S21  1  0.70405913  0.99442688  0.75163670  1
  S  S22  1  0.96203239  0.32734763  0.58495985  1
  S  S23  1  0.36436147  0.03735979  0.58517208  1
  S  S24  1  0.67277694  0.63460400  0.58511252  1
  S  S25  1  0.95625614  0.62478136  0.08468395  1
  S  S26  1  0.67149128  0.04434525  0.08508081  1
  S  S27  1  0.37238001  0.32931160  0.08475296  1
  S  S28  1  0.62015455  0.65752907  0.91625864  1
  S  S29  1  0.34140547  0.96135734  0.91617803  1
  S  S30  1  0.62778273  0.95966985  0.41327296  1
  S  S31  1  0.33064871  0.37456811  0.41258152  1
  S  S32  1  0.04280341  0.66610502  0.41318332  1
  O  O33  1  0.18576586  0.00762823  0.30299679  1
  O  O34  1  0.82148386  0.81707597  0.30309447  1
  O  O35  1  0.99103402  0.18519678  0.30202137  1
  O  O36  1  0.21370605  0.19121409  0.80128663  1
  O  O37  1  0.97967161  0.78792026  0.80161424  1
  O  O38  1  0.80767479  0.01931039  0.80116628  1
  O  O39  1  0.78785685  0.97221309  0.70023454  1
  O  O40  1  0.18472949  0.21196613  0.70015749  1
  O  O41  1  0.02586253  0.81617148  0.70031511  1
  O  O42  1  0.79999959  0.82746399  0.19767746  1
  O  O43  1  0.02900383  0.20834286  0.19984170  1
  O  O44  1  0.17298236  0.97343666  0.19783689  1
  O  O45  1  0.88196662  0.35179460  0.63444954  1
  O  O46  1  0.47009760  0.11747948  0.63444353  1
  O  O47  1  0.64778288  0.52942825  0.63462160  1
  O  O48  1  0.87786115  0.52378245  0.13502180  1
  O  O49  1  0.64762912  0.12300802  0.13494947  1
  O  O50  1  0.47440882  0.35275976  0.13498788  1
  O  O51  1  0.45568756  0.30666721  0.03351337  1
  O  O52  1  0.85000602  0.54141197  0.03333820  1
  O  O53  1  0.69314771  0.15148323  0.03329090  1
  O  O54  1  0.43148733  0.14238289  0.53395078  1
  O  O55  1  0.71065281  0.56803930  0.53403418  1
  O  O56  1  0.85712314  0.28988879  0.53392980  1
  O  O57  1  0.54657643  0.68049725  0.96750498  1
  O  O58  1  0.13809620  0.46061582  0.96955709  1
  O  O59  1  0.32315545  0.86712303  0.96778026  1
  O  O60  1  0.55808958  0.86088206  0.46411960  1
  O  O61  1  0.30284393  0.44275608  0.46382588  1
  O  O62  1  0.13958462  0.69405430  0.46432261  1
  O  O63  1  0.13834423  0.65224280  0.36313169  1
  O  O64  1  0.51467924  0.86362175  0.36307052  1
  O  O65  1  0.34742242  0.48742127  0.36263147  1
  O  O66  1  0.13166704  0.50030623  0.86386824  1
  O  O67  1  0.37157391  0.87933837  0.86586053  1
  O  O68  1  0.50815651  0.63002424  0.86595947  1
  O  O69  1  0.02496679  0.81985448  0.40263149  1
  O  O70  1  0.79728328  0.97765048  0.40132463  1
  O  O71  1  0.17734475  0.20525563  0.40073751  1
  O  O72  1  0.00657644  0.20470862  0.90578641  1
  O  O73  1  0.19972132  0.98760861  0.90724337  1
  O  O74  1  0.79001420  0.79619667  0.90702276  1
  O  O75  1  0.97849737  0.17050991  0.59682975  1
  O  O76  1  0.19100335  0.02082294  0.59733544  1
  O  O77  1  0.82975968  0.80820936  0.59680717  1
  O  O78  1  0.96621142  0.79585573  0.09109852  1
  O  O79  1  0.83092811  0.03383076  0.09215530  1
  O  O80  1  0.20065512  0.17072945  0.09279379  1
  O  O81  1  0.67699139  0.13975949  0.74430011  1
  O  O82  1  0.46443888  0.32336948  0.74421860  1
  O  O83  1  0.85885238  0.53696545  0.74470235  1
  O  O84  1  0.69517534  0.54347323  0.24991502  1
  O  O85  1  0.85747772  0.30784548  0.24820477  1
  O  O86  1  0.45893102  0.14745097  0.24965496  1
  O  O87  1  0.63040161  0.49460904  0.92342354  1
  O  O88  1  0.85716150  0.36875826  0.92413298  1
  O  O89  1  0.50297935  0.13713469  0.92271686  1
  O  O90  1  0.64410132  0.12819792  0.41392387  1
  O  O91  1  0.48212268  0.35585288  0.41338010  1
  O  O92  1  0.87231225  0.51549202  0.41405421  1
  O  O93  1  0.34531188  0.47462662  0.07864016  1
  O  O94  1  0.12997976  0.65655218  0.07836559  1
  O  O95  1  0.52661911  0.87221949  0.07792037  1
  O  O96  1  0.33654063  0.86701106  0.57724969  1
  O  O97  1  0.53007585  0.66253831  0.57722525  1
  O  O98  1  0.13304090  0.46983785  0.57714843  1
  O  O99  1  0.29262354  0.82739274  0.25846832  1
  O  O100  1  0.53439094  0.70371588  0.25838554  1
  O  O101  1  0.16414913  0.45993938  0.25760231  1
  O  O102  1  0.30273095  0.46488719  0.75876608  1
  O  O103  1  0.16374204  0.70016496  0.75849101  1
  O  O104  1  0.53350427  0.83574369  0.75959747  1
