# generated using pymatgen
data_Sn3BF9
_symmetry_space_group_name_H-M   'P 1'
_cell_length_a   7.59723697
_cell_length_b   10.17788048
_cell_length_c   10.75738611
_cell_angle_alpha   83.00799376
_cell_angle_beta   90.00000000
_cell_angle_gamma   90.00000000
_symmetry_Int_Tables_number   1
_chemical_formula_structural   Sn3BF9
_chemical_formula_sum   'Sn12 B4 F36'
_cell_volume   825.61565928
_cell_formula_units_Z   4
loop_
 _symmetry_equiv_pos_site_id
 _symmetry_equiv_pos_as_xyz
  1  'x, y, z'
loop_
 _atom_site_type_symbol
 _atom_site_label
 _atom_site_symmetry_multiplicity
 _atom_site_fract_x
 _atom_site_fract_y
 _atom_site_fract_z
 _atom_site_occupancy
  Sn  Sn0  1  0.59707571  0.31973836  0.06515269  1
  Sn  Sn1  1  0.09707571  0.68026164  0.43484731  1
  Sn  Sn2  1  0.40292429  0.68026164  0.93484731  1
  Sn  Sn3  1  0.90292429  0.31973836  0.56515269  1
  Sn  Sn4  1  0.36707334  0.20120530  0.44431951  1
  Sn  Sn5  1  0.86707334  0.79879470  0.05568049  1
  Sn  Sn6  1  0.63292666  0.79879470  0.55568049  1
  Sn  Sn7  1  0.13292666  0.20120530  0.94431951  1
  Sn  Sn8  1  0.84053910  0.06035886  0.31699993  1
  Sn  Sn9  1  0.34053910  0.93964114  0.18300007  1
  Sn  Sn10  1  0.15946090  0.93964114  0.68300007  1
  Sn  Sn11  1  0.65946090  0.06035886  0.81699993  1
  B  B12  1  0.07586362  0.40353583  0.20238065  1
  B  B13  1  0.57586362  0.59646417  0.29761935  1
  B  B14  1  0.92413638  0.59646417  0.79761935  1
  B  B15  1  0.42413638  0.40353583  0.70238065  1
  F  F16  1  0.55123206  0.46066384  0.31441230  1
  F  F17  1  0.05123206  0.53933616  0.18558770  1
  F  F18  1  0.44876794  0.53933616  0.68558770  1
  F  F19  1  0.94876794  0.46066384  0.81441230  1
  F  F20  1  0.22746534  0.36845220  0.13865452  1
  F  F21  1  0.72746534  0.63154780  0.36134548  1
  F  F22  1  0.77253466  0.63154780  0.86134548  1
  F  F23  1  0.27253466  0.36845220  0.63865452  1
  F  F24  1  0.38815294  0.03606593  0.59308997  1
  F  F25  1  0.88815294  0.96393407  0.90691003  1
  F  F26  1  0.61184706  0.96393407  0.40691003  1
  F  F27  1  0.11184706  0.03606593  0.09308997  1
  F  F28  1  0.23969221  0.06894981  0.82675607  1
  F  F29  1  0.73969221  0.93105019  0.67324393  1
  F  F30  1  0.76030779  0.93105019  0.17324393  1
  F  F31  1  0.26030779  0.06894981  0.32675607  1
  F  F32  1  0.87707927  0.17897046  0.72768639  1
  F  F33  1  0.37707927  0.82102954  0.77231361  1
  F  F34  1  0.12292073  0.82102954  0.27231361  1
  F  F35  1  0.62292073  0.17897046  0.22768639  1
  F  F36  1  0.10154504  0.17255808  0.53249487  1
  F  F37  1  0.60154504  0.82744192  0.96750513  1
  F  F38  1  0.89845496  0.82744192  0.46750513  1
  F  F39  1  0.39845496  0.17255808  0.03249487  1
  F  F40  1  0.75266958  0.19207641  0.97572802  1
  F  F41  1  0.25266958  0.80792359  0.52427198  1
  F  F42  1  0.24733042  0.80792359  0.02427198  1
  F  F43  1  0.74733042  0.19207641  0.47572802  1
  F  F44  1  0.57073116  0.33718630  0.65671068  1
  F  F45  1  0.07073116  0.66281370  0.84328932  1
  F  F46  1  0.42926884  0.66281370  0.34328932  1
  F  F47  1  0.92926884  0.33718630  0.15671068  1
  F  F48  1  0.40514697  0.35776564  0.83179458  1
  F  F49  1  0.90514697  0.64223436  0.66820542  1
  F  F50  1  0.59485303  0.64223436  0.16820542  1
  F  F51  1  0.09485303  0.35776564  0.33179458  1
