# generated using pymatgen
data_Na3TiSi2GePO12
_symmetry_space_group_name_H-M   'P 1'
_cell_length_a   8.79483662
_cell_length_b   8.80669068
_cell_length_c   21.71555841
_cell_angle_alpha   89.90222087
_cell_angle_beta   90.12996084
_cell_angle_gamma   120.03885488
_symmetry_Int_Tables_number   1
_chemical_formula_structural   Na3TiSi2GePO12
_chemical_formula_sum   'Na18 Ti6 Si12 Ge6 P6 O72'
_cell_volume   1456.03149321
_cell_formula_units_Z   6
loop_
 _symmetry_equiv_pos_site_id
 _symmetry_equiv_pos_as_xyz
  1  'x, y, z'
loop_
 _atom_site_type_symbol
 _atom_site_label
 _atom_site_symmetry_multiplicity
 _atom_site_fract_x
 _atom_site_fract_y
 _atom_site_fract_z
 _atom_site_occupancy
  Na  Na0  1  0.00171878  0.99632715  0.50023510  1
  Na  Na1  1  0.00580923  0.00052826  0.00036843  1
  Na  Na2  1  0.66718372  0.32807906  0.83492649  1
  Na  Na3  1  0.66849228  0.33228325  0.33227115  1
  Na  Na4  1  0.33214568  0.66338255  0.16559778  1
  Na  Na5  1  0.33774992  0.66568315  0.66846437  1
  Na  Na6  1  0.63576551  0.99972114  0.24901642  1
  Na  Na7  1  0.00136329  0.63704321  0.25153524  1
  Na  Na8  1  0.99333687  0.36424716  0.75042923  1
  Na  Na9  1  0.37152375  0.00258690  0.75433108  1
  Na  Na10  1  0.29928051  0.33524360  0.58292418  1
  Na  Na11  1  0.66658321  0.96457036  0.58615490  1
  Na  Na12  1  0.66842456  0.70470606  0.08318470  1
  Na  Na13  1  0.03712176  0.33042617  0.08463672  1
  Na  Na14  1  0.96517740  0.66693866  0.91762446  1
  Na  Na15  1  0.33517839  0.29721037  0.91996839  1
  Na  Na16  1  0.33139068  0.03753274  0.41557516  1
  Na  Na17  1  0.70370419  0.66502459  0.41909926  1
  Ti  Ti18  1  0.98778775  0.99687612  0.35277573  1
  Ti  Ti19  1  0.99495901  0.99640326  0.64836271  1
  Ti  Ti20  1  0.00621051  0.00255850  0.14443022  1
  Ti  Ti21  1  0.65489403  0.33032538  0.69014771  1
  Ti  Ti22  1  0.67353654  0.33626507  0.47777867  1
  Ti  Ti23  1  0.33512719  0.67615184  0.52133910  1
  Si  Si24  1  0.70102276  0.70184930  0.24839017  1
  Si  Si25  1  0.00348898  0.29430385  0.24687195  1
  Si  Si26  1  0.28699343  0.29429092  0.75392302  1
  Si  Si27  1  0.70896825  0.99020350  0.75392004  1
  Si  Si28  1  0.37361925  0.04373516  0.58322796  1
  Si  Si29  1  0.67246890  0.62403719  0.58192968  1
  Si  Si30  1  0.95506522  0.61751491  0.08116481  1
  Si  Si31  1  0.38582434  0.33455419  0.08004522  1
  Si  Si32  1  0.04263842  0.37631274  0.91707676  1
  Si  Si33  1  0.33780469  0.95271009  0.91656695  1
  Si  Si34  1  0.61803095  0.95407507  0.41414747  1
  Si  Si35  1  0.04665407  0.66240136  0.41218497  1
  Ge  Ge36  1  0.00646007  0.00924496  0.85656536  1
  Ge  Ge37  1  0.67152854  0.34264072  0.18564794  1
  Ge  Ge38  1  0.66452110  0.32609193  0.97859688  1
  Ge  Ge39  1  0.32382717  0.66035113  0.01992481  1
  Ge  Ge40  1  0.33017345  0.65845475  0.31137649  1
  Ge  Ge41  1  0.33598191  0.66947683  0.81490308  1
  P  P42  1  0.29528050  0.00814029  0.24990069  1
  P  P43  1  0.99735105  0.71374929  0.75503545  1
  P  P44  1  0.95507567  0.33813045  0.58625507  1
  P  P45  1  0.65695664  0.04532499  0.08284828  1
  P  P46  1  0.62117897  0.67310727  0.91769727  1
  P  P47  1  0.32893276  0.37944235  0.41626040  1
  O  O48  1  0.21504298  0.02820112  0.31002134  1
  O  O49  1  0.82911525  0.79266069  0.30905983  1
  O  O50  1  0.96846922  0.15877133  0.30414206  1
  O  O51  1  0.20930451  0.16314461  0.81400670  1
  O  O52  1  0.97319351  0.79324142  0.81543069  1
  O  O53  1  0.84908127  0.03384621  0.80979345  1
  O  O54  1  0.79491304  0.96797694  0.68948599  1
  O  O55  1  0.16391341  0.20457481  0.69274754  1
  O  O56  1  0.02489693  0.83589136  0.69955550  1
  O  O57  1  0.79577812  0.83126135  0.18923039  1
  O  O58  1  0.02750571  0.20380439  0.18501534  1
  O  O59  1  0.17029666  0.98009312  0.19516924  1
  O  O60  1  0.87452597  0.35544405  0.64644229  1
  O  O61  1  0.49701596  0.13168465  0.64487131  1
  O  O62  1  0.64669811  0.49254850  0.63941982  1
  O  O63  1  0.87605907  0.49313476  0.14333714  1
  O  O64  1  0.63126557  0.12408282  0.14348647  1
  O  O65  1  0.51941511  0.37724212  0.13841185  1
  O  O66  1  0.46557166  0.30189617  0.01666728  1
  O  O67  1  0.82527577  0.53001171  0.02112494  1
  O  O68  1  0.69834007  0.16916573  0.02730918  1
  O  O69  1  0.46929085  0.16426745  0.52235585  1
  O  O70  1  0.69316993  0.53513411  0.51861052  1
  O  O71  1  0.83620295  0.31369897  0.52981815  1
  O  O72  1  0.54319709  0.70023020  0.97822877  1
  O  O73  1  0.17179104  0.45599794  0.97782816  1
  O  O74  1  0.29236720  0.81509931  0.97350105  1
  O  O75  1  0.53601006  0.83348335  0.47654361  1
  O  O76  1  0.31006070  0.45985975  0.47688653  1
  O  O77  1  0.17632210  0.69085938  0.47068915  1
  O  O78  1  0.13192273  0.63670481  0.34880673  1
  O  O79  1  0.49142463  0.86204767  0.35376000  1
  O  O80  1  0.36498598  0.50201048  0.36006888  1
  O  O81  1  0.12837306  0.50815337  0.85726715  1
  O  O82  1  0.36690191  0.87160654  0.85276261  1
  O  O83  1  0.49526017  0.63417400  0.86272776  1
  O  O84  1  0.03186280  0.84174848  0.41172798  1
  O  O85  1  0.81070749  0.96757573  0.41001649  1
  O  O86  1  0.16775983  0.19451902  0.40997220  1
  O  O87  1  0.03089759  0.18418533  0.91223069  1
  O  O88  1  0.15588701  0.96980103  0.91382898  1
  O  O89  1  0.80853443  0.83435361  0.91226474  1
  O  O90  1  0.96986411  0.16881530  0.58617365  1
  O  O91  1  0.18594984  0.03460127  0.58943994  1
  O  O92  1  0.84052970  0.82143445  0.58735952  1
  O  O93  1  0.96927705  0.80934576  0.08825886  1
  O  O94  1  0.82359443  0.02512983  0.08606087  1
  O  O95  1  0.18624583  0.16609282  0.08665222  1
  O  O96  1  0.69043374  0.16765126  0.74953941  1
  O  O97  1  0.48118337  0.31240703  0.74719510  1
  O  O98  1  0.84014673  0.52767881  0.74885350  1
  O  O99  1  0.69465410  0.51313160  0.24373440  1
  O  O100  1  0.81922588  0.30352946  0.24395534  1
  O  O101  1  0.48129585  0.17010117  0.24266496  1
  O  O102  1  0.64013705  0.50487542  0.91894478  1
  O  O103  1  0.84950192  0.36363465  0.92362925  1
  O  O104  1  0.50919558  0.15244300  0.92170646  1
  O  O105  1  0.63389407  0.14507367  0.41929253  1
  O  O106  1  0.49547755  0.35957417  0.41773661  1
  O  O107  1  0.84870909  0.49411110  0.41773481  1
  O  O108  1  0.36967208  0.51641171  0.07713774  1
  O  O109  1  0.14800538  0.63039702  0.07633817  1
  O  O110  1  0.49463723  0.85910203  0.07663553  1
  O  O111  1  0.36076390  0.85192266  0.57932106  1
  O  O112  1  0.49201570  0.63618262  0.58129004  1
  O  O113  1  0.14198350  0.49706973  0.57976420  1
  O  O114  1  0.31086473  0.83868814  0.24948746  1
  O  O115  1  0.51104725  0.69335647  0.25542732  1
  O  O116  1  0.17462291  0.49129483  0.25304629  1
  O  O117  1  0.29400542  0.48332861  0.76017464  1
  O  O118  1  0.16917758  0.70134017  0.75464543  1
  O  O119  1  0.51096910  0.81682905  0.75753766  1
