# generated using pymatgen
data_Sc3TaP2(SO6)4
_symmetry_space_group_name_H-M   'P 1'
_cell_length_a   8.84435153
_cell_length_b   8.84711951
_cell_length_c   22.82685327
_cell_angle_alpha   89.94500894
_cell_angle_beta   90.03546930
_cell_angle_gamma   119.89779788
_symmetry_Int_Tables_number   1
_chemical_formula_structural   Sc3TaP2(SO6)4
_chemical_formula_sum   'Sc9 Ta3 P6 S12 O72'
_cell_volume   1548.42688431
_cell_formula_units_Z   3
loop_
 _symmetry_equiv_pos_site_id
 _symmetry_equiv_pos_as_xyz
  1  'x, y, z'
loop_
 _atom_site_type_symbol
 _atom_site_label
 _atom_site_symmetry_multiplicity
 _atom_site_fract_x
 _atom_site_fract_y
 _atom_site_fract_z
 _atom_site_occupancy
  Sc  Sc0  1  0.99698109  0.99990276  0.35647698  1
  Sc  Sc1  1  0.99387521  0.00222467  0.85707326  1
  Sc  Sc2  1  0.99022403  0.99591106  0.64602913  1
  Sc  Sc3  1  0.00217613  0.00973352  0.14389415  1
  Sc  Sc4  1  0.66592677  0.32724657  0.68904958  1
  Sc  Sc5  1  0.67363061  0.33489277  0.19010998  1
  Sc  Sc6  1  0.67337738  0.33906282  0.47695226  1
  Sc  Sc7  1  0.33209016  0.66612094  0.01974646  1
  Sc  Sc8  1  0.32876326  0.67097344  0.52387194  1
  Ta  Ta9  1  0.66679786  0.33293644  0.97297512  1
  Ta  Ta10  1  0.32327441  0.66063644  0.31238846  1
  Ta  Ta11  1  0.33801153  0.67109815  0.81289670  1
  P  P12  1  0.00047356  0.28546005  0.25052162  1
  P  P13  1  0.71159855  0.99927289  0.75041901  1
  P  P14  1  0.61810139  0.66663059  0.91773431  1
  P  P15  1  0.05033920  0.38354063  0.91728551  1
  P  P16  1  0.33121822  0.95142011  0.91737809  1
  P  P17  1  0.04566618  0.66792305  0.41794250  1
  S  S18  1  0.28888988  0.99803365  0.25049735  1
  S  S19  1  0.70745034  0.71188839  0.25066252  1
  S  S20  1  0.28902410  0.29215537  0.75061220  1
  S  S21  1  0.00249853  0.71060965  0.75070536  1
  S  S22  1  0.95521948  0.33215580  0.58337636  1
  S  S23  1  0.37694021  0.04765308  0.58318746  1
  S  S24  1  0.66633485  0.62089357  0.58320136  1
  S  S25  1  0.95081805  0.61960826  0.08273933  1
  S  S26  1  0.66550533  0.04834586  0.08273321  1
  S  S27  1  0.38369757  0.33310582  0.08300914  1
  S  S28  1  0.61647998  0.95099694  0.41662223  1
  S  S29  1  0.33411369  0.38158286  0.41704439  1
  O  O30  1  0.20895162  0.02431635  0.30267618  1
  O  O31  1  0.81650568  0.78987229  0.30262623  1
  O  O32  1  0.97505274  0.17540991  0.30460439  1
  O  O33  1  0.21152829  0.18470108  0.80272253  1
  O  O34  1  0.97652275  0.79072917  0.80281140  1
  O  O35  1  0.82240718  0.02606708  0.80444349  1
  O  O36  1  0.78822785  0.96059241  0.69580860  1
  O  O37  1  0.18021341  0.21776003  0.69803684  1
  O  O38  1  0.04016693  0.82051073  0.69807157  1
  O  O39  1  0.78238683  0.82106930  0.19799521  1
  O  O40  1  0.03891093  0.20879735  0.19565262  1
  O  O41  1  0.17851347  0.95871055  0.19796138  1
  O  O42  1  0.87472367  0.36166836  0.63546125  1
  O  O43  1  0.48710821  0.12911923  0.63539553  1
  O  O44  1  0.63924154  0.51285119  0.63554102  1
  O  O45  1  0.86840752  0.51080807  0.13515267  1
  O  O46  1  0.64021935  0.13041713  0.13524149  1
  O  O47  1  0.49023998  0.35717832  0.13553351  1
  O  O48  1  0.47308850  0.30963882  0.03023184  1
  O  O49  1  0.83729834  0.52960479  0.03013525  1
  O  O50  1  0.69098173  0.16231610  0.03017802  1
  O  O51  1  0.45917754  0.15527276  0.53021207  1
  O  O52  1  0.69353859  0.53827246  0.53028639  1
  O  O53  1  0.84551933  0.30365292  0.53056588  1
  O  O54  1  0.53492322  0.69217188  0.97194657  1
  O  O55  1  0.15685222  0.46623348  0.97204973  1
  O  O56  1  0.30719868  0.84362786  0.97176551  1
  O  O57  1  0.53801461  0.84211464  0.46845061  1
  O  O58  1  0.30708297  0.46341598  0.46835799  1
  O  O59  1  0.16321057  0.69604159  0.47022495  1
  O  O60  1  0.14462452  0.64359950  0.36220382  1
  O  O61  1  0.50490472  0.86074367  0.36323800  1
  O  O62  1  0.35955014  0.49619930  0.36323756  1
  O  O63  1  0.13431952  0.50330950  0.86299447  1
  O  O64  1  0.36802371  0.86515377  0.86310940  1
  O  O65  1  0.49682594  0.63067285  0.86321608  1
  O  O66  1  0.02958124  0.82729201  0.40404366  1
  O  O67  1  0.78894063  0.96912863  0.40694226  1
  O  O68  1  0.17985497  0.21111940  0.40649090  1
  O  O69  1  0.02024388  0.20290365  0.90671076  1
  O  O70  1  0.18329738  0.98294090  0.90420815  1
  O  O71  1  0.79924151  0.81393452  0.90615333  1
  O  O72  1  0.97501451  0.17735987  0.59129714  1
  O  O73  1  0.20274098  0.02700414  0.59196830  1
  O  O74  1  0.82359312  0.79446310  0.59049536  1
  O  O75  1  0.96336117  0.79124745  0.08952574  1
  O  O76  1  0.82506696  0.03488810  0.08861199  1
  O  O77  1  0.21167266  0.17216001  0.08844081  1
  O  O78  1  0.67996709  0.15200439  0.74022341  1
  O  O79  1  0.46664577  0.32243058  0.74170414  1
  O  O80  1  0.85295162  0.53528124  0.74161253  1
  O  O81  1  0.67898787  0.53488114  0.24176272  1
  O  O82  1  0.84860252  0.31840778  0.24060952  1
  O  O83  1  0.46426078  0.14747145  0.24167043  1
  O  O84  1  0.63104185  0.49515916  0.92798027  1
  O  O85  1  0.86416216  0.36765169  0.92816455  1
  O  O86  1  0.50308448  0.13558317  0.92812213  1
  O  O87  1  0.62840810  0.12174722  0.42163242  1
  O  O88  1  0.49195190  0.36775552  0.42127478  1
  O  O89  1  0.86924952  0.50169540  0.42305947  1
  O  O90  1  0.36363930  0.48584342  0.07492474  1
  O  O91  1  0.12254255  0.63687151  0.07475121  1
  O  O92  1  0.51240284  0.87665681  0.07465666  1
  O  O93  1  0.36097042  0.87334423  0.57595733  1
  O  O94  1  0.51199149  0.64147512  0.57436233  1
  O  O95  1  0.12995162  0.48722920  0.57530650  1
  O  O96  1  0.31204369  0.84016159  0.26133964  1
  O  O97  1  0.53045351  0.69373133  0.26203464  1
  O  O98  1  0.16729934  0.47261754  0.26292882  1
  O  O99  1  0.30594719  0.47016348  0.76134105  1
  O  O100  1  0.16189950  0.69024940  0.76122939  1
  O  O101  1  0.52497552  0.83250926  0.76318691  1
