# generated using pymatgen
data_Na2La2P2SO12
_symmetry_space_group_name_H-M   'P 1'
_cell_length_a   9.55111171
_cell_length_b   9.55111135
_cell_length_c   24.54186786
_cell_angle_alpha   90.94161684
_cell_angle_beta   89.05838311
_cell_angle_gamma   119.91098739
_symmetry_Int_Tables_number   1
_chemical_formula_structural   Na2La2P2SO12
_chemical_formula_sum   'Na12 La12 P12 S6 O72'
_cell_volume   1940.24532110
_cell_formula_units_Z   6
loop_
 _symmetry_equiv_pos_site_id
 _symmetry_equiv_pos_as_xyz
  1  'x, y, z'
loop_
 _atom_site_type_symbol
 _atom_site_label
 _atom_site_symmetry_multiplicity
 _atom_site_fract_x
 _atom_site_fract_y
 _atom_site_fract_z
 _atom_site_occupancy
  Na  Na0  1  0.98784900  0.62204712  0.25424035  1
  Na  Na1  1  0.37795288  0.01215100  0.75424035  1
  Na  Na2  1  0.65451600  0.95538012  0.58757335  1
  Na  Na3  1  0.04461988  0.34548400  0.08757335  1
  Na  Na4  1  0.32118200  0.28871412  0.92090735  1
  Na  Na5  1  0.71128588  0.67881800  0.42090735  1
  Na  Na6  1  0.02400392  0.97893460  0.50053556  1
  Na  Na7  1  0.02106540  0.97599608  0.00053556  1
  Na  Na8  1  0.69067092  0.31226760  0.83386856  1
  Na  Na9  1  0.68773240  0.30932908  0.33386856  1
  Na  Na10  1  0.35733692  0.64560160  0.16720256  1
  Na  Na11  1  0.35439840  0.64266308  0.66720256  1
  La  La12  1  0.99421447  0.01550211  0.34817943  1
  La  La13  1  0.98449789  0.00578553  0.84817943  1
  La  La14  1  0.00112961  0.99805393  0.65080904  1
  La  La15  1  0.00194607  0.99887039  0.15080904  1
  La  La16  1  0.66088147  0.34883511  0.68151243  1
  La  La17  1  0.65116489  0.33911853  0.18151243  1
  La  La18  1  0.66779661  0.33138693  0.98414204  1
  La  La19  1  0.66861307  0.33220339  0.48414204  1
  La  La20  1  0.32754747  0.68216911  0.01484643  1
  La  La21  1  0.31783089  0.67245253  0.51484643  1
  La  La22  1  0.33446261  0.66472093  0.31747604  1
  La  La23  1  0.33527907  0.66553739  0.81747604  1
  P  P24  1  0.70244676  0.69891734  0.25294688  1
  P  P25  1  0.99796003  0.31400444  0.24515523  1
  P  P26  1  0.30108266  0.29755324  0.75294688  1
  P  P27  1  0.68599556  0.00203997  0.74515523  1
  P  P28  1  0.36911376  0.03225034  0.58627988  1
  P  P29  1  0.66462703  0.64733744  0.57848823  1
  P  P30  1  0.96774966  0.63088624  0.08627988  1
  P  P31  1  0.35266256  0.33537297  0.07848823  1
  P  P32  1  0.03577976  0.36558434  0.91961388  1
  P  P33  1  0.33129303  0.98067144  0.91182223  1
  P  P34  1  0.63441566  0.96422024  0.41961388  1
  P  P35  1  0.01932856  0.66870697  0.41182223  1
  S  S36  1  0.30184818  0.99676848  0.25124316  1
  S  S37  1  0.00323152  0.69815182  0.75124316  1
  S  S38  1  0.96851518  0.33010148  0.58457616  1
  S  S39  1  0.66989852  0.03148482  0.08457616  1
  S  S40  1  0.63518118  0.66343548  0.91791016  1
  S  S41  1  0.33656452  0.36481882  0.41791016  1
  O  O42  1  0.21954237  0.01101007  0.30061469  1
  O  O43  1  0.79520504  0.78225103  0.30610064  1
  O  O44  1  0.99545979  0.21344698  0.29468623  1
  O  O45  1  0.21774897  0.20479496  0.80610064  1
  O  O46  1  0.98898993  0.78045763  0.80061469  1
  O  O47  1  0.78655302  0.00454021  0.79468623  1
  O  O48  1  0.76672840  0.99084364  0.69104474  1
  O  O49  1  0.19673306  0.20050144  0.70350935  1
  O  O50  1  0.00824461  0.78968704  0.70196390  1
  O  O51  1  0.79949856  0.80326694  0.20350935  1
  O  O52  1  0.00915636  0.23327160  0.19104474  1
  O  O53  1  0.21031296  0.99175539  0.20196390  1
  O  O54  1  0.88620937  0.34434307  0.63394769  1
  O  O55  1  0.46187204  0.11558403  0.63943364  1
  O  O56  1  0.66212679  0.54677998  0.62801923  1
  O  O57  1  0.88441597  0.53812796  0.13943364  1
  O  O58  1  0.65565693  0.11379063  0.13394769  1
  O  O59  1  0.45322002  0.33787321  0.12801923  1
  O  O60  1  0.43339540  0.32417664  0.02437774  1
  O  O61  1  0.86340006  0.53383444  0.03684235  1
  O  O62  1  0.67491161  0.12302004  0.03529690  1
  O  O63  1  0.46616556  0.13659994  0.53684235  1
  O  O64  1  0.67582336  0.56660460  0.52437774  1
  O  O65  1  0.87697996  0.32508839  0.53529690  1
  O  O66  1  0.55287537  0.67767707  0.96728169  1
  O  O67  1  0.12853804  0.44891803  0.97276764  1
  O  O68  1  0.32879279  0.88011398  0.96135323  1
  O  O69  1  0.55108197  0.87146196  0.47276764  1
  O  O70  1  0.32232293  0.44712463  0.46728169  1
  O  O71  1  0.11988602  0.67120721  0.46135323  1
  O  O72  1  0.10006140  0.65751064  0.35771174  1
  O  O73  1  0.53006606  0.86716844  0.37017635  1
  O  O74  1  0.34157761  0.45635404  0.36863090  1
  O  O75  1  0.13283156  0.46993394  0.87017635  1
  O  O76  1  0.34248936  0.89993860  0.85771174  1
  O  O77  1  0.54364596  0.65842239  0.86863090  1
  O  O78  1  0.00199219  0.82293547  0.41428588  1
  O  O79  1  0.80001460  0.96864059  0.41620901  1
  O  O80  1  0.19769310  0.19796130  0.41577140  1
  O  O81  1  0.03135941  0.19998540  0.91620901  1
  O  O82  1  0.17706453  0.99800781  0.91428588  1
  O  O83  1  0.80203870  0.80230690  0.91577140  1
  O  O84  1  0.97078958  0.17519415  0.58494219  1
  O  O85  1  0.19608622  0.00718166  0.58608166  1
  O  O86  1  0.81396370  0.82272322  0.58168067  1
  O  O87  1  0.99281834  0.80391378  0.08608166  1
  O  O88  1  0.82480585  0.02921042  0.08494219  1
  O  O89  1  0.17727678  0.18603630  0.08168067  1
  O  O90  1  0.66865919  0.15626847  0.74761888  1
  O  O91  1  0.46668160  0.30197359  0.74954201  1
  O  O92  1  0.86436010  0.53129430  0.74910440  1
  O  O93  1  0.69802641  0.53331840  0.24954201  1
  O  O94  1  0.84373153  0.33134081  0.24761888  1
  O  O95  1  0.46870570  0.13563990  0.24910440  1
  O  O96  1  0.63745658  0.50852715  0.91827519  1
  O  O97  1  0.86275322  0.34051466  0.91941466  1
  O  O98  1  0.48063070  0.15605622  0.91501367  1
  O  O99  1  0.65948534  0.13724678  0.41941466  1
  O  O100  1  0.49147285  0.36254342  0.41827519  1
  O  O101  1  0.84394378  0.51936930  0.41501367  1
  O  O102  1  0.33532519  0.48960247  0.08095288  1
  O  O103  1  0.13334760  0.63530759  0.08287601  1
  O  O104  1  0.53102610  0.86462830  0.08243840  1
  O  O105  1  0.36469241  0.86665240  0.58287601  1
  O  O106  1  0.51039753  0.66467481  0.58095288  1
  O  O107  1  0.13537170  0.46897390  0.58243840  1
  O  O108  1  0.30412258  0.84186115  0.25160919  1
  O  O109  1  0.52941922  0.67384866  0.25274866  1
  O  O110  1  0.14729670  0.48939022  0.24834767  1
  O  O111  1  0.32615134  0.47058078  0.75274866  1
  O  O112  1  0.15813885  0.69587742  0.75160919  1
  O  O113  1  0.51060978  0.85270330  0.74834767  1
