# generated using pymatgen
data_La2MgZnNiO6
_symmetry_space_group_name_H-M   'P 1'
_cell_length_a   5.95671047
_cell_length_b   5.90890942
_cell_length_c   5.81576398
_cell_angle_alpha   56.14801388
_cell_angle_beta   58.67730255
_cell_angle_gamma   73.76983768
_symmetry_Int_Tables_number   1
_chemical_formula_structural   La2MgZnNiO6
_chemical_formula_sum   'La2 Mg1 Zn1 Ni1 O6'
_cell_volume   145.20849307
_cell_formula_units_Z   1
loop_
 _symmetry_equiv_pos_site_id
 _symmetry_equiv_pos_as_xyz
  1  'x, y, z'
loop_
 _atom_site_type_symbol
 _atom_site_label
 _atom_site_symmetry_multiplicity
 _atom_site_fract_x
 _atom_site_fract_y
 _atom_site_fract_z
 _atom_site_occupancy
  La  La0  1  0.82269550  0.68193490  0.72969509  1
  La  La1  1  0.16998316  0.38974188  0.22891812  1
  Mg  Mg2  1  0.45392367  0.82667877  0.31903521  1
  Zn  Zn3  1  0.53831046  0.22088120  0.65586939  1
  Ni  Ni4  1  0.99287369  0.04043325  0.97559799  1
  O  O5  1  0.39289717  0.82091790  0.01060312  1
  O  O6  1  0.84068843  0.17157381  0.31034993  1
  O  O7  1  0.21079885  0.40066316  0.63471014  1
  O  O8  1  0.60764077  0.23049136  0.95756289  1
  O  O9  1  0.79419788  0.68388334  0.32525498  1
  O  O10  1  0.15218043  0.91375244  0.63811714  1
