# generated using pymatgen
data_Na10La4Y4Si5S7O48
_symmetry_space_group_name_H-M   'P 1'
_cell_length_a   19.03574445
_cell_length_b   9.51920495
_cell_length_c   24.21174595
_cell_angle_alpha   90.02831633
_cell_angle_beta   89.57761973
_cell_angle_gamma   120.03732956
_symmetry_Int_Tables_number   1
_chemical_formula_structural   Na10La4Y4Si5S7O48
_chemical_formula_sum   'Na30 La12 Y12 Si15 S21 O144'
_cell_volume   3797.94819521
_cell_formula_units_Z   3
loop_
 _symmetry_equiv_pos_site_id
 _symmetry_equiv_pos_as_xyz
  1  'x, y, z'
loop_
 _atom_site_type_symbol
 _atom_site_label
 _atom_site_symmetry_multiplicity
 _atom_site_fract_x
 _atom_site_fract_y
 _atom_site_fract_z
 _atom_site_occupancy
  Na  Na0  1  0.33723528  0.00211962  0.24868304  1
  Na  Na1  1  0.83195828  0.99773607  0.25096198  1
  Na  Na2  1  0.18405957  0.38652321  0.23847407  1
  Na  Na3  1  0.67642257  0.37716069  0.24113405  1
  Na  Na4  1  0.99154591  0.62344311  0.26362237  1
  Na  Na5  1  0.49356884  0.62149101  0.26322848  1
  Na  Na6  1  0.83688017  0.66654267  0.74333026  1
  Na  Na7  1  0.98800491  0.35976608  0.75703752  1
  Na  Na8  1  0.49230601  0.34377556  0.76073381  1
  Na  Na9  1  0.17625518  0.98734146  0.73767397  1
  Na  Na10  1  0.02229247  0.71556380  0.58831064  1
  Na  Na11  1  0.32662664  0.97487080  0.59763795  1
  Na  Na12  1  0.02266303  0.33042886  0.08565617  1
  Na  Na13  1  0.51798305  0.32751271  0.08863876  1
  Na  Na14  1  0.15815264  0.30163965  0.93084484  1
  Na  Na15  1  0.66079379  0.30605011  0.93367061  1
  Na  Na16  1  0.15908275  0.01283526  0.43008210  1
  Na  Na17  1  0.65953261  0.01326354  0.43192374  1
  Na  Na18  1  0.00296531  0.98999290  0.50209509  1
  Na  Na19  1  0.51638830  0.97952673  0.49800168  1
  Na  Na20  1  0.00763052  0.01889912  0.00022338  1
  Na  Na21  1  0.51041169  0.01707322  0.00416492  1
  Na  Na22  1  0.35169311  0.32643071  0.83825054  1
  Na  Na23  1  0.85625042  0.32324651  0.83004783  1
  Na  Na24  1  0.36294726  0.38549154  0.33608242  1
  Na  Na25  1  0.85809866  0.38135369  0.33710486  1
  Na  Na26  1  0.17967813  0.64768340  0.16810256  1
  Na  Na27  1  0.67834050  0.64271005  0.16667548  1
  Na  Na28  1  0.17328888  0.68951645  0.67332105  1
  Na  Na29  1  0.69025808  0.74744516  0.66058576  1
  La  La30  1  0.98904600  0.98724015  0.35075291  1
  La  La31  1  0.98904207  0.98949644  0.84792082  1
  La  La32  1  0.49236529  0.00675910  0.84867909  1
  La  La33  1  0.50846537  0.00069904  0.64581077  1
  La  La34  1  0.00187838  0.00404922  0.15427723  1
  La  La35  1  0.82557325  0.33675176  0.17873997  1
  La  La36  1  0.33682609  0.33495450  0.98594512  1
  La  La37  1  0.83557398  0.33441802  0.98411889  1
  La  La38  1  0.16932011  0.65804097  0.01755833  1
  La  La39  1  0.16252682  0.66271184  0.51588297  1
  La  La40  1  0.16284130  0.66747839  0.81549948  1
  La  La41  1  0.66726114  0.68391409  0.81794268  1
  Y  Y42  1  0.49091411  0.98755784  0.34964034  1
  Y  Y43  1  -0.00023395  0.99515870  0.64780560  1
  Y  Y44  1  0.50225782  0.00724684  0.15383438  1
  Y  Y45  1  0.32999967  0.32669299  0.67861913  1
  Y  Y46  1  0.82312263  0.30817585  0.68158304  1
  Y  Y47  1  0.33226107  0.34476593  0.18312702  1
  Y  Y48  1  0.33669169  0.34401863  0.48116748  1
  Y  Y49  1  0.83359553  0.33554322  0.48258557  1
  Y  Y50  1  0.66194842  0.65437343  0.01754464  1
  Y  Y51  1  0.65829818  0.67234481  0.51767506  1
  Y  Y52  1  0.16218631  0.65479387  0.31956532  1
  Y  Y53  1  0.65663267  0.64798948  0.32102778  1
  Si  Si54  1  0.35060198  0.70272523  0.24984823  1
  Si  Si55  1  0.84250112  0.69307271  0.25020665  1
  Si  Si56  1  0.00008576  0.31085795  0.24767775  1
  Si  Si57  1  0.49892193  0.29841951  0.24853976  1
  Si  Si58  1  0.99642742  0.69101251  0.74324827  1
  Si  Si59  1  0.34891703  0.01103267  0.74094496  1
  Si  Si60  1  0.84937207  0.99880139  0.74584927  1
  Si  Si61  1  0.18275923  0.03535632  0.57916474  1
  Si  Si62  1  0.68317801  0.03219871  0.57626074  1
  Si  Si63  1  0.17915506  0.32909013  0.08328601  1
  Si  Si64  1  0.67259757  0.32707068  0.08105703  1
  Si  Si65  1  0.01357585  0.35417553  0.91629602  1
  Si  Si66  1  0.51654655  0.36480100  0.91464006  1
  Si  Si67  1  0.01283786  0.66667242  0.41703960  1
  Si  Si68  1  0.51550322  0.67359584  0.41414536  1
  S  S69  1  0.15719208  0.00046110  0.25342920  1
  S  S70  1  0.64534275  0.99180339  0.25376610  1
  S  S71  1  0.15056262  0.29432000  0.74701226  1
  S  S72  1  0.65433636  0.30871179  0.75170068  1
  S  S73  1  0.49515576  0.68346958  0.74904856  1
  S  S74  1  0.47991548  0.33597256  0.58242536  1
  S  S75  1  0.97755184  0.32911428  0.58470825  1
  S  S76  1  0.33348599  0.63054001  0.58313265  1
  S  S77  1  0.83291895  0.62831176  0.58420435  1
  S  S78  1  0.48761498  0.64094184  0.08657525  1
  S  S79  1  0.98862759  0.64195050  0.08489075  1
  S  S80  1  0.33685247  0.03464827  0.09032972  1
  S  S81  1  0.83021885  0.01851813  0.08496021  1
  S  S82  1  0.31919835  0.66139523  0.91477992  1
  S  S83  1  0.81272148  0.66329450  0.91803079  1
  S  S84  1  0.16787403  0.97970896  0.91601316  1
  S  S85  1  0.66350754  0.97112919  0.92095207  1
  S  S86  1  0.31672440  0.97348965  0.41565514  1
  S  S87  1  0.80838458  0.96310175  0.41718341  1
  S  S88  1  0.17215600  0.36205159  0.41488988  1
  S  S89  1  0.66717989  0.36475890  0.41733990  1
  O  O90  1  0.12194628  0.03207984  0.30323771  1
  O  O91  1  0.60759256  0.01661010  0.30369632  1
  O  O92  1  0.40949231  0.78012164  0.30349235  1
  O  O93  1  0.90667961  0.77012432  0.30151058  1
  O  O94  1  0.48486875  0.17159309  0.29871400  1
  O  O95  1  0.98802710  0.18297070  0.29719053  1
  O  O96  1  0.11856777  0.20553226  0.79995609  1
  O  O97  1  0.62013912  0.21404874  0.80332539  1
  O  O98  1  0.49354052  0.76690267  0.79996044  1
  O  O99  1  0.98658755  0.78615192  0.79665853  1
  O  O100  1  0.41074273  0.03916446  0.79301009  1
  O  O101  1  0.90075722  0.02870790  0.80300414  1
  O  O102  1  0.39144983  -0.00286809  0.68342614  1
  O  O103  1  0.90157317  0.98016284  0.69526724  1
  O  O104  1  0.09654743  0.20064520  0.70077345  1
  O  O105  1  0.60118820  0.21885695  0.70467970  1
  O  O106  1  0.01254703  0.80506093  0.68773265  1
  O  O107  1  0.50309717  0.78178762  0.69958976  1
  O  O108  1  0.39520298  0.82162942  0.19679276  1
  O  O109  1  0.88644390  0.80884134  0.19613979  1
  O  O110  1  0.01621910  0.24079963  0.18937601  1
  O  O111  1  0.51605970  0.22550002  0.19124903  1
  O  O112  1  0.10246952  0.96394830  0.20567567  1
  O  O113  1  0.59509830  0.97139747  0.20450482  1
  O  O114  1  0.44478491  0.35700317  0.63505433  1
  O  O115  1  0.93751514  0.34401649  0.63549730  1
  O  O116  1  0.23684282  0.12828052  0.63481223  1
  O  O117  1  0.73275702  0.13084779  0.63114289  1
  O  O118  1  0.33475240  0.54433468  0.63365059  1
  O  O119  1  0.82542135  0.54225891  0.63717096  1
  O  O120  1  0.44621455  0.53451142  0.13568308  1
  O  O121  1  0.94916885  0.55284348  0.13696701  1
  O  O122  1  0.33306639  0.12259453  0.14022388  1
  O  O123  1  0.82278137  0.08648292  0.13885433  1
  O  O124  1  0.22881936  0.32781897  0.13886028  1
  O  O125  1  0.71981388  0.33789334  0.13926194  1
  O  O126  1  0.22679923  0.33435839  0.02515128  1
  O  O127  1  0.72230012  0.32295379  0.02557083  1
  O  O128  1  0.43879000  0.56374156  0.03668124  1
  O  O129  1  0.93911034  0.54776070  0.03716318  1
  O  O130  1  0.34587616  0.13305584  0.04011151  1
  O  O131  1  0.83819346  0.13097936  0.03957923  1
  O  O132  1  0.23147179  0.13525454  0.52305271  1
  O  O133  1  0.72865457  0.13046785  0.51927601  1
  O  O134  1  0.33514740  0.54156189  0.53353501  1
  O  O135  1  0.84341745  0.53810371  0.53746457  1
  O  O136  1  0.42829765  0.32953419  0.53580887  1
  O  O137  1  0.92982408  0.31928442  0.53522953  1
  O  O138  1  0.28011073  0.67782648  0.96557681  1
  O  O139  1  0.76362760  0.67109513  0.96437826  1
  O  O140  1  0.06976794  0.46005818  0.97005621  1
  O  O141  1  0.57239605  0.47129994  0.96729524  1
  O  O142  1  0.17014562  0.88729689  0.96428567  1
  O  O143  1  0.66549062  0.87656333  0.96861638  1
  O  O144  1  0.27974550  0.87841342  0.46712123  1
  O  O145  1  0.76335505  0.85890817  0.46477239  1
  O  O146  1  0.16801477  0.44907377  0.46416467  1
  O  O147  1  0.66159884  0.45488306  0.46519901  1
  O  O148  1  0.06786976  0.68015252  0.47202530  1
  O  O149  1  0.57905635  0.69272419  0.46348028  1
  O  O150  1  0.06188673  0.65982029  0.36107386  1
  O  O151  1  0.55256505  0.65279352  0.35464584  1
  O  O152  1  0.26609654  0.88367731  0.36714679  1
  O  O153  1  0.76675481  0.88303924  0.36452242  1
  O  O154  1  0.17700429  0.45471780  0.36399022  1
  O  O155  1  0.67525259  0.45599845  0.36504980  1
  O  O156  1  0.05963238  0.45067741  0.85841381  1
  O  O157  1  0.55989823  0.45537928  0.85544096  1
  O  O158  1  0.17144945  0.90184997  0.86368484  1
  O  O159  1  0.66931837  0.89688210  0.86844322  1
  O  O160  1  0.27370532  0.66177941  0.86554047  1
  O  O161  1  0.77506563  0.66567660  0.86454867  1
  O  O162  1  0.01499006  0.84293961  0.41869274  1
  O  O163  1  0.51630781  0.84856091  0.41472396  1
  O  O164  1  0.39978042  0.00209328  0.41026256  1
  O  O165  1  0.89246923  0.99359077  0.41848870  1
  O  O166  1  0.10002493  0.19650266  0.41414668  1
  O  O167  1  0.59467105  0.19858273  0.41426431  1
  O  O168  1  0.01547836  0.18276527  0.91960933  1
  O  O169  1  0.51788999  0.19079880  0.91771054  1
  O  O170  1  0.09376015  0.99456976  0.91823782  1
  O  O171  1  0.58825307  0.98224993  0.92161696  1
  O  O172  1  0.40387113  0.79701165  0.91347069  1
  O  O173  1  0.89641944  0.80019374  0.92187589  1
  O  O174  1  0.47956557  0.17933825  0.58317288  1
  O  O175  1  0.98937884  0.18730585  0.58685353  1
  O  O176  1  0.08921634  0.00339963  0.58099193  1
  O  O177  1  0.59105546  0.01149901  0.57798063  1
  O  O178  1  0.40505922  0.79818661  0.58126813  1
  O  O179  1  0.90963872  0.79129997  0.58519437  1
  O  O180  1  0.49884739  0.80416214  0.09325441  1
  O  O181  1  0.99830915  0.80494683  0.08411074  1
  O  O182  1  0.41105060  0.02043123  0.09200896  1
  O  O183  1  0.90604492  0.00964775  0.08371937  1
  O  O184  1  0.08581249  0.17167013  0.08117108  1
  O  O185  1  0.58055243  0.16618515  0.08194435  1
  O  O186  1  0.34361934  0.18097065  0.74264869  1
  O  O187  1  0.84099438  0.16187610  0.74142978  1
  O  O188  1  0.23251647  0.31388767  0.73829127  1
  O  O189  1  0.73832282  0.34010737  0.74394843  1
  O  O190  1  0.42032972  0.52006024  0.74599040  1
  O  O191  1  0.91364176  0.51195857  0.73966836  1
  O  O192  1  0.33605767  0.51628832  0.24337126  1
  O  O193  1  0.82449384  0.50460929  0.24548716  1
  O  O194  1  0.41760249  0.31880183  0.24420958  1
  O  O195  1  0.91789808  0.32838040  0.24662958  1
  O  O196  1  0.23847180  0.14571795  0.24268892  1
  O  O197  1  0.72828269  0.13547406  0.24756857  1
  O  O198  1  0.31780381  0.50336275  0.91578676  1
  O  O199  1  0.81181720  0.50593715  0.91989681  1
  O  O200  1  0.42414742  0.33593336  0.91838589  1
  O  O201  1  0.92190452  0.33113911  0.91764763  1
  O  O202  1  0.23921501  0.14911637  0.91612611  1
  O  O203  1  0.73357177  0.14065401  0.92129395  1
  O  O204  1  0.31786137  0.13182212  0.41881323  1
  O  O205  1  0.80995022  0.12194942  0.41988281  1
  O  O206  1  0.24555683  0.34348177  0.41658963  1
  O  O207  1  0.74028599  0.34470205  0.42123777  1
  O  O208  1  0.42492005  0.51340293  0.42227028  1
  O  O209  1  0.92224601  0.50506900  0.42015604  1
  O  O210  1  0.16746554  0.49182674  0.08714800  1
  O  O211  1  0.66057335  0.48933022  0.08035138  1
  O  O212  1  0.06926944  0.65225482  0.08240552  1
  O  O213  1  0.56797563  0.64996943  0.08125490  1
  O  O214  1  0.26324863  0.87302593  0.08752476  1
  O  O215  1  0.75816227  0.85684478  0.07689556  1
  O  O216  1  0.17862155  0.85429582  0.58228269  1
  O  O217  1  0.67433423  0.85024178  0.57781691  1
  O  O218  1  0.25938248  0.64656869  0.58402041  1
  O  O219  1  0.76171937  0.64860841  0.57598361  1
  O  O220  1  0.05873854  0.48188733  0.58216810  1
  O  O221  1  0.56381467  0.47211943  0.57640343  1
  O  O222  1  0.17023939  0.85957150  0.26097248  1
  O  O223  1  0.65378765  0.84484681  0.25850537  1
  O  O224  1  0.26006476  0.68594993  0.25754246  1
  O  O225  1  0.75524434  0.68914648  0.25873441  1
  O  O226  1  0.08158694  0.49307309  0.25582646  1
  O  O227  1  0.58037190  0.48015756  0.25643581  1
  O  O228  1  0.15647797  0.45584523  0.74836094  1
  O  O229  1  0.65821780  0.46859581  0.75447330  1
  O  O230  1  0.07663797  0.66613629  0.74782454  1
  O  O231  1  0.56568416  0.65396752  0.74894253  1
  O  O232  1  0.25583719  0.85776482  0.74802177  1
  O  O233  1  0.76185870  0.82515490  0.74824136  1
