# generated using pymatgen
data_NaLaTa(PO4)3
_symmetry_space_group_name_H-M   'P 1'
_cell_length_a   9.19008375
_cell_length_b   9.19008343
_cell_length_c   23.20729010
_cell_angle_alpha   90.00000000
_cell_angle_beta   90.00000000
_cell_angle_gamma   120.00000118
_symmetry_Int_Tables_number   1
_chemical_formula_structural   NaLaTa(PO4)3
_chemical_formula_sum   'Na6 La6 Ta6 P18 O72'
_cell_volume   1697.43823682
_cell_formula_units_Z   6
loop_
 _symmetry_equiv_pos_site_id
 _symmetry_equiv_pos_as_xyz
  1  'x, y, z'
loop_
 _atom_site_type_symbol
 _atom_site_label
 _atom_site_symmetry_multiplicity
 _atom_site_fract_x
 _atom_site_fract_y
 _atom_site_fract_z
 _atom_site_occupancy
  Na  Na0  1  0.00000000  0.00000000  0.50428769  1
  Na  Na1  1  0.00000000  0.00000000  0.00428769  1
  Na  Na2  1  0.66666700  0.33333300  0.83762069  1
  Na  Na3  1  0.66666700  0.33333300  0.33762069  1
  Na  Na4  1  0.33333300  0.66666700  0.17095469  1
  Na  Na5  1  0.33333300  0.66666700  0.67095469  1
  La  La6  1  0.00000000  0.00000000  0.35799471  1
  La  La7  1  0.00000000  0.00000000  0.85799471  1
  La  La8  1  0.66666700  0.33333300  0.69132771  1
  La  La9  1  0.66666700  0.33333300  0.19132771  1
  La  La10  1  0.33333300  0.66666700  0.02466171  1
  La  La11  1  0.33333300  0.66666700  0.52466171  1
  Ta  Ta12  1  0.00000000  0.00000000  0.64816891  1
  Ta  Ta13  1  0.00000000  0.00000000  0.14816891  1
  Ta  Ta14  1  0.66666700  0.33333300  0.98150191  1
  Ta  Ta15  1  0.66666700  0.33333300  0.48150191  1
  Ta  Ta16  1  0.33333300  0.66666700  0.31483591  1
  Ta  Ta17  1  0.33333300  0.66666700  0.81483591  1
  P  P18  1  0.27432332  0.96568284  0.24967114  1
  P  P19  1  0.69135952  0.72567668  0.24967114  1
  P  P20  1  0.03431716  0.30864048  0.24967114  1
  P  P21  1  0.27432332  0.30864048  0.74967114  1
  P  P22  1  0.03431716  0.72567668  0.74967114  1
  P  P23  1  0.69135952  0.96568284  0.74967114  1
  P  P24  1  0.94099032  0.29901584  0.58300414  1
  P  P25  1  0.35802652  0.05900968  0.58300414  1
  P  P26  1  0.70098416  0.64197348  0.58300414  1
  P  P27  1  0.94099032  0.64197348  0.08300414  1
  P  P28  1  0.70098416  0.05900968  0.08300414  1
  P  P29  1  0.35802652  0.29901584  0.08300414  1
  P  P30  1  0.60765632  0.63234984  0.91633814  1
  P  P31  1  0.02469252  0.39234368  0.91633814  1
  P  P32  1  0.36765016  0.97530748  0.91633814  1
  P  P33  1  0.60765632  0.97530748  0.41633814  1
  P  P34  1  0.36765016  0.39234368  0.41633814  1
  P  P35  1  0.02469252  0.63234984  0.41633814  1
  O  O36  1  0.20464505  0.99377585  0.30430483  1
  O  O37  1  0.78913080  0.79535495  0.30430483  1
  O  O38  1  0.00622415  0.21086920  0.30430483  1
  O  O39  1  0.20464505  0.21086920  0.80430483  1
  O  O40  1  0.00622415  0.79535495  0.80430483  1
  O  O41  1  0.78913080  0.99377585  0.80430483  1
  O  O42  1  0.79906705  0.95571345  0.69606845  1
  O  O43  1  0.15664640  0.20093295  0.69606845  1
  O  O44  1  0.04428655  0.84335360  0.69606845  1
  O  O45  1  0.79906705  0.84335360  0.19606845  1
  O  O46  1  0.04428655  0.20093295  0.19606845  1
  O  O47  1  0.15664640  0.95571345  0.19606845  1
  O  O48  1  0.87131205  0.32710885  0.63763783  1
  O  O49  1  0.45579780  0.12868795  0.63763783  1
  O  O50  1  0.67289115  0.54420220  0.63763783  1
  O  O51  1  0.87131205  0.54420220  0.13763783  1
  O  O52  1  0.67289115  0.12868795  0.13763783  1
  O  O53  1  0.45579780  0.32710885  0.13763783  1
  O  O54  1  0.46573405  0.28904645  0.02940145  1
  O  O55  1  0.82331340  0.53426595  0.02940145  1
  O  O56  1  0.71095355  0.17668660  0.02940145  1
  O  O57  1  0.46573405  0.17668660  0.52940145  1
  O  O58  1  0.71095355  0.53426595  0.52940145  1
  O  O59  1  0.82331340  0.28904645  0.52940145  1
  O  O60  1  0.53797805  0.66044285  0.97097183  1
  O  O61  1  0.12246380  0.46202195  0.97097183  1
  O  O62  1  0.33955715  0.87753620  0.97097183  1
  O  O63  1  0.53797805  0.87753620  0.47097183  1
  O  O64  1  0.33955715  0.46202195  0.47097183  1
  O  O65  1  0.12246380  0.66044285  0.47097183  1
  O  O66  1  0.13240005  0.62238045  0.36273545  1
  O  O67  1  0.48997940  0.86759995  0.36273545  1
  O  O68  1  0.37761955  0.51002060  0.36273545  1
  O  O69  1  0.13240005  0.51002060  0.86273545  1
  O  O70  1  0.37761955  0.86759995  0.86273545  1
  O  O71  1  0.48997940  0.62238045  0.86273545  1
  O  O72  1  0.97773834  0.76755856  0.40824882  1
  O  O73  1  0.78982022  0.02226166  0.40824882  1
  O  O74  1  0.23244144  0.21017978  0.40824882  1
  O  O75  1  0.97773834  0.21017978  0.90824882  1
  O  O76  1  0.23244144  0.02226166  0.90824882  1
  O  O77  1  0.78982022  0.76755856  0.90824882  1
  O  O78  1  0.93549196  0.12418015  0.58822298  1
  O  O79  1  0.18868819  0.06450804  0.58822298  1
  O  O80  1  0.87581985  0.81131181  0.58822298  1
  O  O81  1  0.93549196  0.81131181  0.08822298  1
  O  O82  1  0.87581985  0.06450804  0.08822298  1
  O  O83  1  0.18868819  0.12418015  0.08822298  1
  O  O84  1  0.64440534  0.10089156  0.74158182  1
  O  O85  1  0.45648722  0.35559466  0.74158182  1
  O  O86  1  0.89910844  0.54351278  0.74158182  1
  O  O87  1  0.64440534  0.54351278  0.24158182  1
  O  O88  1  0.89910844  0.35559466  0.24158182  1
  O  O89  1  0.45648722  0.10089156  0.24158182  1
  O  O90  1  0.60215896  0.45751315  0.92155598  1
  O  O91  1  0.85535519  0.39784104  0.92155598  1
  O  O92  1  0.54248685  0.14464481  0.92155598  1
  O  O93  1  0.60215896  0.14464481  0.42155598  1
  O  O94  1  0.54248685  0.39784104  0.42155598  1
  O  O95  1  0.85535519  0.45751315  0.42155598  1
  O  O96  1  0.31107134  0.43422556  0.07491582  1
  O  O97  1  0.12315322  0.68892866  0.07491582  1
  O  O98  1  0.56577444  0.87684678  0.07491582  1
  O  O99  1  0.31107134  0.87684678  0.57491582  1
  O  O100  1  0.56577444  0.68892866  0.57491582  1
  O  O101  1  0.12315322  0.43422556  0.57491582  1
  O  O102  1  0.26882496  0.79084715  0.25488998  1
  O  O103  1  0.52202119  0.73117504  0.25488998  1
  O  O104  1  0.20915285  0.47797881  0.25488998  1
  O  O105  1  0.26882496  0.47797881  0.75488998  1
  O  O106  1  0.20915285  0.73117504  0.75488998  1
  O  O107  1  0.52202119  0.79084715  0.75488998  1
