# generated using pymatgen
data_TiSiSn(SO6)2
_symmetry_space_group_name_H-M   'P 1'
_cell_length_a   8.75016259
_cell_length_b   8.75172209
_cell_length_c   22.65681262
_cell_angle_alpha   89.93747300
_cell_angle_beta   90.22009466
_cell_angle_gamma   119.95096918
_symmetry_Int_Tables_number   1
_chemical_formula_structural   TiSiSn(SO6)2
_chemical_formula_sum   'Ti6 Si6 Sn6 S12 O72'
_cell_volume   1503.31517885
_cell_formula_units_Z   6
loop_
 _symmetry_equiv_pos_site_id
 _symmetry_equiv_pos_as_xyz
  1  'x, y, z'
loop_
 _atom_site_type_symbol
 _atom_site_label
 _atom_site_symmetry_multiplicity
 _atom_site_fract_x
 _atom_site_fract_y
 _atom_site_fract_z
 _atom_site_occupancy
  Ti  Ti0  1  0.98675580  0.01141736  0.35581382  1
  Ti  Ti1  1  0.01285084  0.02595444  0.64304320  1
  Ti  Ti2  1  0.01737238  0.02501658  0.14524376  1
  Ti  Ti3  1  0.67038773  0.33968450  0.68771604  1
  Ti  Ti4  1  0.67830379  0.32195920  0.47650174  1
  Ti  Ti5  1  0.33619100  0.67227705  0.30975913  1
  Si  Si6  1  0.00144620  0.29407429  0.25022527  1
  Si  Si7  1  0.29563317  0.29517080  0.74909721  1
  Si  Si8  1  0.95536011  0.33873436  0.58439406  1
  Si  Si9  1  0.38007909  0.33941364  0.08402365  1
  Si  Si10  1  0.33316033  0.95269517  0.91635998  1
  Si  Si11  1  0.61498694  0.94887827  0.41633068  1
  Sn  Sn12  1  0.01526454  0.00284203  0.85317133  1
  Sn  Sn13  1  0.66450053  0.33744594  0.18942875  1
  Sn  Sn14  1  0.65210546  0.32193195  0.97882976  1
  Sn  Sn15  1  0.33147711  0.66644216  0.02112900  1
  Sn  Sn16  1  0.33615576  0.66544949  0.52144081  1
  Sn  Sn17  1  0.33429335  0.66934504  0.81032594  1
  S  S18  1  0.28253186  0.99706031  0.25117034  1
  S  S19  1  0.71457110  0.71750932  0.25079064  1
  S  S20  1  0.99539398  0.71007898  0.74729978  1
  S  S21  1  0.71569659  0.00360219  0.74856936  1
  S  S22  1  0.38074068  0.04930010  0.58363114  1
  S  S23  1  0.67210060  0.62117431  0.58368205  1
  S  S24  1  0.95490047  0.62654743  0.08341653  1
  S  S25  1  0.67153321  0.04232420  0.08457606  1
  S  S26  1  0.62931252  0.66975986  0.91583571  1
  S  S27  1  0.03725267  0.37288693  0.91696953  1
  S  S28  1  0.33528325  0.37656688  0.41537684  1
  S  S29  1  0.04387527  0.66962437  0.41504969  1
  O  O30  1  0.20148853  0.02443744  0.30348965  1
  O  O31  1  0.82604868  0.79814702  0.30386622  1
  O  O32  1  0.97257944  0.16309919  0.30644567  1
  O  O33  1  0.21360515  0.17328690  0.80653640  1
  O  O34  1  0.95621196  0.77678403  0.80282436  1
  O  O35  1  0.81969714  0.03315194  0.80428769  1
  O  O36  1  0.80003973  0.97180924  0.69714481  1
  O  O37  1  0.16369140  0.19236259  0.69215606  1
  O  O38  1  0.02348469  0.82335900  0.69624438  1
  O  O39  1  0.79188947  0.82187269  0.19710787  1
  O  O40  1  0.03127809  0.19388104  0.19342351  1
  O  O41  1  0.17473171  0.96629082  0.19675888  1
  O  O42  1  0.85267432  0.35938266  0.64049832  1
  O  O43  1  0.49122076  0.13076776  0.63640444  1
  O  O44  1  0.63864772  0.50744640  0.63688434  1
  O  O45  1  0.87878009  0.51014618  0.13615097  1
  O  O46  1  0.63581111  0.12102130  0.13684282  1
  O  O47  1  0.49726903  0.37272017  0.14337176  1
  O  O48  1  0.45509145  0.29347723  0.02616225  1
  O  O49  1  0.84703472  0.54650727  0.02906926  1
  O  O50  1  0.71204992  0.15428860  0.03094513  1
  O  O51  1  0.45750307  0.15887310  0.52995654  1
  O  O52  1  0.69462823  0.53798122  0.53022859  1
  O  O53  1  0.82794204  0.30440613  0.52586796  1
  O  O54  1  0.55241843  0.70016386  0.96971213  1
  O  O55  1  0.15050192  0.44623094  0.97007358  1
  O  O56  1  0.29717677  0.83255637  0.97541820  1
  O  O57  1  0.53965211  0.83329836  0.47573953  1
  O  O58  1  0.29082992  0.44443582  0.46944869  1
  O  O59  1  0.15264247  0.70374306  0.46967386  1
  O  O60  1  0.12472979  0.63202929  0.36361958  1
  O  O61  1  0.49079452  0.85309820  0.35891180  1
  O  O62  1  0.36304140  0.49139105  0.36381492  1
  O  O63  1  0.11440078  0.48147288  0.86342177  1
  O  O64  1  0.36992756  0.86783465  0.85758423  1
  O  O65  1  0.51496279  0.62937249  0.86299298  1
  O  O66  1  0.02528351  0.82462068  0.40459254  1
  O  O67  1  0.81158665  0.97493406  0.40443620  1
  O  O68  1  0.17950858  0.19775416  0.40544928  1
  O  O69  1  0.01158776  0.19395277  0.90992867  1
  O  O70  1  0.15463263  0.96589425  0.91251531  1
  O  O71  1  0.80075428  0.83217501  0.90761862  1
  O  O72  1  0.96715689  0.15845120  0.59422701  1
  O  O73  1  0.20126693  0.02546136  0.59208408  1
  O  O74  1  0.82783569  0.79531881  0.59392275  1
  O  O75  1  0.96930004  0.79836511  0.09300875  1
  O  O76  1  0.82570639  0.01923866  0.09368598  1
  O  O77  1  0.18651698  0.16013978  0.09555782  1
  O  O78  1  0.69488587  0.15936209  0.74056550  1
  O  O79  1  0.48507541  0.31202433  0.73312572  1
  O  O80  1  0.83900785  0.53229120  0.73990364  1
  O  O81  1  0.69536126  0.53907676  0.24651605  1
  O  O82  1  0.82685066  0.30893278  0.24108762  1
  O  O83  1  0.46141525  0.15320024  0.24446990  1
  O  O84  1  0.65498645  0.51632589  0.92297567  1
  O  O85  1  0.86583445  0.36431570  0.92558423  1
  O  O86  1  0.51214410  0.14362667  0.92050995  1
  O  O87  1  0.63753010  0.14530484  0.42686447  1
  O  O88  1  0.49335231  0.36191068  0.42545492  1
  O  O89  1  0.86621337  0.51084137  0.42487541  1
  O  O90  1  0.35084809  0.50667135  0.07552271  1
  O  O91  1  0.13084531  0.64232593  0.07771039  1
  O  O92  1  0.51252304  0.86807316  0.07723909  1
  O  O93  1  0.36186246  0.87198164  0.57745065  1
  O  O94  1  0.51003083  0.63710982  0.57878745  1
  O  O95  1  0.14868679  0.50679790  0.57469058  1
  O  O96  1  0.30119140  0.83746444  0.25830647  1
  O  O97  1  0.53534468  0.69511886  0.25942928  1
  O  O98  1  0.17574232  0.48289954  0.26485475  1
  O  O99  1  0.31160353  0.48685589  0.75663949  1
  O  O100  1  0.15391185  0.69211059  0.75437090  1
  O  O101  1  0.53962310  0.84277849  0.75375720  1
