# generated using pymatgen
data_Na4Zr3Zn(PO4)6
_symmetry_space_group_name_H-M   'P 1'
_cell_length_a   8.97333854
_cell_length_b   8.99659873
_cell_length_c   23.10753680
_cell_angle_alpha   90.02825388
_cell_angle_beta   89.96219522
_cell_angle_gamma   120.00626417
_symmetry_Int_Tables_number   1
_chemical_formula_structural   Na4Zr3Zn(PO4)6
_chemical_formula_sum   'Na12 Zr9 Zn3 P18 O72'
_cell_volume   1615.43381371
_cell_formula_units_Z   3
loop_
 _symmetry_equiv_pos_site_id
 _symmetry_equiv_pos_as_xyz
  1  'x, y, z'
loop_
 _atom_site_type_symbol
 _atom_site_label
 _atom_site_symmetry_multiplicity
 _atom_site_fract_x
 _atom_site_fract_y
 _atom_site_fract_z
 _atom_site_occupancy
  Na  Na0  1  0.64202462  0.01405436  0.24601988  1
  Na  Na1  1  0.37186613  0.35763619  0.24592781  1
  Na  Na2  1  0.98564593  0.62713584  0.24566386  1
  Na  Na3  1  0.98593873  0.36187766  0.74394450  1
  Na  Na4  1  0.37457591  0.01104407  0.74405587  1
  Na  Na5  1  0.70836551  0.67739564  0.41447751  1
  Na  Na6  1  0.01081917  0.01131971  0.49397952  1
  Na  Na7  1  0.00008054  0.00021735  0.00117582  1
  Na  Na8  1  0.66591563  0.34385111  0.83050190  1
  Na  Na9  1  0.66575696  0.32363501  0.33152952  1
  Na  Na10  1  0.33326698  0.66665235  0.16194166  1
  Na  Na11  1  0.34374721  0.66576810  0.66197471  1
  Zr  Zr12  1  -0.00051126  0.99808090  0.85375095  1
  Zr  Zr13  1  0.99659808  0.99648595  0.64380861  1
  Zr  Zr14  1  0.00033871  0.00015749  0.14595926  1
  Zr  Zr15  1  0.66695590  0.33245262  0.98212237  1
  Zr  Zr16  1  0.66586745  0.32687372  0.48286079  1
  Zr  Zr17  1  0.33279487  0.66644721  0.02070359  1
  Zr  Zr18  1  0.33084578  0.66560856  0.52009400  1
  Zr  Zr19  1  0.33084692  0.66670222  0.31747517  1
  Zr  Zr20  1  0.33858923  0.66577343  0.81562187  1
  Zn  Zn21  1  0.00900057  0.01013381  0.35054547  1
  Zn  Zn22  1  0.66555783  0.34158678  0.67826656  1
  Zn  Zn23  1  0.66669676  0.33289573  0.17620032  1
  P  P24  1  0.29261309  0.00265787  0.25140284  1
  P  P25  1  0.70904745  0.70653974  0.25260689  1
  P  P26  1  0.99687611  0.28941841  0.25150903  1
  P  P27  1  0.29295863  0.29038494  0.74947460  1
  P  P28  1  0.99613986  0.70486320  0.75010069  1
  P  P29  1  0.70820300  0.00137641  0.74973729  1
  P  P30  1  0.95824018  0.33451507  0.58673905  1
  P  P31  1  0.37678995  0.04115366  0.58667643  1
  P  P32  1  0.66451189  0.62172770  0.58363767  1
  P  P33  1  0.95754936  0.62389999  0.08578213  1
  P  P34  1  0.66566966  0.04167161  0.08576356  1
  P  P35  1  0.37628541  0.33444280  0.08573048  1
  P  P36  1  0.62637081  0.66555337  0.91794839  1
  P  P37  1  0.04050409  0.37439530  0.91628431  1
  P  P38  1  0.33477985  0.95951476  0.91646185  1
  P  P39  1  0.63038969  0.96119441  0.41637035  1
  P  P40  1  0.32951569  0.36851398  0.41695671  1
  P  P41  1  0.03719071  0.66979274  0.41697349  1
  O  O42  1  0.21096569  0.03244435  0.30433084  1
  O  O43  1  0.81453209  0.78383799  0.30759553  1
  O  O44  1  0.96535962  0.17715604  0.30431446  1
  O  O45  1  0.20110193  0.17697671  0.80351675  1
  O  O46  1  0.97898553  0.79796401  0.80404299  1
  O  O47  1  0.82226049  0.02328497  0.80325235  1
  O  O48  1  0.79442673  0.97402425  0.69627408  1
  O  O49  1  0.17360616  0.20535177  0.69666730  1
  O  O50  1  0.03105182  0.82396958  0.69734800  1
  O  O51  1  0.79559360  0.82634505  0.19918643  1
  O  O52  1  0.03271039  0.20780831  0.19718079  1
  O  O53  1  0.17559221  0.96776056  0.19706010  1
  O  O54  1  0.88577752  0.36145510  0.64292263  1
  O  O55  1  0.47711679  0.11301114  0.64276546  1
  O  O56  1  0.63509683  0.51532476  0.63743094  1
  O  O57  1  0.88716691  0.52507849  0.14223873  1
  O  O58  1  0.63738602  0.11245252  0.14215924  1
  O  O59  1  0.47522842  0.36257447  0.14217724  1
  O  O60  1  0.46659678  0.31108271  0.03204718  1
  O  O61  1  0.84432836  0.53357726  0.03209546  1
  O  O62  1  0.68935394  0.15523110  0.03211786  1
  O  O63  1  0.46587257  0.15519475  0.53274067  1
  O  O64  1  0.69026310  0.54093115  0.52735392  1
  O  O65  1  0.84453814  0.31061650  0.53283264  1
  O  O66  1  0.53771958  0.69004603  0.97079633  1
  O  O67  1  0.15510146  0.46525729  0.96879439  1
  O  O68  1  0.31094732  0.84520370  0.96895747  1
  O  O69  1  0.53223337  0.84276615  0.46803835  1
  O  O70  1  0.31440741  0.46823290  0.46898238  1
  O  O71  1  0.15246176  0.68575964  0.46867060  1
  O  O72  1  0.12059704  0.64239893  0.36098075  1
  O  O73  1  0.51885508  0.87755541  0.36032563  1
  O  O74  1  0.36206912  0.48415576  0.36131744  1
  O  O75  1  0.12432364  0.48121923  0.86035841  1
  O  O76  1  0.35758415  0.87561526  0.86053728  1
  O  O77  1  0.51535861  0.64202477  0.86325870  1
  O  O78  1  0.01252510  0.82496682  0.41290183  1
  O  O79  1  0.80333096  0.96878805  0.41200690  1
  O  O80  1  0.17185910  0.19281118  0.41241086  1
  O  O81  1  0.02275370  0.19502264  0.91021253  1
  O  O82  1  0.17260078  0.97722762  0.91066058  1
  O  O83  1  0.80519395  0.82754917  0.91094726  1
  O  O84  1  0.97685710  0.17140218  0.58937247  1
  O  O85  1  0.19502082  0.02328308  0.58977172  1
  O  O86  1  0.82817112  0.80349163  0.58880601  1
  O  O87  1  0.97624933  0.80563434  0.08907731  1
  O  O88  1  0.82912253  0.02299490  0.08904701  1
  O  O89  1  0.19421684  0.17098096  0.08897621  1
  O  O90  1  0.68951223  0.16165475  0.74661222  1
  O  O91  1  0.46844845  0.30317283  0.74549671  1
  O  O92  1  0.84381293  0.52300826  0.74620834  1
  O  O93  1  0.68291706  0.52463293  0.24452806  1
  O  O94  1  0.84152790  0.31721376  0.24419546  1
  O  O95  1  0.47567692  0.15802861  0.24424328  1
  O  O96  1  0.64393922  0.50431853  0.92319079  1
  O  O97  1  0.86133364  0.35699100  0.92263696  1
  O  O98  1  0.49594561  0.13873441  0.92269754  1
  O  O99  1  0.64328832  0.13850212  0.42247924  1
  O  O100  1  0.50257299  0.36685946  0.42284731  1
  O  O101  1  0.85621729  0.50469432  0.42276083  1
  O  O102  1  0.35333050  0.49337995  0.07625161  1
  O  O103  1  0.13978523  0.64662659  0.07628701  1
  O  O104  1  0.50617042  0.86013179  0.07619953  1
  O  O105  1  0.35378866  0.85998760  0.57638379  1
  O  O106  1  0.50634465  0.64721313  0.57557367  1
  O  O107  1  0.13983012  0.49330773  0.57687219  1
  O  O108  1  0.30763602  0.83420209  0.25595565  1
  O  O109  1  0.52487855  0.69123603  0.25598940  1
  O  O110  1  0.16549284  0.47293738  0.25637369  1
  O  O111  1  0.30094150  0.46756699  0.75657966  1
  O  O112  1  0.16654389  0.69398421  0.75669397  1
  O  O113  1  0.52430700  0.84033957  0.75599279  1
