# generated using pymatgen
data_CuW3Cl7
_symmetry_space_group_name_H-M   'P 1'
_cell_length_a   12.94819777
_cell_length_b   12.94819777
_cell_length_c   12.94819777
_cell_angle_alpha   90.00000000
_cell_angle_beta   90.00000000
_cell_angle_gamma   90.00000000
_symmetry_Int_Tables_number   1
_chemical_formula_structural   CuW3Cl7
_chemical_formula_sum   'Cu8 W24 Cl56'
_cell_volume   2170.84078575
_cell_formula_units_Z   8
loop_
 _symmetry_equiv_pos_site_id
 _symmetry_equiv_pos_as_xyz
  1  'x, y, z'
loop_
 _atom_site_type_symbol
 _atom_site_label
 _atom_site_symmetry_multiplicity
 _atom_site_fract_x
 _atom_site_fract_y
 _atom_site_fract_z
 _atom_site_occupancy
  Cu  Cu0  1  0.19016408  0.19016408  0.19016408  1
  Cu  Cu1  1  0.80983592  0.80983592  0.19016408  1
  Cu  Cu2  1  0.19016408  0.80983592  0.80983592  1
  Cu  Cu3  1  0.80983592  0.19016408  0.80983592  1
  Cu  Cu4  1  0.30983592  0.30983592  0.30983592  1
  Cu  Cu5  1  0.69016408  0.69016408  0.30983592  1
  Cu  Cu6  1  0.30983592  0.69016408  0.69016408  1
  Cu  Cu7  1  0.69016408  0.30983592  0.69016408  1
  W  W8  1  0.88682729  0.72508266  0.78080127  1
  W  W9  1  0.78080127  0.88682729  0.72508266  1
  W  W10  1  0.72508266  0.78080127  0.88682729  1
  W  W11  1  0.27491734  0.21919873  0.88682729  1
  W  W12  1  0.78080127  0.11317271  0.27491734  1
  W  W13  1  0.27491734  0.78080127  0.11317271  1
  W  W14  1  0.21919873  0.11317271  0.72508266  1
  W  W15  1  0.21919873  0.88682729  0.27491734  1
  W  W16  1  0.72508266  0.21919873  0.11317271  1
  W  W17  1  0.88682729  0.27491734  0.21919873  1
  W  W18  1  0.11317271  0.72508266  0.21919873  1
  W  W19  1  0.11317271  0.27491734  0.78080127  1
  W  W20  1  0.61317271  0.77491734  0.71919873  1
  W  W21  1  0.71919873  0.61317271  0.77491734  1
  W  W22  1  0.77491734  0.71919873  0.61317271  1
  W  W23  1  0.22508266  0.28080127  0.61317271  1
  W  W24  1  0.71919873  0.38682729  0.22508266  1
  W  W25  1  0.22508266  0.71919873  0.38682729  1
  W  W26  1  0.28080127  0.38682729  0.77491734  1
  W  W27  1  0.28080127  0.61317271  0.22508266  1
  W  W28  1  0.77491734  0.28080127  0.38682729  1
  W  W29  1  0.61317271  0.22508266  0.28080127  1
  W  W30  1  0.38682729  0.77491734  0.28080127  1
  W  W31  1  0.38682729  0.22508266  0.71919873  1
  Cl  Cl32  1  0.88772975  0.88772975  0.88772975  1
  Cl  Cl33  1  0.11227025  0.11227025  0.88772975  1
  Cl  Cl34  1  0.88772975  0.11227025  0.11227025  1
  Cl  Cl35  1  0.11227025  0.88772975  0.11227025  1
  Cl  Cl36  1  0.61227025  0.61227025  0.61227025  1
  Cl  Cl37  1  0.38772975  0.38772975  0.61227025  1
  Cl  Cl38  1  0.61227025  0.38772975  0.38772975  1
  Cl  Cl39  1  0.38772975  0.61227025  0.38772975  1
  Cl  Cl40  1  0.93458781  0.82700065  0.62334894  1
  Cl  Cl41  1  0.62334894  0.93458781  0.82700065  1
  Cl  Cl42  1  0.82700065  0.62334894  0.93458781  1
  Cl  Cl43  1  0.17299935  0.37665106  0.93458781  1
  Cl  Cl44  1  0.62334894  0.06541219  0.17299935  1
  Cl  Cl45  1  0.17299935  0.62334894  0.06541219  1
  Cl  Cl46  1  0.37665106  0.06541219  0.82700065  1
  Cl  Cl47  1  0.37665106  0.93458781  0.17299935  1
  Cl  Cl48  1  0.82700065  0.37665106  0.06541219  1
  Cl  Cl49  1  0.93458781  0.17299935  0.37665106  1
  Cl  Cl50  1  0.06541219  0.82700065  0.37665106  1
  Cl  Cl51  1  0.06541219  0.17299935  0.62334894  1
  Cl  Cl52  1  0.56541219  0.67299935  0.87665106  1
  Cl  Cl53  1  0.87665106  0.56541219  0.67299935  1
  Cl  Cl54  1  0.67299935  0.87665106  0.56541219  1
  Cl  Cl55  1  0.32700065  0.12334894  0.56541219  1
  Cl  Cl56  1  0.87665106  0.43458781  0.32700065  1
  Cl  Cl57  1  0.32700065  0.87665106  0.43458781  1
  Cl  Cl58  1  0.12334894  0.43458781  0.67299935  1
  Cl  Cl59  1  0.12334894  0.56541219  0.32700065  1
  Cl  Cl60  1  0.67299935  0.12334894  0.43458781  1
  Cl  Cl61  1  0.56541219  0.32700065  0.12334894  1
  Cl  Cl62  1  0.43458781  0.67299935  0.12334894  1
  Cl  Cl63  1  0.43458781  0.32700065  0.87665106  1
  Cl  Cl64  1  0.06816160  0.68827412  0.82752670  1
  Cl  Cl65  1  0.82752670  0.06816160  0.68827412  1
  Cl  Cl66  1  0.68827412  0.82752670  0.06816160  1
  Cl  Cl67  1  0.31172588  0.17247330  0.06816160  1
  Cl  Cl68  1  0.82752670  0.93183840  0.31172588  1
  Cl  Cl69  1  0.31172588  0.82752670  0.93183840  1
  Cl  Cl70  1  0.17247330  0.93183840  0.68827412  1
  Cl  Cl71  1  0.17247330  0.06816160  0.31172588  1
  Cl  Cl72  1  0.68827412  0.17247330  0.93183840  1
  Cl  Cl73  1  0.06816160  0.31172588  0.17247330  1
  Cl  Cl74  1  0.93183840  0.68827412  0.17247330  1
  Cl  Cl75  1  0.93183840  0.31172588  0.82752670  1
  Cl  Cl76  1  0.43183840  0.81172588  0.67247330  1
  Cl  Cl77  1  0.67247330  0.43183840  0.81172588  1
  Cl  Cl78  1  0.81172588  0.67247330  0.43183840  1
  Cl  Cl79  1  0.18827412  0.32752670  0.43183840  1
  Cl  Cl80  1  0.67247330  0.56816160  0.18827412  1
  Cl  Cl81  1  0.18827412  0.67247330  0.56816160  1
  Cl  Cl82  1  0.32752670  0.56816160  0.81172588  1
  Cl  Cl83  1  0.32752670  0.43183840  0.18827412  1
  Cl  Cl84  1  0.81172588  0.32752670  0.56816160  1
  Cl  Cl85  1  0.43183840  0.18827412  0.32752670  1
  Cl  Cl86  1  0.56816160  0.81172588  0.32752670  1
  Cl  Cl87  1  0.56816160  0.18827412  0.67247330  1
