# generated using pymatgen
data_Hf(Te2Cl3)2
_symmetry_space_group_name_H-M   'P 1'
_cell_length_a   6.96575153
_cell_length_b   7.02275776
_cell_length_c   7.87748025
_cell_angle_alpha   74.21839488
_cell_angle_beta   75.27969172
_cell_angle_gamma   83.09947991
_symmetry_Int_Tables_number   1
_chemical_formula_structural   Hf(Te2Cl3)2
_chemical_formula_sum   'Hf1 Te4 Cl6'
_cell_volume   358.11971465
_cell_formula_units_Z   1
loop_
 _symmetry_equiv_pos_site_id
 _symmetry_equiv_pos_as_xyz
  1  'x, y, z'
loop_
 _atom_site_type_symbol
 _atom_site_label
 _atom_site_symmetry_multiplicity
 _atom_site_fract_x
 _atom_site_fract_y
 _atom_site_fract_z
 _atom_site_occupancy
  Hf  Hf0  1  0.00000000  0.00000000  -0.00000000  1
  Te  Te1  1  0.50015125  0.59134295  0.70665352  1
  Te  Te2  1  0.49984875  0.40865705  0.29334648  1
  Te  Te3  1  0.71632721  0.31534447  0.54731667  1
  Te  Te4  1  0.28367279  0.68465553  0.45268333  1
  Cl  Cl5  1  0.77594066  0.99003122  0.29966395  1
  Cl  Cl6  1  0.22405934  0.00996878  0.70033605  1
  Cl  Cl7  1  0.74398095  0.87757199  0.90618692  1
  Cl  Cl8  1  0.25601905  0.12242801  0.09381308  1
  Cl  Cl9  1  0.88153615  0.34469972  0.88279720  1
  Cl  Cl10  1  0.11846385  0.65530028  0.11720280  1
