# generated using pymatgen
data_Na8Sc2Si5Sn2SO24
_symmetry_space_group_name_H-M   'P 1'
_cell_length_a   9.17570393
_cell_length_b   9.16102475
_cell_length_c   22.66667434
_cell_angle_alpha   90.24194119
_cell_angle_beta   89.44853687
_cell_angle_gamma   120.10160683
_symmetry_Int_Tables_number   1
_chemical_formula_structural   Na8Sc2Si5Sn2SO24
_chemical_formula_sum   'Na24 Sc6 Si15 Sn6 S3 O72'
_cell_volume   1648.29938259
_cell_formula_units_Z   3
loop_
 _symmetry_equiv_pos_site_id
 _symmetry_equiv_pos_as_xyz
  1  'x, y, z'
loop_
 _atom_site_type_symbol
 _atom_site_label
 _atom_site_symmetry_multiplicity
 _atom_site_fract_x
 _atom_site_fract_y
 _atom_site_fract_z
 _atom_site_occupancy
  Na  Na0  1  0.63918888  0.00096454  0.25220350  1
  Na  Na1  1  0.36064226  0.36179902  0.24763737  1
  Na  Na2  1  0.00000742  0.63706367  0.24989924  1
  Na  Na3  1  0.63682159  0.63592025  0.74741102  1
  Na  Na4  1  0.99805925  0.36391465  0.74977691  1
  Na  Na5  1  0.36587753  0.00216380  0.74977249  1
  Na  Na6  1  0.30047478  0.33700115  0.58573831  1
  Na  Na7  1  0.03645465  0.70010591  0.58316392  1
  Na  Na8  1  0.66491309  0.96289844  0.58321133  1
  Na  Na9  1  0.28839905  0.96508103  0.08168182  1
  Na  Na10  1  0.66822874  0.69140015  0.08642536  1
  Na  Na11  1  0.04339950  0.33868165  0.08562762  1
  Na  Na12  1  0.97566582  0.66774722  0.91631251  1
  Na  Na13  1  0.70239697  0.04279371  0.91157905  1
  Na  Na14  1  0.32304773  0.28716342  0.91788196  1
  Na  Na15  1  0.96053969  0.29662195  0.41413891  1
  Na  Na16  1  0.32931224  0.02251636  0.41623378  1
  Na  Na17  1  0.71058315  0.67832666  0.41790261  1
  Na  Na18  1  0.99307287  0.99200184  0.50089256  1
  Na  Na19  1  0.01532272  0.00561508  0.99988941  1
  Na  Na20  1  0.66773754  0.32668275  0.83202906  1
  Na  Na21  1  0.67218245  0.33223290  0.33209012  1
  Na  Na22  1  0.32695161  0.65846282  0.16701611  1
  Na  Na23  1  0.33363698  0.66655410  0.66469691  1
  Sc  Sc24  1  0.99210608  0.99203340  0.34775318  1
  Sc  Sc25  1  0.00916462  0.00731677  0.84841097  1
  Sc  Sc26  1  0.00903098  0.00001994  0.15216394  1
  Sc  Sc27  1  0.66459566  0.33388433  0.98188048  1
  Sc  Sc28  1  0.31221655  0.65423174  0.01812540  1
  Sc  Sc29  1  0.33603182  0.67911604  0.52143946  1
  Si  Si30  1  0.29591962  0.00298881  0.25020388  1
  Si  Si31  1  0.70382397  0.70744643  0.24983127  1
  Si  Si32  1  0.99982006  0.29348284  0.25005848  1
  Si  Si33  1  0.29571761  0.29542306  0.74972184  1
  Si  Si34  1  0.99631718  0.70711833  0.75012568  1
  Si  Si35  1  0.70728816  0.99969323  0.75117300  1
  Si  Si36  1  0.96266300  0.33166522  0.58481217  1
  Si  Si37  1  0.37465294  0.04499331  0.58387390  1
  Si  Si38  1  0.66614681  0.62501579  0.58360379  1
  Si  Si39  1  0.95742352  0.62798441  0.08245431  1
  Si  Si40  1  0.37280586  0.33418274  0.08269666  1
  Si  Si41  1  0.03694085  0.36885452  0.91651657  1
  Si  Si42  1  0.33339011  0.96038809  0.91765461  1
  Si  Si43  1  0.62801821  0.96138805  0.41785200  1
  Si  Si44  1  0.03858602  0.66704738  0.41838802  1
  Sn  Sn45  1  0.99936864  0.99963231  0.64897197  1
  Sn  Sn46  1  0.66750768  0.33362531  0.68500239  1
  Sn  Sn47  1  0.66933559  0.34418210  0.18627683  1
  Sn  Sn48  1  0.67690873  0.33158175  0.48568766  1
  Sn  Sn49  1  0.32946597  0.67513297  0.31414111  1
  Sn  Sn50  1  0.32411491  0.66995662  0.81280710  1
  S  S51  1  0.66704288  0.04073578  0.08294761  1
  S  S52  1  0.62429729  0.66712606  0.91696511  1
  S  S53  1  0.33406810  0.37593383  0.41752353  1
  O  O54  1  0.21789726  0.04243768  0.30861440  1
  O  O55  1  0.82159990  0.78527179  0.30767897  1
  O  O56  1  0.96442546  0.17826129  0.30862879  1
  O  O57  1  0.21590024  0.17768537  0.80756295  1
  O  O58  1  0.96016262  0.78662881  0.80846334  1
  O  O59  1  0.82357282  0.03462883  0.80865674  1
  O  O60  1  0.78466342  0.95901107  0.69156194  1
  O  O61  1  0.17504275  0.21723118  0.69150545  1
  O  O62  1  0.03906141  0.82702562  0.69129704  1
  O  O63  1  0.78171005  0.82430970  0.19146014  1
  O  O64  1  0.03546015  0.21376121  0.19132941  1
  O  O65  1  0.17837035  0.96290534  0.19242883  1
  O  O66  1  0.87908506  0.37252098  0.64195968  1
  O  O67  1  0.49523613  0.12497909  0.64145457  1
  O  O68  1  0.62905924  0.50541695  0.64171561  1
  O  O69  1  0.87838493  0.50276347  0.14109939  1
  O  O70  1  0.63446847  0.11514564  0.13684008  1
  O  O71  1  0.49242237  0.36776380  0.14169306  1
  O  O72  1  0.46013831  0.29896733  0.02566594  1
  O  O73  1  0.83902699  0.53781287  0.02551987  1
  O  O74  1  0.69511749  0.14790013  0.03066440  1
  O  O75  1  0.45376886  0.16503620  0.52420680  1
  O  O76  1  0.70490089  0.54400557  0.52384556  1
  O  O77  1  0.84386407  0.28743327  0.52557311  1
  O  O78  1  0.54553583  0.69447944  0.96993350  1
  O  O79  1  0.15916226  0.45426297  0.97339748  1
  O  O80  1  0.30714352  0.84200564  0.97492524  1
  O  O81  1  0.54190623  0.83929576  0.47390316  1
  O  O82  1  0.30725192  0.45311861  0.46932976  1
  O  O83  1  0.15701336  0.69498945  0.47434154  1
  O  O84  1  0.11638749  0.62146435  0.35891276  1
  O  O85  1  0.50835274  0.87968610  0.35845322  1
  O  O86  1  0.36526251  0.48093352  0.36303400  1
  O  O87  1  0.12372926  0.49252489  0.85820605  1
  O  O88  1  0.37634103  0.87905378  0.85862352  1
  O  O89  1  0.51893155  0.63607427  0.86352820  1
  O  O90  1  0.02393441  0.83708602  0.41189588  1
  O  O91  1  0.81740958  0.98703312  0.41183566  1
  O  O92  1  0.18241648  0.20526987  0.41135012  1
  O  O93  1  0.01572874  0.18064872  0.91247045  1
  O  O94  1  0.16085340  0.97131194  0.91256144  1
  O  O95  1  0.79368014  0.81873223  0.91143763  1
  O  O96  1  0.97534069  0.15880433  0.58925348  1
  O  O97  1  0.18716058  0.02754169  0.58842714  1
  O  O98  1  0.83906632  0.81176185  0.58818032  1
  O  O99  1  0.97140396  0.81293619  0.08783441  1
  O  O100  1  0.81971830  0.02579289  0.08822769  1
  O  O101  1  0.18402755  0.16702776  0.08767384  1
  O  O102  1  0.68707280  0.16828032  0.74481659  1
  O  O103  1  0.48294107  0.31283326  0.74438523  1
  O  O104  1  0.82824477  0.51763692  0.74472249  1
  O  O105  1  0.68592775  0.51833967  0.24641172  1
  O  O106  1  0.82801749  0.31050512  0.24369290  1
  O  O107  1  0.48738035  0.16936933  0.24246471  1
  O  O108  1  0.64119557  0.51443729  0.92181702  1
  O  O109  1  0.85309295  0.35713517  0.92205262  1
  O  O110  1  0.50280961  0.14841184  0.92125137  1
  O  O111  1  0.63744148  0.14925068  0.42178191  1
  O  O112  1  0.48809851  0.35854684  0.42122266  1
  O  O113  1  0.84594874  0.49435286  0.42155766  1
  O  O114  1  0.36560043  0.50992678  0.07849829  1
  O  O115  1  0.14627262  0.64785214  0.07994040  1
  O  O116  1  0.51640526  0.87083923  0.07690502  1
  O  O117  1  0.35670028  0.85945570  0.57910446  1
  O  O118  1  0.49836492  0.64077168  0.57771772  1
  O  O119  1  0.14744335  0.49731019  0.57742319  1
  O  O120  1  0.31364401  0.83187813  0.25390128  1
  O  O121  1  0.51268437  0.68262973  0.25797937  1
  O  O122  1  0.17229789  0.48262485  0.25649491  1
  O  O123  1  0.31703343  0.48534436  0.75709904  1
  O  O124  1  0.16753946  0.68926142  0.75305906  1
  O  O125  1  0.51905985  0.82637369  0.75626300  1
