# generated using pymatgen
data_VPO5
_symmetry_space_group_name_H-M   'P 1'
_cell_length_a   6.16315276
_cell_length_b   7.07198742
_cell_length_c   7.57808362
_cell_angle_alpha   90.00000000
_cell_angle_beta   90.00000000
_cell_angle_gamma   90.00000000
_symmetry_Int_Tables_number   1
_chemical_formula_structural   VPO5
_chemical_formula_sum   'V4 P4 O20'
_cell_volume   330.29637316
_cell_formula_units_Z   4
loop_
 _symmetry_equiv_pos_site_id
 _symmetry_equiv_pos_as_xyz
  1  'x, y, z'
loop_
 _atom_site_type_symbol
 _atom_site_label
 _atom_site_symmetry_multiplicity
 _atom_site_fract_x
 _atom_site_fract_y
 _atom_site_fract_z
 _atom_site_occupancy
  V  V0  1  0.25000000  0.73422737  0.67085028  1
  V  V1  1  0.75000000  0.23422737  0.82914972  1
  V  V2  1  0.25000000  0.76577263  0.17085028  1
  V  V3  1  0.75000000  0.26577263  0.32914972  1
  P  P4  1  0.75000000  0.61989461  0.61976571  1
  P  P5  1  0.25000000  0.11989461  0.88023429  1
  P  P6  1  0.75000000  0.88010539  0.11976571  1
  P  P7  1  0.25000000  0.38010539  0.38023429  1
  O  O8  1  0.25000000  0.49698642  0.54917056  1
  O  O9  1  0.55095508  0.74726897  0.62550817  1
  O  O10  1  0.94904492  0.74726897  0.62550817  1
  O  O11  1  0.75000000  0.15818088  0.63068669  1
  O  O12  1  0.25000000  0.99042895  0.71587218  1
  O  O13  1  0.75000000  0.49042895  0.78412782  1
  O  O14  1  0.25000000  0.65818088  0.86931331  1
  O  O15  1  0.05095508  0.24726897  0.87449183  1
  O  O16  1  0.44904492  0.24726897  0.87449183  1
  O  O17  1  0.75000000  0.99698642  0.95082944  1
  O  O18  1  0.25000000  0.00301358  0.04917056  1
  O  O19  1  0.55095508  0.75273103  0.12550817  1
  O  O20  1  0.94904492  0.75273103  0.12550817  1
  O  O21  1  0.75000000  0.34181912  0.13068669  1
  O  O22  1  0.75000000  0.50301358  0.45082944  1
  O  O23  1  0.75000000  0.00957105  0.28412782  1
  O  O24  1  0.25000000  0.84181912  0.36931331  1
  O  O25  1  0.05095508  0.25273103  0.37449183  1
  O  O26  1  0.44904492  0.25273103  0.37449183  1
  O  O27  1  0.25000000  0.50957105  0.21587218  1
