# generated using pymatgen
data_Na4TiSi3SnO12
_symmetry_space_group_name_H-M   'P 1'
_cell_length_a   9.05082818
_cell_length_b   9.05082787
_cell_length_c   22.38518752
_cell_angle_alpha   90.00000000
_cell_angle_beta   90.00000000
_cell_angle_gamma   120.00000114
_symmetry_Int_Tables_number   1
_chemical_formula_structural   Na4TiSi3SnO12
_chemical_formula_sum   'Na24 Ti6 Si18 Sn6 O72'
_cell_volume   1588.06395814
_cell_formula_units_Z   6
loop_
 _symmetry_equiv_pos_site_id
 _symmetry_equiv_pos_as_xyz
  1  'x, y, z'
loop_
 _atom_site_type_symbol
 _atom_site_label
 _atom_site_symmetry_multiplicity
 _atom_site_fract_x
 _atom_site_fract_y
 _atom_site_fract_z
 _atom_site_occupancy
  Na  Na0  1  0.63262868  0.99986989  0.25011933  1
  Na  Na1  1  0.36724122  0.36737132  0.25011933  1
  Na  Na2  1  0.00013011  0.63275878  0.25011933  1
  Na  Na3  1  0.63408373  0.63026035  0.74941654  1
  Na  Na4  1  0.99617662  0.36591627  0.74941654  1
  Na  Na5  1  0.36973965  0.00382338  0.74941654  1
  Na  Na6  1  0.29785688  0.33334600  0.58330067  1
  Na  Na7  1  0.03549012  0.70214312  0.58330067  1
  Na  Na8  1  0.66665400  0.96450988  0.58330067  1
  Na  Na9  1  0.29810114  0.96713591  0.08360106  1
  Na  Na10  1  0.66903577  0.70189886  0.08360106  1
  Na  Na11  1  0.03286409  0.33096423  0.08360106  1
  Na  Na12  1  0.96654539  0.66674257  0.91656627  1
  Na  Na13  1  0.70019618  0.03345461  0.91656627  1
  Na  Na14  1  0.33325743  0.29980382  0.91656627  1
  Na  Na15  1  0.96413407  0.29882936  0.41700004  1
  Na  Na16  1  0.33469429  0.03586593  0.41700004  1
  Na  Na17  1  0.70117064  0.66530571  0.41700004  1
  Na  Na18  1  0.00000000  -0.00000000  0.50018419  1
  Na  Na19  1  0.00000000  -0.00000000  0.00098560  1
  Na  Na20  1  0.66666700  0.33333300  0.83195887  1
  Na  Na21  1  0.66666700  0.33333300  0.33524559  1
  Na  Na22  1  0.33333300  0.66666700  0.16636782  1
  Na  Na23  1  0.33333300  0.66666700  0.66516804  1
  Ti  Ti24  1  0.00000000  -0.00000000  0.35200160  1
  Ti  Ti25  1  0.00000000  -0.00000000  0.64854380  1
  Ti  Ti26  1  0.00000000  -0.00000000  0.14840129  1
  Ti  Ti27  1  0.66666700  0.33333300  0.68324322  1
  Ti  Ti28  1  0.66666700  0.33333300  0.48319878  1
  Ti  Ti29  1  0.33333300  0.66666700  0.51763056  1
  Si  Si30  1  0.28653534  0.99978125  0.25009026  1
  Si  Si31  1  0.71324592  0.71346466  0.25009026  1
  Si  Si32  1  0.00021875  0.28675408  0.25009026  1
  Si  Si33  1  0.29291702  0.29014368  0.74849117  1
  Si  Si34  1  0.99722666  0.70708298  0.74849117  1
  Si  Si35  1  0.70985632  0.00277334  0.74849117  1
  Si  Si36  1  0.95635031  0.33341255  0.58328425  1
  Si  Si37  1  0.37706324  0.04364969  0.58328425  1
  Si  Si38  1  0.66658745  0.62293676  0.58328425  1
  Si  Si39  1  0.96020590  0.62902642  0.08387164  1
  Si  Si40  1  0.66882152  0.03979410  0.08387164  1
  Si  Si41  1  0.37097358  0.33117848  0.08387164  1
  Si  Si42  1  0.62663654  0.66686310  0.91653373  1
  Si  Si43  1  0.04022556  0.37336346  0.91653373  1
  Si  Si44  1  0.33313690  0.95977444  0.91653373  1
  Si  Si45  1  0.62587862  0.95983682  0.41770972  1
  Si  Si46  1  0.33395720  0.37412138  0.41770972  1
  Si  Si47  1  0.04016318  0.66604280  0.41770972  1
  Sn  Sn48  1  0.00000000  -0.00000000  0.85092297  1
  Sn  Sn49  1  0.66666700  0.33333300  0.18543897  1
  Sn  Sn50  1  0.66666700  0.33333300  0.98195080  1
  Sn  Sn51  1  0.33333300  0.66666700  0.01857308  1
  Sn  Sn52  1  0.33333300  0.66666700  0.31567172  1
  Sn  Sn53  1  0.33333300  0.66666700  0.81369574  1
  O  O54  1  0.19562142  0.03162924  0.30838399  1
  O  O55  1  0.83600782  0.80437858  0.30838399  1
  O  O56  1  0.96837076  0.16399218  0.30838399  1
  O  O57  1  0.21652274  0.17335768  0.80860797  1
  O  O58  1  0.95683494  0.78347726  0.80860797  1
  O  O59  1  0.82664232  0.04316506  0.80860797  1
  O  O60  1  0.80424122  0.96790753  0.69182258  1
  O  O61  1  0.16366631  0.19575878  0.69182258  1
  O  O62  1  0.03209247  0.83633369  0.69182258  1
  O  O63  1  0.80345374  0.83519512  0.19191373  1
  O  O64  1  0.03174138  0.19654626  0.19191373  1
  O  O65  1  0.16480488  0.96825862  0.19191373  1
  O  O66  1  0.86438144  0.36645511  0.64107178  1
  O  O67  1  0.50207468  0.13561856  0.64107178  1
  O  O68  1  0.63354489  0.49792532  0.64107178  1
  O  O69  1  0.88154808  0.50598066  0.14259365  1
  O  O70  1  0.62443358  0.11845192  0.14259365  1
  O  O71  1  0.49401934  0.37556642  0.14259365  1
  O  O72  1  0.44967502  0.28922868  0.02474306  1
  O  O73  1  0.83955466  0.55032498  0.02474306  1
  O  O74  1  0.71077132  0.16044534  0.02474306  1
  O  O75  1  0.46906977  0.16880543  0.52557136  1
  O  O76  1  0.69973665  0.53093023  0.52557136  1
  O  O77  1  0.83119457  0.30026335  0.52557136  1
  O  O78  1  0.54825748  0.70839808  0.97564635  1
  O  O79  1  0.16013960  0.45174252  0.97564635  1
  O  O80  1  0.29160192  0.83986040  0.97564635  1
  O  O81  1  0.53058933  0.83031159  0.47453396  1
  O  O82  1  0.29972127  0.46941067  0.47453396  1
  O  O83  1  0.16968841  0.70027873  0.47453396  1
  O  O84  1  0.11678831  0.62298149  0.35783955  1
  O  O85  1  0.50619218  0.88321169  0.35783955  1
  O  O86  1  0.37701851  0.49380782  0.35783955  1
  O  O87  1  0.11882389  0.49405743  0.85737647  1
  O  O88  1  0.37523254  0.88117611  0.85737647  1
  O  O89  1  0.50594257  0.62476746  0.85737647  1
  O  O90  1  0.02523800  0.83846799  0.41085131  1
  O  O91  1  0.81322999  0.97476200  0.41085131  1
  O  O92  1  0.16153201  0.18677001  0.41085131  1
  O  O93  1  0.02332313  0.18523465  0.91196646  1
  O  O94  1  0.16191152  0.97667687  0.91196646  1
  O  O95  1  0.81476535  0.83808848  0.91196646  1
  O  O96  1  0.97379617  0.16242113  0.59010573  1
  O  O97  1  0.18862496  0.02620383  0.59010573  1
  O  O98  1  0.83757887  0.81137504  0.59010573  1
  O  O99  1  0.97759895  0.81666231  0.09103952  1
  O  O100  1  0.83906336  0.02240105  0.09103952  1
  O  O101  1  0.18333769  0.16093664  0.09103952  1
  O  O102  1  0.69016202  0.17146619  0.74134330  1
  O  O103  1  0.48130516  0.30983798  0.74134330  1
  O  O104  1  0.82853381  0.51869484  0.74134330  1
  O  O105  1  0.69543895  0.52410567  0.24621336  1
  O  O106  1  0.82866772  0.30456105  0.24621336  1
  O  O107  1  0.47589433  0.17133228  0.24621336  1
  O  O108  1  0.64312152  0.49524229  0.92120950  1
  O  O109  1  0.85212177  0.35687848  0.92120950  1
  O  O110  1  0.50475771  0.14787823  0.92120950  1
  O  O111  1  0.64465718  0.14806771  0.42518649  1
  O  O112  1  0.50341153  0.35534282  0.42518649  1
  O  O113  1  0.85193229  0.49658847  0.42518649  1
  O  O114  1  0.35492852  0.50311742  0.07903180  1
  O  O115  1  0.14818790  0.64507148  0.07903180  1
  O  O116  1  0.49688258  0.85181210  0.07903180  1
  O  O117  1  0.35961604  0.85516237  0.57647991  1
  O  O118  1  0.49554533  0.64038396  0.57647991  1
  O  O119  1  0.14483763  0.50445467  0.57647991  1
  O  O120  1  0.30477713  0.82851521  0.25417980  1
  O  O121  1  0.52373708  0.69522287  0.25417980  1
  O  O122  1  0.17148479  0.47626292  0.25417980  1
  O  O123  1  0.30676169  0.47795632  0.75257615  1
  O  O124  1  0.17119363  0.69323831  0.75257615  1
  O  O125  1  0.52204368  0.82880637  0.75257615  1
