# generated using pymatgen
data_MgFe4(CoO4)2
_symmetry_space_group_name_H-M   'P 1'
_cell_length_a   5.84992633
_cell_length_b   6.63780217
_cell_length_c   5.84992725
_cell_angle_alpha   57.11645535
_cell_angle_beta   59.92059325
_cell_angle_gamma   57.11645880
_symmetry_Int_Tables_number   1
_chemical_formula_structural   MgFe4(CoO4)2
_chemical_formula_sum   'Mg1 Fe4 Co2 O8'
_cell_volume   153.17989870
_cell_formula_units_Z   1
loop_
 _symmetry_equiv_pos_site_id
 _symmetry_equiv_pos_as_xyz
  1  'x, y, z'
loop_
 _atom_site_type_symbol
 _atom_site_label
 _atom_site_symmetry_multiplicity
 _atom_site_fract_x
 _atom_site_fract_y
 _atom_site_fract_z
 _atom_site_occupancy
  Mg  Mg0  1  0.12500000  0.62500000  0.12500000  1
  Fe  Fe1  1  0.91175371  0.12080324  0.91175371  1
  Fe  Fe2  1  0.33824629  0.12919676  0.33824629  1
  Fe  Fe3  1  0.12500000  0.62500000  0.62500000  1
  Fe  Fe4  1  0.62500000  0.62500000  0.12500000  1
  Co  Co5  1  0.62500000  0.12500000  0.62500000  1
  Co  Co6  1  0.62500000  0.62500000  0.62500000  1
  O  O7  1  0.37764309  0.40683018  0.37764309  1
  O  O8  1  0.39832502  0.39013552  0.87564668  1
  O  O9  1  0.36084562  0.81761017  0.36084562  1
  O  O10  1  0.87564668  0.39013552  0.39832502  1
  O  O11  1  0.37435332  0.85986448  0.85167498  1
  O  O12  1  0.88915438  0.43238983  0.88915438  1
  O  O13  1  0.85167498  0.85986448  0.37435332  1
  O  O14  1  0.87235691  0.84316982  0.87235691  1
