# generated using pymatgen
data_V4ZnO10
_symmetry_space_group_name_H-M   'P 1'
_cell_length_a   3.64138016
_cell_length_b   5.28655388
_cell_length_c   11.47411000
_cell_angle_alpha   89.99773080
_cell_angle_beta   89.99914927
_cell_angle_gamma   105.36014634
_symmetry_Int_Tables_number   1
_chemical_formula_structural   V4ZnO10
_chemical_formula_sum   'V4 Zn1 O10'
_cell_volume   212.99077877
_cell_formula_units_Z   1
loop_
 _symmetry_equiv_pos_site_id
 _symmetry_equiv_pos_as_xyz
  1  'x, y, z'
loop_
 _atom_site_type_symbol
 _atom_site_label
 _atom_site_symmetry_multiplicity
 _atom_site_fract_x
 _atom_site_fract_y
 _atom_site_fract_z
 _atom_site_occupancy
  V  V0  1  0.22633300  0.40828100  0.10139600  1
  V  V1  1  0.79510500  0.60272000  0.90179900  1
  V  V2  1  0.79524300  0.60274700  0.59818500  1
  V  V3  1  0.22654300  0.40830800  0.39860000  1
  Zn  Zn4  1  0.13048600  0.20634600  0.75000300  1
  O  O5  1  0.70440100  0.40384000  0.74999300  1
  O  O6  1  0.26783200  0.52927400  0.24998900  1
  O  O7  1  0.76179300  0.50931000  0.07023700  1
  O  O8  1  0.24709000  0.47745200  0.92688600  1
  O  O9  1  0.76195900  0.50934700  0.42975000  1
  O  O10  1  0.24723000  0.47749700  0.57309900  1
  O  O11  1  0.11555200  0.09498400  0.38657400  1
  O  O12  1  0.92768500  0.92280600  0.62984600  1
  O  O13  1  0.92741300  0.92279500  0.87015000  1
  O  O14  1  0.11527500  0.09494100  0.11344200  1
