# generated using pymatgen
data_MgTe(WO4)3
_symmetry_space_group_name_H-M   'P 1'
_cell_length_a   5.63159526
_cell_length_b   11.16987502
_cell_length_c   9.88681047
_cell_angle_alpha   28.21849256
_cell_angle_beta   51.75525000
_cell_angle_gamma   56.67127015
_symmetry_Int_Tables_number   1
_chemical_formula_structural   MgTe(WO4)3
_chemical_formula_sum   'Mg1 Te1 W3 O12'
_cell_volume   230.93885220
_cell_formula_units_Z   1
loop_
 _symmetry_equiv_pos_site_id
 _symmetry_equiv_pos_as_xyz
  1  'x, y, z'
loop_
 _atom_site_type_symbol
 _atom_site_label
 _atom_site_symmetry_multiplicity
 _atom_site_fract_x
 _atom_site_fract_y
 _atom_site_fract_z
 _atom_site_occupancy
  Mg  Mg0  1  0.69219200  0.51004300  0.70293200  1
  Te  Te1  1  0.97108000  0.48589800  0.01018400  1
  W  W2  1  0.50991900  0.99628800  0.48474500  1
  W  W3  1  0.46658800  0.50747800  0.49171600  1
  W  W4  1  0.99916000  0.00527400  0.97668700  1
  O  O5  1  0.43040100  0.30387700  0.11698800  1
  O  O6  1  0.26100300  0.08062600  0.67262500  1
  O  O7  1  0.11593400  0.31477500  0.75536800  1
  O  O8  1  0.85656900  0.17664900  0.27188500  1
  O  O9  1  0.32663500  0.79912500  0.16088600  1
  O  O10  1  0.70211800  0.36514200  0.42554600  1
  O  O11  1  0.28514100  0.57890400  0.66732900  1
  O  O12  1  0.68495500  0.23511600  0.81466700  1
  O  O13  1  0.15991900  0.85604800  0.69827300  1
  O  O14  1  0.81929000  0.72155800  0.24175900  1
  O  O15  1  0.75565300  0.88318000  0.35345400  1
  O  O16  1  0.65864500  0.68627100  0.82872500  1
