# generated using pymatgen
data_Na3Ti2SiSn2P5O24
_symmetry_space_group_name_H-M   'P 1'
_cell_length_a   8.76644882
_cell_length_b   8.74852322
_cell_length_c   22.54320023
_cell_angle_alpha   90.07544730
_cell_angle_beta   89.93746082
_cell_angle_gamma   119.99694802
_symmetry_Int_Tables_number   1
_chemical_formula_structural   Na3Ti2SiSn2P5O24
_chemical_formula_sum   'Na9 Ti6 Si3 Sn6 P15 O72'
_cell_volume   1497.33017030
_cell_formula_units_Z   3
loop_
 _symmetry_equiv_pos_site_id
 _symmetry_equiv_pos_as_xyz
  1  'x, y, z'
loop_
 _atom_site_type_symbol
 _atom_site_label
 _atom_site_symmetry_multiplicity
 _atom_site_fract_x
 _atom_site_fract_y
 _atom_site_fract_z
 _atom_site_occupancy
  Na  Na0  1  0.36545408  0.99886295  0.75037357  1
  Na  Na1  1  0.66309252  0.96850311  0.58381161  1
  Na  Na2  1  0.66805821  0.69735983  0.08219789  1
  Na  Na3  1  0.01201318  0.00127824  0.49792895  1
  Na  Na4  1  0.00753416  0.00653863  0.00071239  1
  Na  Na5  1  0.67634410  0.33917801  0.83372989  1
  Na  Na6  1  0.66663918  0.33334039  0.33312690  1
  Na  Na7  1  0.32344488  0.66550681  0.16804315  1
  Na  Na8  1  0.32635409  0.65316265  0.66653809  1
  Ti  Ti9  1  0.99975314  0.00101286  0.35314207  1
  Ti  Ti10  1  0.00603873  0.00021112  0.14756442  1
  Ti  Ti11  1  0.32212689  0.66559671  0.01982459  1
  Ti  Ti12  1  0.32819688  0.66819606  0.51871093  1
  Ti  Ti13  1  0.33370800  0.66553910  0.31337760  1
  Ti  Ti14  1  0.34154415  0.66730071  0.81389060  1
  Si  Si15  1  0.71003021  0.00045012  0.75042824  1
  Si  Si16  1  0.36944589  0.04043316  0.58208646  1
  Si  Si17  1  0.95976444  0.62441251  0.08406520  1
  Sn  Sn18  1  0.99730218  0.00044749  0.85474744  1
  Sn  Sn19  1  0.00117566  0.99842256  0.64818048  1
  Sn  Sn20  1  0.66999112  0.33380026  0.68482612  1
  Sn  Sn21  1  0.66979831  0.33304142  0.18742014  1
  Sn  Sn22  1  0.66796648  0.33498546  0.98016171  1
  Sn  Sn23  1  0.66314517  0.33289070  0.47807736  1
  P  P24  1  0.28622938  0.99839118  0.25117942  1
  P  P25  1  0.71158488  0.71408973  0.25066361  1
  P  P26  1  0.00182237  0.28699054  0.25101271  1
  P  P27  1  0.29064599  0.29473466  0.75102440  1
  P  P28  1  -0.00053207  0.70515176  0.75200704  1
  P  P29  1  0.96213798  0.33824544  0.58177368  1
  P  P30  1  0.66377069  0.62231066  0.58174779  1
  P  P31  1  0.66681672  0.04169385  0.08352331  1
  P  P32  1  0.37255696  0.33100517  0.08315813  1
  P  P33  1  0.62007594  0.66558010  0.91823003  1
  P  P34  1  0.04782842  0.38121917  0.91627855  1
  P  P35  1  0.33366713  0.95460984  0.91618411  1
  P  P36  1  0.62219030  0.95242988  0.41568808  1
  P  P37  1  0.33107235  0.37968631  0.41554359  1
  P  P38  1  0.04731127  0.66859743  0.41526270  1
  O  O39  1  0.19640070  0.02576544  0.30591407  1
  O  O40  1  0.83075083  0.80649356  0.30512252  1
  O  O41  1  0.97683436  0.17051581  0.30628021  1
  O  O42  1  0.21539191  0.17084481  0.80536754  1
  O  O43  1  0.96757901  0.78776221  0.80723000  1
  O  O44  1  0.83149882  0.03962969  0.80809794  1
  O  O45  1  0.78118161  0.96048888  0.68865342  1
  O  O46  1  0.17876812  0.21709402  0.69468637  1
  O  O47  1  0.04548242  0.82527083  0.69640194  1
  O  O48  1  0.79439555  0.82258035  0.19335089  1
  O  O49  1  0.02718445  0.19985875  0.19510601  1
  O  O50  1  0.17284997  0.97260910  0.19497296  1
  O  O51  1  0.88808958  0.37618713  0.63854114  1
  O  O52  1  0.49179247  0.11119255  0.64238142  1
  O  O53  1  0.63152229  0.51267183  0.63868084  1
  O  O54  1  0.88174013  0.50440126  0.14269674  1
  O  O55  1  0.62391884  0.11541437  0.13912537  1
  O  O56  1  0.49465229  0.37607881  0.13812714  1
  O  O57  1  0.44787442  0.29016585  0.02736103  1
  O  O58  1  0.83012828  0.55178952  0.02634537  1
  O  O59  1  0.70437226  0.15641985  0.02768264  1
  O  O60  1  0.45841622  0.16156427  0.52456901  1
  O  O61  1  0.70432117  0.54597741  0.52680756  1
  O  O62  1  0.84039305  0.29637424  0.52743358  1
  O  O63  1  0.53515555  0.68873685  0.97461484  1
  O  O64  1  0.15988315  0.47215853  0.97234419  1
  O  O65  1  0.31011415  0.83971470  0.97121469  1
  O  O66  1  0.53951256  0.84439998  0.47313469  1
  O  O67  1  0.30612681  0.46673484  0.47146252  1
  O  O68  1  0.16046341  0.69449547  0.47157576  1
  O  O69  1  0.13731315  0.64100327  0.36067068  1
  O  O70  1  0.50241009  0.85978618  0.36147036  1
  O  O71  1  0.35636197  0.49633460  0.36029646  1
  O  O72  1  0.13709201  0.49321236  0.86100565  1
  O  O73  1  0.35698600  0.87008597  0.85921823  1
  O  O74  1  0.50682926  0.64607511  0.86243572  1
  O  O75  1  0.02905281  0.83478030  0.40865419  1
  O  O76  1  0.80658849  0.97029625  0.40824709  1
  O  O77  1  0.16568244  0.19394706  0.40836021  1
  O  O78  1  0.03427750  0.19719636  0.91453475  1
  O  O79  1  0.16596973  0.97177312  0.91295765  1
  O  O80  1  0.80600718  0.83175375  0.91425529  1
  O  O81  1  0.97170584  0.16655900  0.58802676  1
  O  O82  1  0.17572568  0.01759431  0.58773328  1
  O  O83  1  0.82488474  0.81178760  0.58709493  1
  O  O84  1  0.97770066  0.82004952  0.09388464  1
  O  O85  1  0.83026921  0.01870532  0.09216977  1
  O  O86  1  0.18793100  0.16998360  0.09274134  1
  O  O87  1  0.67809090  0.16955547  0.74669435  1
  O  O88  1  0.47546301  0.31338057  0.74445149  1
  O  O89  1  0.83269942  0.52443616  0.74477292  1
  O  O90  1  0.69119627  0.52691173  0.24719882  1
  O  O91  1  0.83240935  0.30179392  0.24797237  1
  O  O92  1  0.47123396  0.16650353  0.24577349  1
  O  O93  1  0.63298539  0.49457339  0.91913748  1
  O  O94  1  0.86189133  0.36132594  0.92036224  1
  O  O95  1  0.50151600  0.13912845  0.92101871  1
  O  O96  1  0.64246556  0.13947865  0.41883023  1
  O  O97  1  0.50026274  0.36441877  0.41823106  1
  O  O98  1  0.86235066  0.50061051  0.42040174  1
  O  O99  1  0.35987751  0.50060677  0.07463752  1
  O  O100  1  0.15553834  0.64927854  0.07377434  1
  O  O101  1  0.50692990  0.85251782  0.07471814  1
  O  O102  1  0.35844912  0.84669176  0.57286759  1
  O  O103  1  0.49965824  0.64393938  0.57442556  1
  O  O104  1  0.14658239  0.49930371  0.57359705  1
  O  O105  1  0.30438779  0.83211791  0.25786594  1
  O  O106  1  0.52704885  0.69626839  0.25828453  1
  O  O107  1  0.16749716  0.47263125  0.25814708  1
  O  O108  1  0.30803197  0.47686032  0.75961612  1
  O  O109  1  0.16611264  0.68841390  0.75919908  1
  O  O110  1  0.51027341  0.82639803  0.75940578  1
