# generated using pymatgen
data_Na10Ca3Ge5(PO4)12
_symmetry_space_group_name_H-M   'P 1'
_cell_length_a   17.71101303
_cell_length_b   8.87119732
_cell_length_c   21.84506655
_cell_angle_alpha   90.05759855
_cell_angle_beta   89.97184735
_cell_angle_gamma   120.23640700
_symmetry_Int_Tables_number   1
_chemical_formula_structural   Na10Ca3Ge5(PO4)12
_chemical_formula_sum   'Na30 Ca9 Ge15 P36 O144'
_cell_volume   2965.30872617
_cell_formula_units_Z   3
loop_
 _symmetry_equiv_pos_site_id
 _symmetry_equiv_pos_as_xyz
  1  'x, y, z'
loop_
 _atom_site_type_symbol
 _atom_site_label
 _atom_site_symmetry_multiplicity
 _atom_site_fract_x
 _atom_site_fract_y
 _atom_site_fract_z
 _atom_site_occupancy
  Na  Na0  1  0.32435137  0.01892397  0.25146932  1
  Na  Na1  1  0.68748166  0.35397446  0.25010011  1
  Na  Na2  1  0.31676205  0.62019102  0.75096780  1
  Na  Na3  1  0.81672597  0.61990955  0.75111193  1
  Na  Na4  1  0.15893937  0.34789207  0.57955564  1
  Na  Na5  1  0.65958559  0.35137315  0.57919820  1
  Na  Na6  1  0.01415960  0.68176618  0.58058960  1
  Na  Na7  1  0.51376038  0.67870493  0.57971964  1
  Na  Na8  1  0.32270570  0.96384907  0.57894079  1
  Na  Na9  1  0.82620287  0.97120810  0.58109765  1
  Na  Na10  1  0.15891687  0.96985494  0.07873359  1
  Na  Na11  1  0.66009773  0.97089951  0.07967771  1
  Na  Na12  1  0.32420911  0.68113197  0.07971735  1
  Na  Na13  1  0.82610354  0.68473354  0.07871344  1
  Na  Na14  1  0.01388350  0.34956773  0.07881547  1
  Na  Na15  1  0.51635316  0.34871388  0.08064429  1
  Na  Na16  1  0.66564604  0.01569116  0.41043030  1
  Na  Na17  1  0.34489320  0.67266634  0.41021395  1
  Na  Na18  1  0.00033537  0.99862984  0.49245136  1
  Na  Na19  1  0.49938819  0.02059430  0.49329653  1
  Na  Na20  1  0.99977110  0.99996800  0.99345955  1
  Na  Na21  1  0.50040040  0.00001099  0.99395294  1
  Na  Na22  1  0.33420519  0.31783559  0.83383848  1
  Na  Na23  1  0.83383583  0.31789617  0.83428923  1
  Na  Na24  1  0.33371404  0.34006826  0.32883644  1
  Na  Na25  1  0.84914429  0.34430972  0.33076607  1
  Na  Na26  1  0.15788043  0.64735712  0.16647076  1
  Na  Na27  1  0.66726425  0.68280322  0.16512259  1
  Na  Na28  1  0.15900377  0.66935715  0.66906857  1
  Na  Na29  1  0.65839360  0.66773416  0.66977846  1
  Ca  Ca30  1  0.49972981  0.00485494  0.35252162  1
  Ca  Ca31  1  0.33377214  0.32438444  0.69557805  1
  Ca  Ca32  1  0.83343870  0.32374721  0.69740596  1
  Ca  Ca33  1  0.32715420  0.33326337  0.18806187  1
  Ca  Ca34  1  0.84334007  0.34012488  0.19242055  1
  Ca  Ca35  1  0.16650221  0.66849299  0.99944363  1
  Ca  Ca36  1  0.66641926  0.66634285  0.00160758  1
  Ca  Ca37  1  0.15581710  0.64972424  0.50503807  1
  Ca  Ca38  1  0.67506898  0.67829838  0.50897618  1
  Ge  Ge39  1  0.00130828  0.99801204  0.35061842  1
  Ge  Ge40  1  0.00127481  0.00248412  0.85284111  1
  Ge  Ge41  1  0.50115307  0.00236098  0.85289374  1
  Ge  Ge42  1  0.00199702  0.00211873  0.65032300  1
  Ge  Ge43  1  0.50122226  0.00248578  0.65000423  1
  Ge  Ge44  1  0.99997579  0.00125655  0.14929232  1
  Ge  Ge45  1  0.50049174  0.99739355  0.15042760  1
  Ge  Ge46  1  0.33286229  0.33570098  0.97670467  1
  Ge  Ge47  1  0.83422180  0.33381338  0.97710492  1
  Ge  Ge48  1  0.33014163  0.32006726  0.47838310  1
  Ge  Ge49  1  0.84005427  0.34510691  0.47749958  1
  Ge  Ge50  1  0.16180938  0.66262430  0.31521682  1
  Ge  Ge51  1  0.66722524  0.66826878  0.31555549  1
  Ge  Ge52  1  0.16360813  0.66760159  0.81851403  1
  Ge  Ge53  1  0.66361824  0.66737817  0.81880556  1
  P  P54  1  0.13480959  0.97247150  0.25306609  1
  P  P55  1  0.64336968  0.97600240  0.25253713  1
  P  P56  1  0.34142212  0.70940009  0.25358957  1
  P  P57  1  0.85338489  0.72834204  0.25377301  1
  P  P58  1  0.01184208  0.29091640  0.25453149  1
  P  P59  1  0.51082840  0.31239674  0.24856688  1
  P  P60  1  0.13494644  0.29738818  0.75398830  1
  P  P61  1  0.63471329  0.29708932  0.75422261  1
  P  P62  1  0.01309733  0.73313742  0.75389673  1
  P  P63  1  0.51279996  0.73320188  0.75359014  1
  P  P64  1  0.35339034  0.97905647  0.75526135  1
  P  P65  1  0.85346599  0.97834066  0.75535019  1
  P  P66  1  0.47697521  0.32026075  0.58360212  1
  P  P67  1  0.97595145  0.31925326  0.58412714  1
  P  P68  1  0.18212034  0.04377030  0.58364021  1
  P  P69  1  0.68256233  0.04808497  0.58241669  1
  P  P70  1  0.33902124  0.63319134  0.58505376  1
  P  P71  1  0.84212779  0.63563628  0.58847440  1
  P  P72  1  0.47712339  0.63271085  0.08154586  1
  P  P73  1  0.97962734  0.63807151  0.08061112  1
  P  P74  1  0.33897249  0.04142759  0.08417963  1
  P  P75  1  0.83918466  0.04579076  0.08143006  1
  P  P76  1  0.18018012  0.32136316  0.07942797  1
  P  P77  1  0.68464116  0.32158074  0.08538719  1
  P  P78  1  0.32292904  0.66577280  0.91475801  1
  P  P79  1  0.82278976  0.66502354  0.91494631  1
  P  P80  1  0.01061324  0.35556572  0.91568287  1
  P  P81  1  0.51068135  0.35541232  0.91639240  1
  P  P82  1  0.16707118  0.97888905  0.91561541  1
  P  P83  1  0.66688677  0.97793519  0.91598025  1
  P  P84  1  0.30864821  0.97229461  0.41908449  1
  P  P85  1  0.82475887  0.98110361  0.41586542  1
  P  P86  1  0.16525586  0.35498376  0.41585080  1
  P  P87  1  0.67965248  0.37672270  0.41927041  1
  P  P88  1  0.01322849  0.67101310  0.41576137  1
  P  P89  1  0.51137118  0.64186043  0.41916944  1
  O  O90  1  0.08778419  0.99221689  0.30757249  1
  O  O91  1  0.60622280  0.99321810  0.31220376  1
  O  O92  1  0.38552774  0.78745850  0.31341701  1
  O  O93  1  0.91080969  0.82593661  0.30777960  1
  O  O94  1  0.49809615  0.20516305  0.30442571  1
  O  O95  1  0.00655517  0.17714555  0.30764990  1
  O  O96  1  0.08570939  0.18240568  0.80739203  1
  O  O97  1  0.58552620  0.18236346  0.80769382  1
  O  O98  1  0.50454736  0.83409646  0.80638960  1
  O  O99  1  0.00465198  0.83425188  0.80649794  1
  O  O100  1  0.40857890  0.98423150  0.80875228  1
  O  O101  1  0.90868201  0.98368445  0.80875342  1
  O  O102  1  0.39391729  0.95123253  0.69344285  1
  O  O103  1  0.89426530  0.95187823  0.69347160  1
  O  O104  1  0.08475123  0.21493042  0.69126042  1
  O  O105  1  0.58486808  0.21490621  0.69153757  1
  O  O106  1  0.02477297  0.83499861  0.69121687  1
  O  O107  1  0.52436275  0.83522967  0.69078552  1
  O  O108  1  0.39274269  0.83471802  0.19575190  1
  O  O109  1  0.89458684  0.82964845  0.19143114  1
  O  O110  1  0.02075334  0.21060054  0.19130995  1
  O  O111  1  0.52534460  0.22060511  0.18888080  1
  O  O112  1  0.08530258  0.96074741  0.19080863  1
  O  O113  1  0.58323411  0.95314245  0.19368605  1
  O  O114  1  0.44183250  0.36330748  0.63936373  1
  O  O115  1  0.93759203  0.35612807  0.63924175  1
  O  O116  1  0.23847054  0.11868041  0.63937587  1
  O  O117  1  0.73997340  0.13115115  0.63695299  1
  O  O118  1  0.32422429  0.53114267  0.64354790  1
  O  O119  1  0.82775404  0.53539127  0.64711734  1
  O  O120  1  0.44041240  0.52025716  0.13725504  1
  O  O121  1  0.94668615  0.53088093  0.13803999  1
  O  O122  1  0.32152985  0.10124524  0.14489071  1
  O  O123  1  0.81959677  0.11921672  0.13714105  1
  O  O124  1  0.23364068  0.36197769  0.13685262  1
  O  O125  1  0.73460229  0.35594274  0.14486541  1
  O  O126  1  0.22643616  0.28682167  0.02289319  1
  O  O127  1  0.73240402  0.28914427  0.02928428  1
  O  O128  1  0.41527209  0.54592471  0.02330922  1
  O  O129  1  0.91638316  0.54608793  0.02380926  1
  O  O130  1  0.35433581  0.17273181  0.02972716  1
  O  O131  1  0.85709683  0.16809482  0.02324990  1
  O  O132  1  0.22631401  0.16730553  0.52557578  1
  O  O133  1  0.72487139  0.15718287  0.52132233  1
  O  O134  1  0.35341331  0.54170301  0.52653677  1
  O  O135  1  0.85700823  0.54157732  0.53136752  1
  O  O136  1  0.41340264  0.27912085  0.52613456  1
  O  O137  1  0.91780210  0.29097475  0.52437139  1
  O  O138  1  0.29565515  0.70120325  0.97585096  1
  O  O139  1  0.79525900  0.70127978  0.97579816  1
  O  O140  1  0.05370043  0.40603206  0.97740395  1
  O  O141  1  0.55426480  0.40547244  0.97814735  1
  O  O142  1  0.14792846  0.89223334  0.97725169  1
  O  O143  1  0.64800441  0.89005583  0.97745675  1
  O  O144  1  0.27242377  0.88106077  0.47927538  1
  O  O145  1  0.80172628  0.89977433  0.47895675  1
  O  O146  1  0.14495523  0.39885453  0.47839154  1
  O  O147  1  0.67294584  0.44757188  0.48029873  1
  O  O148  1  0.05433065  0.71026170  0.47853004  1
  O  O149  1  0.55670084  0.66824078  0.48002649  1
  O  O150  1  0.06623697  0.63641369  0.36542270  1
  O  O151  1  0.56586480  0.62568346  0.36428808  1
  O  O152  1  0.24971466  0.86982816  0.36144300  1
  O  O153  1  0.74893525  0.87050722  0.36786531  1
  O  O154  1  0.18337076  0.50268399  0.36744824  1
  O  O155  1  0.68581361  0.49238945  0.36170985  1
  O  O156  1  0.06555393  0.49720357  0.86504573  1
  O  O157  1  0.56509464  0.49690370  0.86551786  1
  O  O158  1  0.18252543  0.86829890  0.86508730  1
  O  O159  1  0.68271791  0.86881929  0.86497976  1
  O  O160  1  0.25592622  0.63646154  0.86116536  1
  O  O161  1  0.75597505  0.63580884  0.86116735  1
  O  O162  1  0.99477323  0.82115789  0.40245574  1
  O  O163  1  0.49535948  0.79490590  0.41204002  1
  O  O164  1  0.40037635  0.00009139  0.41486191  1
  O  O165  1  0.91661613  0.01097339  0.40157671  1
  O  O166  1  0.09062510  0.16700344  0.40229211  1
  O  O167  1  0.60540344  0.18839118  0.41488599  1
  O  O168  1  0.99540620  0.16958263  0.90275487  1
  O  O169  1  0.49538450  0.16957564  0.90305002  1
  O  O170  1  0.09024600  0.01166687  0.90234447  1
  O  O171  1  0.58994614  0.01049016  0.90271040  1
  O  O172  1  0.41732461  0.82126185  0.90334223  1
  O  O173  1  0.91721859  0.82058720  0.90339647  1
  O  O174  1  0.47674018  0.14058536  0.59017719  1
  O  O175  1  0.97600530  0.14046768  0.58926270  1
  O  O176  1  0.09307645  0.04712274  0.58879615  1
  O  O177  1  0.59255255  0.04760516  0.58799641  1
  O  O178  1  0.42852205  0.81573062  0.58864309  1
  O  O179  1  0.93166666  0.81744175  0.59034439  1
  O  O180  1  0.47785857  0.81308520  0.08883204  1
  O  O181  1  0.97905703  0.81669789  0.08714154  1
  O  O182  1  0.42867315  0.03928736  0.08765816  1
  O  O183  1  0.92842000  0.04367430  0.08833435  1
  O  O184  1  0.09068910  0.14096236  0.08618363  1
  O  O185  1  0.59367156  0.14149522  0.08867611  1
  O  O186  1  0.34237782  0.13624141  0.75704014  1
  O  O187  1  0.84214284  0.13513531  0.75751311  1
  O  O188  1  0.22762247  0.32865762  0.75440240  1
  O  O189  1  0.72735211  0.32834577  0.75504567  1
  O  O190  1  0.43062384  0.55442439  0.75393469  1
  O  O191  1  0.93115975  0.55421824  0.75456403  1
  O  O192  1  0.32214735  0.52511641  0.24831894  1
  O  O193  1  0.83712505  0.54267702  0.25452907  1
  O  O194  1  0.43451287  0.34179641  0.24303384  1
  O  O195  1  0.93394911  0.31611420  0.25707246  1
  O  O196  1  0.22902324  0.12210229  0.25428443  1
  O  O197  1  0.73273997  0.13724850  0.24558792  1
  O  O198  1  0.32704891  0.49272626  0.91637168  1
  O  O199  1  0.82668104  0.49180183  0.91717786  1
  O  O200  1  0.41949275  0.34428740  0.91843397  1
  O  O201  1  0.91977881  0.34587838  0.91719601  1
  O  O202  1  0.25414077  0.15968117  0.91745485  1
  O  O203  1  0.75313788  0.16015548  0.91819438  1
  O  O204  1  0.30978546  0.15061094  0.41853189  1
  O  O205  1  0.82509148  0.15949775  0.41720832  1
  O  O206  1  0.25658070  0.36407394  0.41831950  1
  O  O207  1  0.76790183  0.37133546  0.41807953  1
  O  O208  1  0.41941736  0.46928603  0.41966791  1
  O  O209  1  0.92513329  0.49309021  0.41879216  1
  O  O210  1  0.16234096  0.47073103  0.07008591  1
  O  O211  1  0.66829816  0.47320934  0.07462326  1
  O  O212  1  0.07235982  0.67383120  0.07101506  1
  O  O213  1  0.57048342  0.67020687  0.07269296  1
  O  O214  1  0.26309519  0.85721404  0.07258859  1
  O  O215  1  0.76392789  0.85889528  0.07287012  1
  O  O216  1  0.16226260  0.85625071  0.57649998  1
  O  O217  1  0.66346796  0.85984823  0.57822725  1
  O  O218  1  0.26242966  0.66459646  0.57599346  1
  O  O219  1  0.76671274  0.67139390  0.58153741  1
  O  O220  1  0.06979056  0.46908562  0.57824835  1
  O  O221  1  0.57078352  0.46788820  0.57460794  1
  O  O222  1  0.13418039  0.79491259  0.25675118  1
  O  O223  1  0.64770526  0.80306163  0.25437483  1
  O  O224  1  0.25317810  0.71804504  0.25291490  1
  O  O225  1  0.76306598  0.71992631  0.25900131  1
  O  O226  1  0.09865243  0.47154593  0.25931759  1
  O  O227  1  0.60256214  0.48777210  0.25286843  1
  O  O228  1  0.14032572  0.48072524  0.75797820  1
  O  O229  1  0.64022526  0.48075754  0.75826757  1
  O  O230  1  0.09831020  0.72121599  0.75920067  1
  O  O231  1  0.59799209  0.72104036  0.75913319  1
  O  O232  1  0.26144390  0.80421439  0.75812744  1
  O  O233  1  0.76147024  0.80378915  0.75811536  1
