# generated using pymatgen
data_Pr2MgMn2(GeO5)2
_symmetry_space_group_name_H-M   'P 1'
_cell_length_a   5.82198954
_cell_length_b   6.32519245
_cell_length_c   6.89202617
_cell_angle_alpha   88.62931405
_cell_angle_beta   99.27052977
_cell_angle_gamma   105.79755527
_symmetry_Int_Tables_number   1
_chemical_formula_structural   Pr2MgMn2(GeO5)2
_chemical_formula_sum   'Pr2 Mg1 Mn2 Ge2 O10'
_cell_volume   240.97126945
_cell_formula_units_Z   1
loop_
 _symmetry_equiv_pos_site_id
 _symmetry_equiv_pos_as_xyz
  1  'x, y, z'
loop_
 _atom_site_type_symbol
 _atom_site_label
 _atom_site_symmetry_multiplicity
 _atom_site_fract_x
 _atom_site_fract_y
 _atom_site_fract_z
 _atom_site_occupancy
  Pr  Pr0  1  0.34639227  0.19448505  0.82590377  1
  Pr  Pr1  1  0.62649920  0.75873380  0.18464821  1
  Mg  Mg2  1  0.81065771  0.28210055  0.46762329  1
  Mn  Mn3  1  -0.01819026  0.47090553  0.00038587  1
  Mn  Mn4  1  0.16423775  0.67181134  0.53422378  1
  Ge  Ge5  1  0.72959879  0.80068559  0.73364182  1
  Ge  Ge6  1  0.24671005  0.15643953  0.28245152  1
  O  O7  1  0.89888261  0.54396244  0.29283274  1
  O  O8  1  0.30867135  0.96342518  0.13049271  1
  O  O9  1  0.94109051  0.08196234  0.32009596  1
  O  O10  1  0.66677462  -0.00681138  0.88536716  1
  O  O11  1  0.46198363  0.21175746  0.49990883  1
  O  O12  1  0.29939159  0.39615129  0.12829106  1
  O  O13  1  0.66748579  0.55763004  0.88161967  1
  O  O14  1  0.03688747  0.86966599  0.70525879  1
  O  O15  1  0.05659993  0.39186630  0.70972857  1
  O  O16  1  0.52716000  0.74897894  0.51011924  1
