# generated using pymatgen
data_Cd4OF6
_symmetry_space_group_name_H-M   'P 1'
_cell_length_a   7.52515639
_cell_length_b   7.52515639
_cell_length_c   5.42295958
_cell_angle_alpha   90.00000000
_cell_angle_beta   90.00000000
_cell_angle_gamma   90.00000000
_symmetry_Int_Tables_number   1
_chemical_formula_structural   Cd4OF6
_chemical_formula_sum   'Cd8 O2 F12'
_cell_volume   307.09123955
_cell_formula_units_Z   2
loop_
 _symmetry_equiv_pos_site_id
 _symmetry_equiv_pos_as_xyz
  1  'x, y, z'
loop_
 _atom_site_type_symbol
 _atom_site_label
 _atom_site_symmetry_multiplicity
 _atom_site_fract_x
 _atom_site_fract_y
 _atom_site_fract_z
 _atom_site_occupancy
  Cd  Cd0  1  0.50000000  0.24793695  0.19725462  1
  Cd  Cd1  1  0.50000000  0.75206305  0.19725462  1
  Cd  Cd2  1  0.25206305  0.00000000  0.69725462  1
  Cd  Cd3  1  0.74793695  0.00000000  0.69725462  1
  Cd  Cd4  1  0.24793695  0.50000000  0.80274538  1
  Cd  Cd5  1  -0.00000000  0.25206305  0.30274538  1
  Cd  Cd6  1  -0.00000000  0.74793695  0.30274538  1
  Cd  Cd7  1  0.75206305  0.50000000  0.80274538  1
  O  O8  1  0.50000000  0.50000000  -0.00000000  1
  O  O9  1  -0.00000000  0.00000000  0.50000000  1
  F  F10  1  0.50000000  0.00000000  0.92995039  1
  F  F11  1  0.50000000  0.00000000  0.42995039  1
  F  F12  1  -0.00000000  0.50000000  0.57004961  1
  F  F13  1  -0.00000000  0.50000000  0.07004961  1
  F  F14  1  0.78748524  0.78748524  -0.00000000  1
  F  F15  1  0.28748524  0.71251476  0.50000000  1
  F  F16  1  0.28748524  0.28748524  0.50000000  1
  F  F17  1  0.78748524  0.21251476  -0.00000000  1
  F  F18  1  0.21251476  0.78748524  -0.00000000  1
  F  F19  1  0.71251476  0.71251476  0.50000000  1
  F  F20  1  0.21251476  0.21251476  -0.00000000  1
  F  F21  1  0.71251476  0.28748524  0.50000000  1
