# generated using pymatgen
data_RbAg5S3
_symmetry_space_group_name_H-M   'P 1'
_cell_length_a   13.49692863
_cell_length_b   13.49693446
_cell_length_c   8.05110563
_cell_angle_alpha   90.00004282
_cell_angle_beta   89.99996679
_cell_angle_gamma   120.00003404
_symmetry_Int_Tables_number   1
_chemical_formula_structural   RbAg5S3
_chemical_formula_sum   'Rb6 Ag30 S18'
_cell_volume   1270.15317356
_cell_formula_units_Z   6
loop_
 _symmetry_equiv_pos_site_id
 _symmetry_equiv_pos_as_xyz
  1  'x, y, z'
loop_
 _atom_site_type_symbol
 _atom_site_label
 _atom_site_symmetry_multiplicity
 _atom_site_fract_x
 _atom_site_fract_y
 _atom_site_fract_z
 _atom_site_occupancy
  Rb  Rb0  1  0.33333361  0.66666687  0.50104756  1
  Rb  Rb1  1  0.33333336  0.66666676  0.99895277  1
  Rb  Rb2  1  0.00000012  0.00000001  0.50000046  1
  Rb  Rb3  1  0.00000004  0.99999990  -0.00000018  1
  Rb  Rb4  1  0.66666701  0.33333328  0.49895261  1
  Rb  Rb5  1  0.66666663  0.33333335  0.00104767  1
  Ag  Ag6  1  0.63235329  0.63356848  0.24999979  1
  Ag  Ag7  1  0.00121588  0.36764788  0.25000016  1
  Ag  Ag8  1  0.36643245  0.99878461  0.24999930  1
  Ag  Ag9  1  0.63356743  0.63235424  0.75000026  1
  Ag  Ag10  1  0.99878646  0.36643177  0.75000025  1
  Ag  Ag11  1  0.36764661  0.00121420  0.75000091  1
  Ag  Ag12  1  0.00000076  0.53612259  0.49999669  1
  Ag  Ag13  1  0.53612136  0.99999879  -0.00000024  1
  Ag  Ag14  1  0.46387735  0.46387857  -0.00000027  1
  Ag  Ag15  1  0.46387711  0.46387864  0.50000039  1
  Ag  Ag16  1  0.53612073  0.99999849  0.49999916  1
  Ag  Ag17  1  0.00000105  0.53612285  -0.00000045  1
  Ag  Ag18  1  0.18443006  0.85151804  0.50039998  1
  Ag  Ag19  1  0.66708825  0.81557003  0.99960019  1
  Ag  Ag20  1  0.14848232  0.33291188  0.99960049  1
  Ag  Ag21  1  0.14848170  0.33291182  0.50039973  1
  Ag  Ag22  1  0.66708884  0.81557148  0.50039801  1
  Ag  Ag23  1  0.18442985  0.85151841  0.99960052  1
  Ag  Ag24  1  0.81557128  0.66708929  0.49959986  1
  Ag  Ag25  1  0.85151671  0.18442699  0.00039843  1
  Ag  Ag26  1  0.33291055  0.14848243  0.00039825  1
  Ag  Ag27  1  0.33291037  0.14848230  0.49960222  1
  Ag  Ag28  1  0.85151755  0.18442760  0.49960239  1
  Ag  Ag29  1  0.81556921  0.66708899  0.00039914  1
  Ag  Ag30  1  0.29727057  0.29193882  0.75000052  1
  Ag  Ag31  1  0.70806190  0.00533147  0.75000031  1
  Ag  Ag32  1  0.99466834  0.70273110  0.75000108  1
  Ag  Ag33  1  0.29193844  0.29727025  0.24999993  1
  Ag  Ag34  1  0.70273103  0.99466746  0.25000001  1
  Ag  Ag35  1  0.00533081  0.70806217  0.24999926  1
  S  S36  1  0.08641507  0.22352267  0.75000008  1
  S  S37  1  0.77647882  0.86289250  0.75000289  1
  S  S38  1  0.13710840  0.91358552  0.74999996  1
  S  S39  1  0.41932552  0.52899707  0.75000017  1
  S  S40  1  0.47100310  0.89032851  0.74999988  1
  S  S41  1  0.10967179  0.58067464  0.75000022  1
  S  S42  1  0.44091102  0.22125217  0.75000006  1
  S  S43  1  0.77874800  0.21965850  0.75000014  1
  S  S44  1  0.78034064  0.55908763  0.74999802  1
  S  S45  1  0.22352060  0.08641364  0.25000017  1
  S  S46  1  0.91358712  0.13710719  0.25000001  1
  S  S47  1  0.86289209  0.77647818  0.24999807  1
  S  S48  1  0.22125475  0.44091414  0.25000024  1
  S  S49  1  0.55908747  0.78034092  0.25000290  1
  S  S50  1  0.21965944  0.77874567  0.25000009  1
  S  S51  1  0.52899653  0.41932647  0.25000041  1
  S  S52  1  0.58067355  0.10966998  0.25000026  1
  S  S53  1  0.89033008  0.47100377  0.25000029  1
