# generated using pymatgen
data_Na7La2Ga2SiP5O24
_symmetry_space_group_name_H-M   'P 1'
_cell_length_a   9.25269628
_cell_length_b   9.23345833
_cell_length_c   22.71918710
_cell_angle_alpha   90.02626490
_cell_angle_beta   89.67178706
_cell_angle_gamma   119.74607327
_symmetry_Int_Tables_number   1
_chemical_formula_structural   Na7La2Ga2SiP5O24
_chemical_formula_sum   'Na21 La6 Ga6 Si3 P15 O72'
_cell_volume   1685.20571969
_cell_formula_units_Z   3
loop_
 _symmetry_equiv_pos_site_id
 _symmetry_equiv_pos_as_xyz
  1  'x, y, z'
loop_
 _atom_site_type_symbol
 _atom_site_label
 _atom_site_symmetry_multiplicity
 _atom_site_fract_x
 _atom_site_fract_y
 _atom_site_fract_z
 _atom_site_occupancy
  Na  Na0  1  0.37190477  0.37632480  0.25406631  1
  Na  Na1  1  0.00657242  0.62992311  0.25168410  1
  Na  Na2  1  0.63570112  0.65417687  0.75245358  1
  Na  Na3  1  0.00319355  0.36007603  0.75901394  1
  Na  Na4  1  0.35434824  0.98274467  0.75272108  1
  Na  Na5  1  0.30900350  0.33685652  0.57471558  1
  Na  Na6  1  0.03677690  0.68698903  0.57583072  1
  Na  Na7  1  0.64718080  0.96513921  0.58142970  1
  Na  Na8  1  0.30894310  0.97535849  0.08415441  1
  Na  Na9  1  0.67564927  0.69272591  0.08327527  1
  Na  Na10  1  0.02644269  0.34142840  0.08614424  1
  Na  Na11  1  0.96051237  0.66726689  0.92026356  1
  Na  Na12  1  0.70530602  0.03770391  0.91546564  1
  Na  Na13  1  0.96157497  0.29134219  0.41061875  1
  Na  Na14  1  0.32840198  0.03593331  0.41473007  1
  Na  Na15  1  0.99079691  0.98433520  0.49615121  1
  Na  Na16  1  0.01094956  0.00914449  0.00982643  1
  Na  Na17  1  0.65278056  0.32931615  0.83101694  1
  Na  Na18  1  0.66637981  0.33195747  0.33053655  1
  Na  Na19  1  0.34282300  0.68060565  0.16779917  1
  Na  Na20  1  0.34036926  0.67641942  0.66636133  1
  La  La21  1  0.01049765  0.01156690  0.85593934  1
  La  La22  1  0.00108378  0.00139494  0.65700419  1
  La  La23  1  0.66235102  0.32456468  0.67387310  1
  La  La24  1  0.66949955  0.32429688  0.18416784  1
  La  La25  1  0.65905862  0.33683986  0.98619653  1
  La  La26  1  0.66437908  0.34341665  0.47588291  1
  Ga  Ga27  1  0.98811274  0.99223500  0.34981727  1
  Ga  Ga28  1  0.99392647  0.99198226  0.15575448  1
  Ga  Ga29  1  0.32990021  0.66363377  0.01839987  1
  Ga  Ga30  1  0.34097495  0.67341704  0.50906208  1
  Ga  Ga31  1  0.34725492  0.67570637  0.31520762  1
  Ga  Ga32  1  0.33717843  0.66729783  0.81941399  1
  Si  Si33  1  0.67493776  0.99258372  0.75468270  1
  Si  Si34  1  0.34824516  0.00597346  0.57690967  1
  Si  Si35  1  0.98978759  0.65759794  0.08481130  1
  P  P36  1  0.27537985  0.99030260  0.25555728  1
  P  P37  1  0.70616755  0.72024447  0.25302835  1
  P  P38  1  0.01105884  0.28893053  0.25444126  1
  P  P39  1  0.31801729  0.32801853  0.74904005  1
  P  P40  1  0.00761262  0.68186647  0.75499820  1
  P  P41  1  0.99313005  0.34571562  0.57668716  1
  P  P42  1  0.65588727  0.64879031  0.58283083  1
  P  P43  1  0.66820221  0.01021642  0.07989516  1
  P  P44  1  0.34153695  0.33085331  0.08932161  1
  P  P45  1  0.60872864  0.66283120  0.91843424  1
  P  P46  1  0.05335547  0.39203869  0.91946986  1
  P  P47  1  0.33755245  0.94251678  0.91912758  1
  P  P48  1  0.63016347  0.94424422  0.41170032  1
  P  P49  1  0.31793450  0.37513825  0.40991606  1
  P  P50  1  0.06131035  0.67989197  0.40895236  1
  O  O51  1  0.18785983  0.01051152  0.31125100  1
  O  O52  1  0.82057704  0.80979730  0.30544832  1
  O  O53  1  0.99532202  0.18811917  0.31111862  1
  O  O54  1  0.22327744  0.19203358  0.79590826  1
  O  O55  1  0.98057500  0.77093038  0.80790185  1
  O  O56  1  0.80317956  0.02780296  0.80936008  1
  O  O57  1  0.75349273  0.96481144  0.69339888  1
  O  O58  1  0.23054865  0.26402150  0.68899967  1
  O  O59  1  0.03575609  0.78451574  0.69786665  1
  O  O60  1  0.78534493  0.81360160  0.19414255  1
  O  O61  1  0.01623242  0.19393589  0.19843684  1
  O  O62  1  0.17080785  0.97026175  0.19929973  1
  O  O63  1  0.92345421  0.37556290  0.63497346  1
  O  O64  1  0.45258863  0.07774455  0.63865281  1
  O  O65  1  0.63220039  0.56217078  0.64323410  1
  O  O66  1  0.90770434  0.52522608  0.13997096  1
  O  O67  1  0.61546660  0.09232697  0.12884062  1
  O  O68  1  0.45499519  0.37246925  0.14400167  1
  O  O69  1  0.41901691  0.28065696  0.03808445  1
  O  O70  1  0.86415709  0.58222699  0.02794913  1
  O  O71  1  0.70815659  0.11754440  0.02326667  1
  O  O72  1  0.44115976  0.14016820  0.52345592  1
  O  O73  1  0.69901216  0.55355818  0.53659211  1
  O  O74  1  0.87259724  0.31695011  0.52562578  1
  O  O75  1  0.51116864  0.65365332  0.97506232  1
  O  O76  1  0.14143241  0.48538943  0.97624989  1
  O  O77  1  0.34712297  0.85447171  0.97553456  1
  O  O78  1  0.55057396  0.85099187  0.47040889  1
  O  O79  1  0.31311917  0.46806908  0.46670938  1
  O  O80  1  0.16401063  0.69863640  0.46564352  1
  O  O81  1  0.15092111  0.66271273  0.35342366  1
  O  O82  1  0.51599973  0.85485698  0.35926600  1
  O  O83  1  0.33231340  0.47750124  0.35392716  1
  O  O84  1  0.14777114  0.48063030  0.86232013  1
  O  O85  1  0.33278361  0.84954658  0.86186456  1
  O  O86  1  0.52049428  0.66508366  0.86123987  1
  O  O87  1  0.03989040  0.83836312  0.40809964  1
  O  O88  1  0.81179845  0.97068439  0.40817190  1
  O  O89  1  0.15511025  0.19829750  0.41175216  1
  O  O90  1  0.02260912  0.21134623  0.92463814  1
  O  O91  1  0.17530716  0.95281110  0.92469473  1
  O  O92  1  0.78277504  0.82559621  0.92285444  1
  O  O93  1  0.01311424  0.18981841  0.57986857  1
  O  O94  1  0.15840936  0.97562544  0.57998595  1
  O  O95  1  0.80191156  0.82954332  0.58155626  1
  O  O96  1  0.00466089  0.84162604  0.09660881  1
  O  O97  1  0.82962237  0.00537339  0.09447625  1
  O  O98  1  0.16448897  0.17806384  0.09807905  1
  O  O99  1  0.64884153  0.15539179  0.75236181  1
  O  O100  1  0.49857010  0.36216653  0.74955644  1
  O  O101  1  0.85265620  0.50722582  0.75105894  1
  O  O102  1  0.68845164  0.54162159  0.25188621  1
  O  O103  1  0.86058013  0.32158320  0.25491340  1
  O  O104  1  0.44735389  0.15380723  0.25342248  1
  O  O105  1  0.64203088  0.51387024  0.91390941  1
  O  O106  1  0.87842300  0.37963303  0.91537263  1
  O  O107  1  0.49614918  0.11745449  0.91479593  1
  O  O108  1  0.64959296  0.12339528  0.41187090  1
  O  O109  1  0.46747979  0.34194761  0.40776474  1
  O  O110  1  0.89004545  0.51626416  0.40938361  1
  O  O111  1  0.32810997  0.48921015  0.07675574  1
  O  O112  1  0.17783185  0.68017019  0.07609514  1
  O  O113  1  0.51939610  0.82952717  0.07424205  1
  O  O114  1  0.34653166  0.82834422  0.56775938  1
  O  O115  1  0.48901107  0.64265056  0.56984839  1
  O  O116  1  0.16398847  0.50433562  0.56752829  1
  O  O117  1  0.29619867  0.83130049  0.25669199  1
  O  O118  1  0.52369598  0.69272604  0.25684643  1
  O  O119  1  0.17384206  0.46615043  0.25283125  1
  O  O120  1  0.31553598  0.49126475  0.76074226  1
  O  O121  1  0.16569161  0.66633909  0.76118907  1
  O  O122  1  0.49359807  0.82007144  0.76084167  1
