# generated using pymatgen
data_MgCo5NiO12
_symmetry_space_group_name_H-M   'P 1'
_cell_length_a   4.87562293
_cell_length_b   4.88668329
_cell_length_c   9.99477807
_cell_angle_alpha   90.58094971
_cell_angle_beta   89.91092124
_cell_angle_gamma   60.02082834
_symmetry_Int_Tables_number   1
_chemical_formula_structural   MgCo5NiO12
_chemical_formula_sum   'Mg1 Co5 Ni1 O12'
_cell_volume   206.25485891
_cell_formula_units_Z   1
loop_
 _symmetry_equiv_pos_site_id
 _symmetry_equiv_pos_as_xyz
  1  'x, y, z'
loop_
 _atom_site_type_symbol
 _atom_site_label
 _atom_site_symmetry_multiplicity
 _atom_site_fract_x
 _atom_site_fract_y
 _atom_site_fract_z
 _atom_site_occupancy
  Mg  Mg0  1  0.49293400  0.83613800  0.75014200  1
  Co  Co1  1  0.16675100  0.66699800  0.49711000  1
  Co  Co2  1  0.67008000  0.66262200  0.00850700  1
  Co  Co3  1  0.33310100  0.33279400  0.00397400  1
  Co  Co4  1  0.83271200  0.33403300  0.49690800  1
  Co  Co5  1  0.49994500  0.00343200  0.49170600  1
  Ni  Ni6  1  0.00071800  0.99919300  0.00033600  1
  O  O7  1  0.00811200  0.66755000  0.09710600  1
  O  O8  1  0.33848800  0.66923300  0.90206000  1
  O  O9  1  0.16108100  0.33966500  0.40261300  1
  O  O10  1  0.50109700  0.65802200  0.40263200  1
  O  O11  1  0.49825200  0.33867400  0.59584800  1
  O  O12  1  0.17363700  0.99818700  0.59845300  1
  O  O13  1  0.82181600  0.67308500  0.59871600  1
  O  O14  1  0.66798900  0.32583900  0.09716700  1
  O  O15  1  0.32311300  0.00877100  0.09730700  1
  O  O16  1  0.00517900  0.32655700  0.90443300  1
  O  O17  1  0.66298800  0.99356100  0.90237600  1
  O  O18  1  0.84201000  0.99898000  0.40260700  1
