# generated using pymatgen
data_Na2YScSi(SO6)2
_symmetry_space_group_name_H-M   'P 1'
_cell_length_a   9.15753965
_cell_length_b   9.16935895
_cell_length_c   23.47190271
_cell_angle_alpha   90.09592821
_cell_angle_beta   89.72923167
_cell_angle_gamma   119.87112983
_symmetry_Int_Tables_number   1
_chemical_formula_structural   Na2YScSi(SO6)2
_chemical_formula_sum   'Na12 Y6 Sc6 Si6 S12 O72'
_cell_volume   1709.04788250
_cell_formula_units_Z   6
loop_
 _symmetry_equiv_pos_site_id
 _symmetry_equiv_pos_as_xyz
  1  'x, y, z'
loop_
 _atom_site_type_symbol
 _atom_site_label
 _atom_site_symmetry_multiplicity
 _atom_site_fract_x
 _atom_site_fract_y
 _atom_site_fract_z
 _atom_site_occupancy
  Na  Na0  1  0.00141295  0.62851015  0.25251114  1
  Na  Na1  1  0.37584916  0.00246443  0.74943548  1
  Na  Na2  1  0.65992371  0.97031626  0.59258546  1
  Na  Na3  1  0.02895983  0.33991725  0.09450542  1
  Na  Na4  1  0.98723628  0.67835362  0.92652241  1
  Na  Na5  1  0.32091100  0.01503438  0.42266911  1
  Na  Na6  1  0.01330578  0.98481521  0.50087393  1
  Na  Na7  1  0.01784084  0.98178023  0.00136614  1
  Na  Na8  1  0.65746567  0.30111334  0.83297567  1
  Na  Na9  1  0.69035339  0.34009931  0.33553214  1
  Na  Na10  1  0.32924774  0.65863011  0.16940166  1
  Na  Na11  1  0.33968370  0.67181393  0.66617924  1
  Y  Y12  1  0.99480448  0.00780881  0.84829467  1
  Y  Y13  1  0.00133770  0.99466538  0.15247972  1
  Y  Y14  1  0.65593877  0.32555023  0.98233786  1
  Y  Y15  1  0.33101644  0.68318054  0.02000358  1
  Y  Y16  1  0.31742483  0.67052743  0.51744756  1
  Y  Y17  1  0.35132783  0.68222129  0.81244138  1
  Sc  Sc18  1  0.99117050  0.00472687  0.34995213  1
  Sc  Sc19  1  0.00333757  0.99739944  0.64695557  1
  Sc  Sc20  1  0.66351560  0.32149497  0.68302572  1
  Sc  Sc21  1  0.68304675  0.33920533  0.18711144  1
  Sc  Sc22  1  0.66881244  0.34149601  0.48215425  1
  Sc  Sc23  1  0.30900738  0.64662225  0.31771144  1
  Si  Si24  1  0.00088697  0.29879246  0.24865048  1
  Si  Si25  1  0.70562693  0.00532663  0.74289801  1
  Si  Si26  1  0.37203568  0.04653231  0.58212639  1
  Si  Si27  1  0.96081225  0.63003296  0.08310358  1
  Si  Si28  1  0.33026540  0.97219659  0.91221887  1
  Si  Si29  1  0.02497159  0.66852212  0.41351077  1
  S  S30  1  0.30229647  0.00074863  0.25420411  1
  S  S31  1  0.69838848  0.70140689  0.25281115  1
  S  S32  1  0.29708332  0.29341842  0.74549814  1
  S  S33  1  0.99226632  0.70018231  0.74792200  1
  S  S34  1  0.95345933  0.32781585  0.58377559  1
  S  S35  1  0.67176417  0.62597793  0.58454940  1
  S  S36  1  0.66839272  0.04109053  0.08690350  1
  S  S37  1  0.37250073  0.33377617  0.08716935  1
  S  S38  1  0.63248423  0.66537049  0.91711830  1
  S  S39  1  0.04022967  0.37218866  0.91782045  1
  S  S40  1  0.62815069  0.96169155  0.41610088  1
  S  S41  1  0.33342166  0.36799641  0.41542243  1
  O  O42  1  0.21926553  0.02232363  0.30540447  1
  O  O43  1  0.81519525  0.78485796  0.30145112  1
  O  O44  1  0.98162820  0.17289815  0.30131289  1
  O  O45  1  0.22667358  0.19187891  0.79834485  1
  O  O46  1  0.97348052  0.77289326  0.80229570  1
  O  O47  1  0.80728720  0.02124509  0.80105350  1
  O  O48  1  0.80463309  0.99012243  0.68630258  1
  O  O49  1  0.19052120  0.20276245  0.69613432  1
  O  O50  1  0.02266713  0.81903756  0.69994014  1
  O  O51  1  0.77195281  0.79980373  0.19993391  1
  O  O52  1  0.02410185  0.22615900  0.18791541  1
  O  O53  1  0.19025379  0.96324353  0.20368128  1
  O  O54  1  0.87625996  0.35257596  0.63529829  1
  O  O55  1  0.49181493  0.14031883  0.63805776  1
  O  O56  1  0.65727603  0.52868646  0.63557501  1
  O  O57  1  0.85614262  0.50877185  0.13906439  1
  O  O58  1  0.64727112  0.12638921  0.13715348  1
  O  O59  1  0.47088521  0.34063451  0.13747652  1
  O  O60  1  0.44720159  0.31370125  0.03384067  1
  O  O61  1  0.86490328  0.54302367  0.02336645  1
  O  O62  1  0.68428177  0.13558410  0.03406144  1
  O  O63  1  0.46724636  0.15573880  0.52384938  1
  O  O64  1  0.69192589  0.54586004  0.53215360  1
  O  O65  1  0.85160656  0.31151216  0.53243502  1
  O  O66  1  0.54739035  0.67557366  0.96905752  1
  O  O67  1  0.13593391  0.44881620  0.97093929  1
  O  O68  1  0.30679809  0.84938573  0.96692087  1
  O  O69  1  0.55977524  0.86524317  0.47014204  1
  O  O70  1  0.31207484  0.44508781  0.46772797  1
  O  O71  1  0.15512067  0.71282213  0.46730906  1
  O  O72  1  0.11769986  0.64099500  0.35658932  1
  O  O73  1  0.51599767  0.87122782  0.36778105  1
  O  O74  1  0.35646327  0.47434607  0.36505013  1
  O  O75  1  0.13019803  0.47483709  0.86737772  1
  O  O76  1  0.34388462  0.88254765  0.85295807  1
  O  O77  1  0.53232800  0.64571135  0.86560561  1
  O  O78  1  0.01778087  0.84430831  0.40521223  1
  O  O79  1  0.80028005  0.98719082  0.40864260  1
  O  O80  1  0.18273468  0.19573708  0.40917856  1
  O  O81  1  0.01406959  0.20016575  0.91456032  1
  O  O82  1  0.15141598  0.97419981  0.91267494  1
  O  O83  1  0.80163521  0.81931807  0.91375348  1
  O  O84  1  0.96153421  0.16896018  0.58695711  1
  O  O85  1  0.18181426  0.02115681  0.58917201  1
  O  O86  1  0.82270591  0.80048506  0.58740323  1
  O  O87  1  0.98743541  0.81913167  0.08751655  1
  O  O88  1  0.82684620  0.03383192  0.09023450  1
  O  O89  1  0.19714422  0.18655102  0.08923366  1
  O  O90  1  0.67618751  0.17098703  0.74130439  1
  O  O91  1  0.46847468  0.31432779  0.73968913  1
  O  O92  1  0.84202460  0.53531759  0.73962147  1
  O  O93  1  0.68545078  0.53216005  0.24693975  1
  O  O94  1  0.83351116  0.32713803  0.24707186  1
  O  O95  1  0.46720451  0.15344578  0.24539601  1
  O  O96  1  0.66093062  0.51899007  0.91855290  1
  O  O97  1  0.87411965  0.36610180  0.91963516  1
  O  O98  1  0.49773115  0.15735954  0.91609768  1
  O  O99  1  0.63599199  0.12907358  0.42075312  1
  O  O100  1  0.48413620  0.34493622  0.41953856  1
  O  O101  1  0.84106694  0.49896692  0.42401139  1
  O  O102  1  0.35814480  0.48876019  0.08446426  1
  O  O103  1  0.14274369  0.63031747  0.08553185  1
  O  O104  1  0.52198032  0.86845907  0.08452857  1
  O  O105  1  0.36906457  0.86300121  0.58057553  1
  O  O106  1  0.51964949  0.64649842  0.57997464  1
  O  O107  1  0.12733851  0.47360904  0.57939124  1
  O  O108  1  0.32260531  0.84920512  0.26019283  1
  O  O109  1  0.53115292  0.68361604  0.26181984  1
  O  O110  1  0.16652740  0.49244106  0.25642729  1
  O  O111  1  0.30851954  0.45960515  0.75011189  1
  O  O112  1  0.14693722  0.68330276  0.75031078  1
  O  O113  1  0.51230288  0.83861367  0.74368330  1
