# generated using pymatgen
data_CsFeCl4
_symmetry_space_group_name_H-M   'P 1'
_cell_length_a   7.13977829
_cell_length_b   9.49628057
_cell_length_c   11.74457868
_cell_angle_alpha   90.00000000
_cell_angle_beta   90.00000000
_cell_angle_gamma   90.00000000
_symmetry_Int_Tables_number   1
_chemical_formula_structural   CsFeCl4
_chemical_formula_sum   'Cs4 Fe4 Cl16'
_cell_volume   796.29814698
_cell_formula_units_Z   4
loop_
 _symmetry_equiv_pos_site_id
 _symmetry_equiv_pos_as_xyz
  1  'x, y, z'
loop_
 _atom_site_type_symbol
 _atom_site_label
 _atom_site_symmetry_multiplicity
 _atom_site_fract_x
 _atom_site_fract_y
 _atom_site_fract_z
 _atom_site_occupancy
  Cs  Cs0  1  0.25000000  0.33540596  0.68071372  1
  Cs  Cs1  1  0.75000000  0.66459404  0.31928628  1
  Cs  Cs2  1  0.75000000  0.83540596  0.81928628  1
  Cs  Cs3  1  0.25000000  0.16459404  0.18071372  1
  Fe  Fe4  1  0.25000000  0.80496393  0.56937800  1
  Fe  Fe5  1  0.75000000  0.19503607  0.43062200  1
  Fe  Fe6  1  0.75000000  0.30496393  0.93062200  1
  Fe  Fe7  1  0.25000000  0.69503607  0.06937800  1
  Cl  Cl8  1  0.50168003  0.33144087  0.41549098  1
  Cl  Cl9  1  0.00168003  0.66855913  0.58450902  1
  Cl  Cl10  1  0.49831997  0.83144087  0.08450902  1
  Cl  Cl11  1  0.99831997  0.16855913  0.91549098  1
  Cl  Cl12  1  0.49831997  0.66855913  0.58450902  1
  Cl  Cl13  1  0.99831997  0.33144087  0.41549098  1
  Cl  Cl14  1  0.50168003  0.16855913  0.91549098  1
  Cl  Cl15  1  0.00168003  0.83144087  0.08450902  1
  Cl  Cl16  1  0.25000000  0.59144491  0.90298761  1
  Cl  Cl17  1  0.75000000  0.40855509  0.09701239  1
  Cl  Cl18  1  0.75000000  0.09144491  0.59701239  1
  Cl  Cl19  1  0.25000000  0.90855509  0.40298761  1
  Cl  Cl20  1  0.25000000  0.54741522  0.21273691  1
  Cl  Cl21  1  0.75000000  0.45258478  0.78726309  1
  Cl  Cl22  1  0.75000000  0.04741522  0.28726309  1
  Cl  Cl23  1  0.25000000  0.95258478  0.71273691  1
