# generated using pymatgen
data_Na14Sc4Zn4Si5S7O48
_symmetry_space_group_name_H-M   'P 1'
_cell_length_a   18.35020724
_cell_length_b   9.13116684
_cell_length_c   22.49521774
_cell_angle_alpha   90.09737666
_cell_angle_beta   90.74571987
_cell_angle_gamma   119.94097459
_symmetry_Int_Tables_number   1
_chemical_formula_structural   Na14Sc4Zn4Si5S7O48
_chemical_formula_sum   'Na42 Sc12 Zn12 Si15 S21 O144'
_cell_volume   3265.80217584
_cell_formula_units_Z   3
loop_
 _symmetry_equiv_pos_site_id
 _symmetry_equiv_pos_as_xyz
  1  'x, y, z'
loop_
 _atom_site_type_symbol
 _atom_site_label
 _atom_site_symmetry_multiplicity
 _atom_site_fract_x
 _atom_site_fract_y
 _atom_site_fract_z
 _atom_site_occupancy
  Na  Na0  1  0.80919148  0.99546999  0.25050913  1
  Na  Na1  1  0.18423157  0.35420084  0.25167349  1
  Na  Na2  1  0.68313442  0.35870300  0.25154081  1
  Na  Na3  1  0.00183959  0.64489160  0.24678178  1
  Na  Na4  1  0.50678791  0.64373301  0.24402369  1
  Na  Na5  1  0.31779339  0.62346458  0.75235610  1
  Na  Na6  1  0.00623767  0.36861368  0.74405601  1
  Na  Na7  1  0.50115514  0.36943731  0.74646586  1
  Na  Na8  1  0.18589511  0.01249801  0.75073611  1
  Na  Na9  1  0.67535512  0.00112411  0.75075485  1
  Na  Na10  1  0.14811798  0.32630239  0.58272174  1
  Na  Na11  1  0.65126286  0.32248071  0.58296167  1
  Na  Na12  1  0.32975155  0.97573152  0.58863261  1
  Na  Na13  1  0.83365916  0.98533834  0.58466704  1
  Na  Na14  1  0.15499818  0.98381597  0.07778987  1
  Na  Na15  1  0.64670487  0.96745780  0.07893649  1
  Na  Na16  1  0.33490896  0.68360046  0.08147891  1
  Na  Na17  1  0.82759689  0.68261731  0.08407415  1
  Na  Na18  1  0.48450887  0.67637675  0.91711796  1
  Na  Na19  1  0.98779960  0.67638297  0.91532314  1
  Na  Na20  1  0.34617815  0.03685110  0.91252868  1
  Na  Na21  1  0.84391551  0.03045492  0.91336123  1
  Na  Na22  1  0.16865956  0.28408793  0.91496958  1
  Na  Na23  1  0.66412742  0.28239812  0.91477030  1
  Na  Na24  1  0.48872264  0.30102974  0.41847017  1
  Na  Na25  1  0.98494231  0.29727304  0.42737631  1
  Na  Na26  1  0.16756579  0.05042219  0.41991143  1
  Na  Na27  1  0.66836441  0.05335344  0.41870769  1
  Na  Na28  1  0.34656688  0.65707838  0.41737631  1
  Na  Na29  1  0.84370705  0.65329752  0.41663174  1
  Na  Na30  1  0.00858925  0.01206369  0.50409324  1
  Na  Na31  1  0.51075806  0.00482671  0.50162295  1
  Na  Na32  1  0.00962529  0.01619179  0.99664733  1
  Na  Na33  1  0.50869342  0.00507379  0.99939732  1
  Na  Na34  1  0.32936197  0.33332774  0.82950333  1
  Na  Na35  1  0.82215725  0.32992127  0.83176316  1
  Na  Na36  1  0.32480168  0.31650194  0.33322140  1
  Na  Na37  1  0.82139376  0.32479364  0.33565743  1
  Na  Na38  1  0.16884236  0.66910512  0.16492115  1
  Na  Na39  1  0.65594619  0.65031788  0.16389024  1
  Na  Na40  1  0.15815176  0.66214903  0.66671104  1
  Na  Na41  1  0.66188900  0.66645852  0.67013880  1
  Sc  Sc42  1  0.00988736  0.01813394  0.64683948  1
  Sc  Sc43  1  0.51121104  0.00041125  0.65249196  1
  Sc  Sc44  1  0.00992141  0.00812781  0.14878722  1
  Sc  Sc45  1  0.51013098  0.00206348  0.14592096  1
  Sc  Sc46  1  0.82889285  0.32463571  0.68130015  1
  Sc  Sc47  1  0.33015266  0.33261651  0.18047078  1
  Sc  Sc48  1  0.16385735  0.66226610  0.01598292  1
  Sc  Sc49  1  0.65466315  0.65781785  0.02111526  1
  Sc  Sc50  1  0.15606390  0.65301759  0.52331531  1
  Sc  Sc51  1  0.66235441  0.66224789  0.51799109  1
  Sc  Sc52  1  0.17136275  0.67356374  0.31610392  1
  Sc  Sc53  1  0.66576661  0.66967585  0.81272070  1
  Zn  Zn54  1  0.01545670  0.02229701  0.34839730  1
  Zn  Zn55  1  0.51786344  0.03161238  0.34645995  1
  Zn  Zn56  1  0.01572005  0.00162832  0.84605822  1
  Zn  Zn57  1  0.51894841  0.99069868  0.84117630  1
  Zn  Zn58  1  0.32508142  0.33031671  0.68645819  1
  Zn  Zn59  1  0.81428033  0.31046373  0.17968072  1
  Zn  Zn60  1  0.32469410  0.33141327  0.98929634  1
  Zn  Zn61  1  0.81752065  0.30800277  0.98529204  1
  Zn  Zn62  1  0.31862703  0.33139158  0.48895102  1
  Zn  Zn63  1  0.82533306  0.31967752  0.49245000  1
  Zn  Zn64  1  0.66525728  0.66415620  0.31900921  1
  Zn  Zn65  1  0.16815113  0.66988161  0.81725474  1
  Si  Si66  1  0.15133610  0.99881842  0.25092223  1
  Si  Si67  1  0.65131280  0.99458780  0.25244094  1
  Si  Si68  1  0.14926572  0.30686647  0.75316805  1
  Si  Si69  1  0.65209738  0.30336540  0.75092373  1
  Si  Si70  1  0.49563925  0.69397706  0.75163095  1
  Si  Si71  1  0.97729870  0.33223088  0.58294029  1
  Si  Si72  1  0.18810218  0.03872052  0.58394624  1
  Si  Si73  1  0.68238943  0.03051166  0.58092005  1
  Si  Si74  1  0.47728709  0.62144533  0.08294379  1
  Si  Si75  1  0.18317516  0.33669212  0.08249392  1
  Si  Si76  1  0.68617119  0.33981540  0.08323730  1
  Si  Si77  1  0.16824334  0.96240369  0.91590757  1
  Si  Si78  1  0.66827172  0.96409494  0.91707883  1
  Si  Si79  1  0.16719973  0.37225143  0.41579591  1
  Si  Si80  1  0.66842419  0.37447708  0.41504748  1
  S  S81  1  0.35399435  0.71001127  0.25141223  1
  S  S82  1  0.85604505  0.71076330  0.25055064  1
  S  S83  1  0.99837569  0.29405592  0.25077387  1
  S  S84  1  0.49705074  0.29087686  0.25093212  1
  S  S85  1  0.99731680  0.70336368  0.75078613  1
  S  S86  1  0.35445100  0.99842700  0.75052180  1
  S  S87  1  0.85519806  0.99940303  0.75131644  1
  S  S88  1  0.47892036  0.33354986  0.58203819  1
  S  S89  1  0.33572123  0.63466881  0.58232671  1
  S  S90  1  0.83388884  0.62998039  0.58180455  1
  S  S91  1  0.97910200  0.62288837  0.08414690  1
  S  S92  1  0.33383808  0.03738250  0.08214783  1
  S  S93  1  0.83657545  0.03916451  0.08360071  1
  S  S94  1  0.31369099  0.66927348  0.91652210  1
  S  S95  1  0.81512375  0.67007114  0.91759926  1
  S  S96  1  0.01679107  0.37088669  0.91644172  1
  S  S97  1  0.51802570  0.36954323  0.91530710  1
  S  S98  1  0.31566867  0.96089875  0.41746153  1
  S  S99  1  0.81492561  0.95934576  0.41487901  1
  S  S100  1  0.01914096  0.66670045  0.41453794  1
  S  S101  1  0.51703126  0.66353380  0.41585074  1
  O  O102  1  0.10981453  0.03380762  0.30896646  1
  O  O103  1  0.61209702  0.03410333  0.31065740  1
  O  O104  1  0.40420590  0.79136728  0.30592698  1
  O  O105  1  0.90702160  0.79576645  0.30502841  1
  O  O106  1  0.48438988  0.19426162  0.30683113  1
  O  O107  1  0.98253657  0.19063996  0.30508238  1
  O  O108  1  0.10851972  0.19040034  0.81158356  1
  O  O109  1  0.61250451  0.19032457  0.81055807  1
  O  O110  1  0.47190854  0.76298648  0.81151175  1
  O  O111  1  0.98430793  0.77376133  0.80701101  1
  O  O112  1  0.40531660  0.01891941  0.80505276  1
  O  O113  1  0.90597455  0.02056608  0.80576594  1
  O  O114  1  0.39497169  0.97638189  0.69635331  1
  O  O115  1  0.89395767  0.97715491  0.69732822  1
  O  O116  1  0.08773284  0.21595844  0.69427595  1
  O  O117  1  0.59057448  0.21731756  0.69165648  1
  O  O118  1  0.00679950  0.81355770  0.69986256  1
  O  O119  1  0.51595181  0.82750346  0.69732886  1
  O  O120  1  0.39200571  0.80929289  0.19759583  1
  O  O121  1  0.89656242  0.81635275  0.19689744  1
  O  O122  1  0.01160195  0.20852943  0.19910441  1
  O  O123  1  0.50666804  0.20039210  0.19977836  1
  O  O124  1  0.08846207  0.96398952  0.19238313  1
  O  O125  1  0.59069473  0.96509208  0.19387285  1
  O  O126  1  0.44250231  0.35850459  0.63556673  1
  O  O127  1  0.93412266  0.35696907  0.64228966  1
  O  O128  1  0.24993913  0.12358069  0.64167311  1
  O  O129  1  0.74390029  0.11967900  0.63950218  1
  O  O130  1  0.32243818  0.52939474  0.63466450  1
  O  O131  1  0.81881838  0.51700981  0.63285072  1
  O  O132  1  0.43481934  0.51226307  0.14341243  1
  O  O133  1  0.94221412  0.52497713  0.13857865  1
  O  O134  1  0.31853589  0.11972190  0.13393851  1
  O  O135  1  0.82528470  0.11897387  0.13795331  1
  O  O136  1  0.24289552  0.36740902  0.14201299  1
  O  O137  1  0.74594362  0.38542866  0.14322992  1
  O  O138  1  0.21876784  0.28931344  0.02428228  1
  O  O139  1  0.72468043  0.29674800  0.02531880  1
  O  O140  1  0.42011851  0.53826388  0.02323864  1
  O  O141  1  0.92842012  0.54277011  0.02976417  1
  O  O142  1  0.34688438  0.13354602  0.02742623  1
  O  O143  1  0.85164450  0.14334403  0.03000941  1
  O  O144  1  0.22227808  0.14901769  0.52273307  1
  O  O145  1  0.71941889  0.14516202  0.52157114  1
  O  O146  1  0.35077067  0.56235846  0.52718862  1
  O  O147  1  0.84752749  0.56063487  0.52625522  1
  O  O148  1  0.42879734  0.31529599  0.52670698  1
  O  O149  1  0.92267164  0.30489887  0.52164144  1
  O  O150  1  0.26984490  0.68563253  0.97050825  1
  O  O151  1  0.77647452  0.69306037  0.97205557  1
  O  O152  1  0.07464572  0.45490475  0.96870270  1
  O  O153  1  0.57410460  0.45242413  0.96828515  1
  O  O154  1  0.15311735  0.84143618  0.97507283  1
  O  O155  1  0.65752347  0.84720365  0.97537468  1
  O  O156  1  0.27584397  0.85881242  0.47061898  1
  O  O157  1  0.77320080  0.85504820  0.46833662  1
  O  O158  1  0.15514281  0.46867745  0.47280837  1
  O  O159  1  0.65392024  0.46805644  0.47304199  1
  O  O160  1  0.07479913  0.69612360  0.46698706  1
  O  O161  1  0.57482450  0.69488969  0.46767551  1
  O  O162  1  0.06060625  0.64542345  0.36062721  1
  O  O163  1  0.55400937  0.63810697  0.36114819  1
  O  O164  1  0.25878695  0.87894859  0.36446594  1
  O  O165  1  0.76191971  0.88128725  0.36065852  1
  O  O166  1  0.17938603  0.48934396  0.35653149  1
  O  O167  1  0.68252180  0.49080502  0.35594683  1
  O  O168  1  0.05409708  0.47040015  0.86218394  1
  O  O169  1  0.55971421  0.47465651  0.86220053  1
  O  O170  1  0.18150748  0.87122558  0.85763237  1
  O  O171  1  0.68280640  0.87274400  0.85926289  1
  O  O172  1  0.26074104  0.64126017  0.86278336  1
  O  O173  1  0.75895886  0.63916764  0.86546158  1
  O  O174  1  0.00799542  0.81698846  0.41054385  1
  O  O175  1  0.50510267  0.81315962  0.41266840  1
  O  O176  1  0.39803447  0.96932343  0.40992025  1
  O  O177  1  0.89833987  0.96880706  0.41082864  1
  O  O178  1  0.08024441  0.18544839  0.41415100  1
  O  O179  1  0.58031039  0.18737915  0.41456417  1
  O  O180  1  0.00464574  0.19704947  0.91369873  1
  O  O181  1  0.50701833  0.19783725  0.91142344  1
  O  O182  1  0.08027846  0.97351930  0.91500141  1
  O  O183  1  0.58283430  0.98039864  0.91605635  1
  O  O184  1  0.39582387  0.82759442  0.91492828  1
  O  O185  1  0.89850752  0.82743274  0.91119105  1
  O  O186  1  0.48488570  0.17447341  0.58522041  1
  O  O187  1  0.98333439  0.15548803  0.58751854  1
  O  O188  1  0.09447729  0.02154908  0.59080336  1
  O  O189  1  0.59089580  0.02142757  0.58735728  1
  O  O190  1  0.40742442  0.81048419  0.58856567  1
  O  O191  1  0.90556676  0.80217324  0.59126688  1
  O  O192  1  0.48378886  0.81091259  0.08868633  1
  O  O193  1  0.98447736  0.79497751  0.08837426  1
  O  O194  1  0.40528307  0.00850804  0.09224461  1
  O  O195  1  0.90861115  0.00791096  0.09095589  1
  O  O196  1  0.09015963  0.16336324  0.09067386  1
  O  O197  1  0.59369274  0.16774186  0.09051749  1
  O  O198  1  0.34644936  0.15260066  0.74639411  1
  O  O199  1  0.84839776  0.15737595  0.74713129  1
  O  O200  1  0.24129903  0.32087246  0.74764461  1
  O  O201  1  0.74298961  0.30967915  0.74319698  1
  O  O202  1  0.41595879  0.50364060  0.74142492  1
  O  O203  1  0.92419924  0.52956714  0.74472937  1
  O  O204  1  0.34647431  0.53783565  0.24753543  1
  O  O205  1  0.85121105  0.54259474  0.24652815  1
  O  O206  1  0.42395595  0.31835802  0.24518126  1
  O  O207  1  0.92585368  0.32062801  0.24223033  1
  O  O208  1  0.24268128  0.17138423  0.24372191  1
  O  O209  1  0.74642650  0.16424843  0.24710879  1
  O  O210  1  0.32447569  0.51870779  0.92079204  1
  O  O211  1  0.82867861  0.52196586  0.92158693  1
  O  O212  1  0.43555363  0.36017086  0.92048574  1
  O  O213  1  0.93436717  0.36256564  0.92483745  1
  O  O214  1  0.25369153  0.15022273  0.92131384  1
  O  O215  1  0.75564156  0.15170763  0.91827464  1
  O  O216  1  0.32794832  0.13471687  0.42054464  1
  O  O217  1  0.82642397  0.13228227  0.41892337  1
  O  O218  1  0.25391199  0.35863896  0.41777876  1
  O  O219  1  0.75369537  0.35718693  0.42009570  1
  O  O220  1  0.43422469  0.50690958  0.42357357  1
  O  O221  1  0.93621457  0.51151931  0.41870586  1
  O  O222  1  0.17988076  0.51346117  0.07764863  1
  O  O223  1  0.68235500  0.51462164  0.07576470  1
  O  O224  1  0.06763073  0.65583545  0.07961768  1
  O  O225  1  0.57542429  0.66066109  0.08088388  1
  O  O226  1  0.25488602  0.86512120  0.07800722  1
  O  O227  1  0.75845961  0.87040390  0.07778960  1
  O  O228  1  0.18367722  0.85461948  0.57590449  1
  O  O229  1  0.68023474  0.84773917  0.57552460  1
  O  O230  1  0.25732655  0.64703029  0.57527714  1
  O  O231  1  0.75530864  0.64428788  0.57683757  1
  O  O232  1  0.07558913  0.49008874  0.58071030  1
  O  O233  1  0.56778143  0.48033800  0.57709477  1
  O  O234  1  0.15260573  0.81915458  0.25566073  1
  O  O235  1  0.65867735  0.82094192  0.25703893  1
  O  O236  1  0.26597830  0.68137369  0.25463834  1
  O  O237  1  0.77026742  0.68922410  0.25241567  1
  O  O238  1  0.07736614  0.46338012  0.25582888  1
  O  O239  1  0.57562710  0.46026709  0.25380191  1
  O  O240  1  0.15680940  0.49549274  0.75713326  1
  O  O241  1  0.65744823  0.48738188  0.75656028  1
  O  O242  1  0.07586786  0.69231175  0.75364527  1
  O  O243  1  0.58407724  0.68698067  0.75660283  1
  O  O244  1  0.26868750  0.84515629  0.75221503  1
  O  O245  1  0.76829612  0.85245482  0.75442305  1
