# generated using pymatgen
data_Na6ScTa3(SiO4)6
_symmetry_space_group_name_H-M   'P 1'
_cell_length_a   9.06675593
_cell_length_b   9.06771686
_cell_length_c   22.65065511
_cell_angle_alpha   90.02119021
_cell_angle_beta   90.01556489
_cell_angle_gamma   119.96605603
_symmetry_Int_Tables_number   1
_chemical_formula_structural   Na6ScTa3(SiO4)6
_chemical_formula_sum   'Na18 Sc3 Ta9 Si18 O72'
_cell_volume   1613.27955559
_cell_formula_units_Z   3
loop_
 _symmetry_equiv_pos_site_id
 _symmetry_equiv_pos_as_xyz
  1  'x, y, z'
loop_
 _atom_site_type_symbol
 _atom_site_label
 _atom_site_symmetry_multiplicity
 _atom_site_fract_x
 _atom_site_fract_y
 _atom_site_fract_z
 _atom_site_occupancy
  Na  Na0  1  0.00527493  0.00034017  0.49958460  1
  Na  Na1  1  0.99393738  0.99437559  0.99759896  1
  Na  Na2  1  0.66659425  0.33292712  0.83352952  1
  Na  Na3  1  0.66672305  0.33308263  0.32840532  1
  Na  Na4  1  0.33981176  0.66700659  0.16386944  1
  Na  Na5  1  0.32707990  0.66057802  0.66564279  1
  Na  Na6  1  0.63910978  0.01120046  0.24744152  1
  Na  Na7  1  0.37160111  0.36050071  0.24694920  1
  Na  Na8  1  0.98922505  0.62801494  0.24736609  1
  Na  Na9  1  0.63493605  0.62630419  0.74789751  1
  Na  Na10  1  0.99074751  0.36459533  0.74800038  1
  Na  Na11  1  0.37422742  0.00881457  0.74839404  1
  Na  Na12  1  0.66615769  0.97031556  0.58534944  1
  Na  Na13  1  0.30592887  0.97239646  0.08337255  1
  Na  Na14  1  0.02901634  0.33613475  0.08339462  1
  Na  Na15  1  0.96685995  0.29173228  0.41429275  1
  Na  Na16  1  0.32496348  0.03255699  0.41441314  1
  Na  Na17  1  0.70806522  0.67557861  0.41447387  1
  Sc  Sc18  1  0.99982419  -0.00001695  0.35164565  1
  Sc  Sc19  1  0.66706675  0.33455293  0.68464376  1
  Sc  Sc20  1  0.66607623  0.33385890  0.18247521  1
  Ta  Ta21  1  0.00051553  0.00048779  0.85632310  1
  Ta  Ta22  1  0.00425542  0.00008391  0.64535897  1
  Ta  Ta23  1  0.99591345  0.99624776  0.14568150  1
  Ta  Ta24  1  0.66729829  0.33416436  0.97783301  1
  Ta  Ta25  1  0.66624458  0.33382012  0.48247788  1
  Ta  Ta26  1  0.33719954  0.66683541  0.01798972  1
  Ta  Ta27  1  0.32972733  0.66302742  0.52188817  1
  Ta  Ta28  1  0.33290769  0.66651475  0.31297144  1
  Ta  Ta29  1  0.33374346  0.66691728  0.81527198  1
  Si  Si30  1  0.29222381  0.00171225  0.25104471  1
  Si  Si31  1  0.70898274  0.70748987  0.25151118  1
  Si  Si32  1  0.99852052  0.29037533  0.25089003  1
  Si  Si33  1  0.28769233  0.28844236  0.75099066  1
  Si  Si34  1  0.00046367  0.71185908  0.75121022  1
  Si  Si35  1  0.71186439  0.99938495  0.75055598  1
  Si  Si36  1  0.95994618  0.33486246  0.58505311  1
  Si  Si37  1  0.37300609  0.04203041  0.58434040  1
  Si  Si38  1  0.66728803  0.62481068  0.58489812  1
  Si  Si39  1  0.95564927  0.62366107  0.08298133  1
  Si  Si40  1  0.66544007  0.04122013  0.08309317  1
  Si  Si41  1  0.37874344  0.33686409  0.08353743  1
  Si  Si42  1  0.62550926  0.66598793  0.91630873  1
  Si  Si43  1  0.04129129  0.37559451  0.91679613  1
  Si  Si44  1  0.33408624  0.95855575  0.91707455  1
  Si  Si45  1  0.62275501  0.95707108  0.41794454  1
  Si  Si46  1  0.33442701  0.37688658  0.41730581  1
  Si  Si47  1  0.04270052  0.66580340  0.41758223  1
  O  O48  1  0.21000943  0.03247272  0.30920272  1
  O  O49  1  0.82172853  0.78889008  0.30978100  1
  O  O50  1  0.96753768  0.17754040  0.30909437  1
  O  O51  1  0.18986534  0.16300761  0.80677999  1
  O  O52  1  0.97335055  0.81030995  0.80690051  1
  O  O53  1  0.83766438  0.02633897  0.80621536  1
  O  O54  1  0.79895252  0.96332998  0.69164844  1
  O  O55  1  0.15940114  0.19621612  0.69356392  1
  O  O56  1  0.03608235  0.83991800  0.69372881  1
  O  O57  1  0.80387381  0.83915297  0.19445951  1
  O  O58  1  0.03569726  0.20044018  0.19242541  1
  O  O59  1  0.16510311  0.96470797  0.19258324  1
  O  O60  1  0.88084443  0.36656641  0.64302284  1
  O  O61  1  0.49209659  0.11559936  0.64137280  1
  O  O62  1  0.63128379  0.51334338  0.64283817  1
  O  O63  1  0.88745367  0.51091664  0.14202876  1
  O  O64  1  0.62500545  0.11263511  0.14231018  1
  O  O65  1  0.48257409  0.36739749  0.14365248  1
  O  O66  1  0.47020464  0.29897188  0.02760285  1
  O  O67  1  0.83211900  0.52739602  0.02659117  1
  O  O68  1  0.70070002  0.17010385  0.02728048  1
  O  O69  1  0.46876797  0.16322085  0.52500227  1
  O  O70  1  0.69444089  0.53097377  0.52532339  1
  O  O71  1  0.83415813  0.30176274  0.52586822  1
  O  O72  1  0.52660846  0.69367941  0.97240038  1
  O  O73  1  0.16274397  0.46954586  0.97442728  1
  O  O74  1  0.30585296  0.83655981  0.97456418  1
  O  O75  1  0.52687846  0.83450161  0.47426208  1
  O  O76  1  0.30846068  0.47793963  0.47221821  1
  O  O77  1  0.17051438  0.69293656  0.47232217  1
  O  O78  1  0.13313948  0.63056885  0.35897055  1
  O  O79  1  0.49670325  0.86557144  0.35951540  1
  O  O80  1  0.36932176  0.50252325  0.35884734  1
  O  O81  1  0.13684306  0.49764084  0.85868799  1
  O  O82  1  0.36092222  0.86325461  0.85882209  1
  O  O83  1  0.50337273  0.63874937  0.85810326  1
  O  O84  1  0.02356242  0.83153193  0.41420340  1
  O  O85  1  0.80824030  0.97696125  0.41423578  1
  O  O86  1  0.16868456  0.19208780  0.41421298  1
  O  O87  1  0.02508273  0.18927492  0.90895578  1
  O  O88  1  0.16413633  0.97490172  0.90897072  1
  O  O89  1  0.81111029  0.83615941  0.90894258  1
  O  O90  1  0.96900728  0.15772765  0.58914466  1
  O  O91  1  0.18429396  0.02314847  0.58933013  1
  O  O92  1  0.83435136  0.81857406  0.58922066  1
  O  O93  1  0.98427814  0.81875796  0.08980488  1
  O  O94  1  0.84156469  0.02932974  0.08996211  1
  O  O95  1  0.18525484  0.16271827  0.08971971  1
  O  O96  1  0.69018020  0.16460759  0.74700917  1
  O  O97  1  0.47360751  0.30838453  0.74677542  1
  O  O98  1  0.83509081  0.52572537  0.74710479  1
  O  O99  1  0.68374228  0.51971986  0.24494112  1
  O  O100  1  0.83628686  0.31665130  0.24481096  1
  O  O101  1  0.48094101  0.16333999  0.24516189  1
  O  O102  1  0.64043413  0.49557385  0.92459743  1
  O  O103  1  0.85463161  0.35867196  0.92431440  1
  O  O104  1  0.50421063  0.14467190  0.92476613  1
  O  O105  1  0.63555604  0.14540550  0.42367021  1
  O  O106  1  0.50986845  0.36468394  0.42366325  1
  O  O107  1  0.85536937  0.49013948  0.42404305  1
  O  O108  1  0.34345843  0.49745259  0.07402803  1
  O  O109  1  0.14928019  0.64941956  0.07348851  1
  O  O110  1  0.49483466  0.85271856  0.07338453  1
  O  O111  1  0.35881569  0.85550116  0.57281764  1
  O  O112  1  0.50387211  0.65504031  0.57355551  1
  O  O113  1  0.14871010  0.50045735  0.57365400  1
  O  O114  1  0.30383398  0.82326607  0.25664534  1
  O  O115  1  0.51955990  0.69634225  0.25656014  1
  O  O116  1  0.17666151  0.48036624  0.25662603  1
  O  O117  1  0.30174891  0.47769150  0.75719442  1
  O  O118  1  0.17587011  0.69796924  0.75717252  1
  O  O119  1  0.52197040  0.82418249  0.75723983  1
