# generated using pymatgen
data_Na7Hf2Zn2SiP5O24
_symmetry_space_group_name_H-M   'P 1'
_cell_length_a   9.11984644
_cell_length_b   9.11504003
_cell_length_c   22.20131857
_cell_angle_alpha   90.20465629
_cell_angle_beta   89.62938830
_cell_angle_gamma   120.03112023
_symmetry_Int_Tables_number   1
_chemical_formula_structural   Na7Hf2Zn2SiP5O24
_chemical_formula_sum   'Na21 Hf6 Zn6 Si3 P15 O72'
_cell_volume   1597.75473525
_cell_formula_units_Z   3
loop_
 _symmetry_equiv_pos_site_id
 _symmetry_equiv_pos_as_xyz
  1  'x, y, z'
loop_
 _atom_site_type_symbol
 _atom_site_label
 _atom_site_symmetry_multiplicity
 _atom_site_fract_x
 _atom_site_fract_y
 _atom_site_fract_z
 _atom_site_occupancy
  Na  Na0  1  0.35560913  0.37226172  0.25532419  1
  Na  Na1  1  0.01449045  0.63943828  0.25308012  1
  Na  Na2  1  0.62620002  0.64805354  0.75252239  1
  Na  Na3  1  0.01252263  0.37054603  0.75602783  1
  Na  Na4  1  0.36068688  0.97963551  0.75366408  1
  Na  Na5  1  0.29042226  0.30810225  0.58474598  1
  Na  Na6  1  0.02525857  0.71273112  0.58735086  1
  Na  Na7  1  0.68285926  0.97529894  0.59159323  1
  Na  Na8  1  0.28762630  0.97492055  0.08779784  1
  Na  Na9  1  0.69128455  0.70922772  0.08578562  1
  Na  Na10  1  0.02318333  0.31967966  0.08917082  1
  Na  Na11  1  0.95619211  0.64793654  0.92434068  1
  Na  Na12  1  0.69255999  0.04119355  0.91932453  1
  Na  Na13  1  0.95964537  0.30845702  0.42033984  1
  Na  Na14  1  0.35348023  0.04369931  0.42352089  1
  Na  Na15  1  0.99492882  0.98858625  0.50804938  1
  Na  Na16  1  0.01272474  0.00515593  0.00765792  1
  Na  Na17  1  0.65160188  0.32969314  0.84346055  1
  Na  Na18  1  0.66579473  0.33618522  0.34273405  1
  Na  Na19  1  0.34538994  0.68264263  0.17703508  1
  Na  Na20  1  0.33992843  0.67517362  0.67480691  1
  Hf  Hf21  1  0.99295770  0.99345350  0.35176520  1
  Hf  Hf22  1  0.00314093  0.00525693  0.85196846  1
  Hf  Hf23  1  0.66462149  0.32740488  0.68453084  1
  Hf  Hf24  1  0.67004904  0.32999200  0.18565956  1
  Hf  Hf25  1  0.33171885  0.66350006  0.01800961  1
  Hf  Hf26  1  0.33779428  0.66979162  0.51715158  1
  Zn  Zn27  1  0.00063859  0.99799690  0.65431584  1
  Zn  Zn28  1  0.99689247  0.99121646  0.15428888  1
  Zn  Zn29  1  0.66341906  0.34069580  0.98764153  1
  Zn  Zn30  1  0.65730534  0.33456410  0.48659707  1
  Zn  Zn31  1  0.34272493  0.67398709  0.32008014  1
  Zn  Zn32  1  0.34301170  0.67335625  0.82062657  1
  Si  Si33  1  0.70324162  -0.00031405  0.74781293  1
  Si  Si34  1  0.36391502  0.03344170  0.58049056  1
  Si  Si35  1  0.96502794  0.63320325  0.08089586  1
  P  P36  1  0.29658693  0.99921278  0.24893242  1
  P  P37  1  0.69915649  0.70042349  0.24628509  1
  P  P38  1  0.99834387  0.29335230  0.24819924  1
  P  P39  1  0.29677577  0.29699244  0.74678161  1
  P  P40  1  0.99855442  0.70227889  0.74884929  1
  P  P41  1  0.96361054  0.33604166  0.57928120  1
  P  P42  1  0.66522904  0.62578879  0.58188312  1
  P  P43  1  0.66611421  0.03841111  0.07888751  1
  P  P44  1  0.37351491  0.33376749  0.08350608  1
  P  P45  1  0.63254843  0.66578476  0.91342147  1
  P  P46  1  0.03864949  0.36987436  0.91383794  1
  P  P47  1  0.33458246  0.96549092  0.91533647  1
  P  P48  1  0.63072289  0.96449029  0.41537414  1
  P  P49  1  0.33157049  0.36821237  0.41221118  1
  P  P50  1  0.03664469  0.66452644  0.41393315  1
  O  O51  1  0.20203819  0.02308200  0.30472605  1
  O  O52  1  0.82167345  0.79860668  0.30011381  1
  O  O53  1  0.98130774  0.18338080  0.30490887  1
  O  O54  1  0.20478860  0.17355738  0.80076725  1
  O  O55  1  0.97738626  0.79599643  0.80493556  1
  O  O56  1  0.82762140  0.02889965  0.80679295  1
  O  O57  1  0.78667253  0.97032435  0.68780083  1
  O  O58  1  0.19777714  0.22161567  0.68849199  1
  O  O59  1  0.03010178  0.80851902  0.69163304  1
  O  O60  1  0.77505480  0.79492370  0.18712781  1
  O  O61  1  0.01955196  0.20971739  0.19108143  1
  O  O62  1  0.19413818  0.97675196  0.19124227  1
  O  O63  1  0.87722119  0.36564213  0.63664594  1
  O  O64  1  0.49032716  0.12763071  0.63962229  1
  O  O65  1  0.63872543  0.51867093  0.64080856  1
  O  O66  1  0.87000267  0.50605451  0.13984661  1
  O  O67  1  0.63331429  0.12854238  0.13363615  1
  O  O68  1  0.48431097  0.36124140  0.14128470  1
  O  O69  1  0.45182538  0.29579262  0.02928333  1
  O  O70  1  0.85316279  0.55123114  0.02108470  1
  O  O71  1  0.69061028  0.13943677  0.02108653  1
  O  O72  1  0.44587921  0.14574332  0.52060278  1
  O  O73  1  0.69838172  0.54237567  0.52835280  1
  O  O74  1  0.85857203  0.31413035  0.52319193  1
  O  O75  1  0.54172555  0.68917826  0.97033159  1
  O  O76  1  0.14704291  0.46282690  0.97124335  1
  O  O77  1  0.31040605  0.84626559  0.97114132  1
  O  O78  1  0.54782170  0.85819372  0.47444778  1
  O  O79  1  0.30870175  0.45818734  0.46956149  1
  O  O80  1  0.15597259  0.69289184  0.46988051  1
  O  O81  1  0.11795292  0.64083728  0.35660554  1
  O  O82  1  0.51594419  0.87753133  0.36207371  1
  O  O83  1  0.34301098  0.46675938  0.35512837  1
  O  O84  1  0.12482220  0.47581839  0.85746984  1
  O  O85  1  0.35683966  0.88515419  0.85738117  1
  O  O86  1  0.53577530  0.65282193  0.85587222  1
  O  O87  1  0.03008995  0.83418065  0.41115479  1
  O  O88  1  0.80983709  0.97970129  0.41084401  1
  O  O89  1  0.16063611  0.18850287  0.41150513  1
  O  O90  1  0.02435786  0.19096642  0.91300214  1
  O  O91  1  0.16478835  0.96979899  0.91365098  1
  O  O92  1  0.81184870  0.83628095  0.91270724  1
  O  O93  1  0.98768734  0.18181127  0.58584656  1
  O  O94  1  0.17372432  0.00550542  0.58765200  1
  O  O95  1  0.81396743  0.80821450  0.58628667  1
  O  O96  1  0.99444562  0.82453636  0.08723315  1
  O  O97  1  0.82157193  0.01708147  0.08762185  1
  O  O98  1  0.18982640  0.18785438  0.09018179  1
  O  O99  1  0.69428574  0.17903837  0.74643198  1
  O  O100  1  0.47709610  0.31359804  0.74494776  1
  O  O101  1  0.82788219  0.52847189  0.74603794  1
  O  O102  1  0.69261960  0.52258888  0.24613975  1
  O  O103  1  0.83431201  0.30954845  0.24674456  1
  O  O104  1  0.47095101  0.16891039  0.24672671  1
  O  O105  1  0.66347253  0.51608592  0.91784347  1
  O  O106  1  0.85798310  0.34368065  0.91800154  1
  O  O107  1  0.49244237  0.13975835  0.92269665  1
  O  O108  1  0.65980336  0.14655595  0.41966411  1
  O  O109  1  0.48062751  0.33631389  0.41611473  1
  O  O110  1  0.86165823  0.50820957  0.42215263  1
  O  O111  1  0.37026139  0.50505318  0.07744325  1
  O  O112  1  0.15416113  0.64405038  0.07879439  1
  O  O113  1  0.50246614  0.85751454  0.07684120  1
  O  O114  1  0.35320339  0.84466471  0.57840568  1
  O  O115  1  0.49470775  0.63065990  0.57671885  1
  O  O116  1  0.14315210  0.50058164  0.57648462  1
  O  O117  1  0.31276808  0.84076246  0.25593860  1
  O  O118  1  0.51799006  0.66649890  0.25428207  1
  O  O119  1  0.15363910  0.47424130  0.25257998  1
  O  O120  1  0.31753490  0.47371129  0.75560504  1
  O  O121  1  0.14785452  0.67006449  0.75566644  1
  O  O122  1  0.51176644  0.83782203  0.75362537  1
