# generated using pymatgen
data_Na2CaSnP2SO12
_symmetry_space_group_name_H-M   'P 1'
_cell_length_a   9.12558077
_cell_length_b   9.17161098
_cell_length_c   22.69018129
_cell_angle_alpha   90.87684469
_cell_angle_beta   90.00000000
_cell_angle_gamma   119.83411879
_symmetry_Int_Tables_number   1
_chemical_formula_structural   Na2CaSnP2SO12
_chemical_formula_sum   'Na12 Ca6 Sn6 P12 S6 O72'
_cell_volume   1647.14054774
_cell_formula_units_Z   6
loop_
 _symmetry_equiv_pos_site_id
 _symmetry_equiv_pos_as_xyz
  1  'x, y, z'
loop_
 _atom_site_type_symbol
 _atom_site_label
 _atom_site_symmetry_multiplicity
 _atom_site_fract_x
 _atom_site_fract_y
 _atom_site_fract_z
 _atom_site_occupancy
  Na  Na0  1  0.99624239  0.63965087  0.24207474  1
  Na  Na1  1  0.64340848  0.63965087  0.74207474  1
  Na  Na2  1  0.66290939  0.97298387  0.57540774  1
  Na  Na3  1  0.31007548  0.97298387  0.07540774  1
  Na  Na4  1  0.32957539  0.30631787  0.90874174  1
  Na  Na5  1  0.97674148  0.30631787  0.40874174  1
  Na  Na6  1  0.99242108  0.95854874  0.49835252  1
  Na  Na7  1  0.96612766  0.95854874  0.99835252  1
  Na  Na8  1  0.65908808  0.29188174  0.83168552  1
  Na  Na9  1  0.63279466  0.29188174  0.33168552  1
  Na  Na10  1  0.32575408  0.62521574  0.16501952  1
  Na  Na11  1  0.29946066  0.62521574  0.66501952  1
  Ca  Ca12  1  0.99953094  0.99693027  0.35509327  1
  Ca  Ca13  1  0.99739933  0.99693027  0.85509327  1
  Ca  Ca14  1  0.66619794  0.33026327  0.68842627  1
  Ca  Ca15  1  0.66406633  0.33026327  0.18842627  1
  Ca  Ca16  1  0.33286394  0.66359727  0.02176027  1
  Ca  Ca17  1  0.33073233  0.66359727  0.52176027  1
  Sn  Sn18  1  0.99909806  0.00855651  0.65039304  1
  Sn  Sn19  1  0.00945844  0.00855651  0.15039304  1
  Sn  Sn20  1  0.66576506  0.34188951  0.98372604  1
  Sn  Sn21  1  0.67612544  0.34188951  0.48372604  1
  Sn  Sn22  1  0.33243106  0.67522351  0.31706004  1
  Sn  Sn23  1  0.34279144  0.67522351  0.81706004  1
  P  P24  1  0.29353110  0.98641709  0.25040533  1
  P  P25  1  0.01664017  0.30661926  0.25539566  1
  P  P26  1  0.28997909  0.30661926  0.75539566  1
  P  P27  1  0.69288599  0.98641709  0.75040533  1
  P  P28  1  0.96019810  0.31975009  0.58373833  1
  P  P29  1  0.68330717  0.63995226  0.58872866  1
  P  P30  1  0.95664609  0.63995226  0.08872866  1
  P  P31  1  0.35955299  0.31975009  0.08373833  1
  P  P32  1  0.62686410  0.65308409  0.91707233  1
  P  P33  1  0.34997317  0.97328626  0.92206266  1
  P  P34  1  0.62331209  0.97328626  0.42206266  1
  P  P35  1  0.02621899  0.65308409  0.41707233  1
  S  S36  1  0.69463286  0.71672248  0.24902064  1
  S  S37  1  0.02208962  0.71672248  0.74902064  1
  S  S38  1  0.36129986  0.05005548  0.58235364  1
  S  S39  1  0.68875662  0.05005548  0.08235364  1
  S  S40  1  0.02796586  0.38338948  0.91568764  1
  S  S41  1  0.35542262  0.38338948  0.41568764  1
  O  O42  1  0.19596595  0.99349394  0.30255236  1
  O  O43  1  0.79041613  0.79938461  0.30215791  1
  O  O44  1  0.00063102  0.21665654  0.31217906  1
  O  O45  1  0.21602551  0.21665654  0.81217906  1
  O  O46  1  0.00896848  0.79938461  0.80215791  1
  O  O47  1  0.79752798  0.99349394  0.80255236  1
  O  O48  1  0.77304773  0.95818056  0.69084505  1
  O  O49  1  0.17814452  0.20971308  0.69883448  1
  O  O50  1  0.04176846  0.81840343  0.69459096  1
  O  O51  1  0.77663497  0.81840343  0.19459096  1
  O  O52  1  0.03156856  0.20971308  0.19883448  1
  O  O53  1  0.18513283  0.95818056  0.19084505  1
  O  O54  1  0.86263295  0.32682694  0.63588536  1
  O  O55  1  0.45708313  0.13271761  0.63549091  1
  O  O56  1  0.66729802  0.54998954  0.64551206  1
  O  O57  1  0.88269251  0.54998954  0.14551206  1
  O  O58  1  0.67563548  0.13271761  0.13549091  1
  O  O59  1  0.46419498  0.32682694  0.13588536  1
  O  O60  1  0.43971473  0.29151356  0.02417805  1
  O  O61  1  0.84481152  0.54304608  0.03216748  1
  O  O62  1  0.70843546  0.15173643  0.02792396  1
  O  O63  1  0.44330197  0.15173643  0.52792396  1
  O  O64  1  0.69823556  0.54304608  0.53216748  1
  O  O65  1  0.85179983  0.29151356  0.52417805  1
  O  O66  1  0.52929895  0.66016094  0.96921936  1
  O  O67  1  0.12374913  0.46605161  0.96882491  1
  O  O68  1  0.33396402  0.88332354  0.97884606  1
  O  O69  1  0.54935851  0.88332354  0.47884606  1
  O  O70  1  0.34230148  0.46605161  0.46882491  1
  O  O71  1  0.13086098  0.66016094  0.46921936  1
  O  O72  1  0.10638073  0.62484756  0.35751205  1
  O  O73  1  0.51147752  0.87638008  0.36550148  1
  O  O74  1  0.37510146  0.48507043  0.36125796  1
  O  O75  1  0.10996797  0.48507043  0.86125796  1
  O  O76  1  0.36490156  0.87638008  0.86550148  1
  O  O77  1  0.51846583  0.62484756  0.85751205  1
  O  O78  1  0.99536824  0.79992440  0.41456361  1
  O  O79  1  0.80604312  0.01216944  0.41558729  1
  O  O80  1  0.20454098  0.21667934  0.41082511  1
  O  O81  1  0.01213836  0.21667934  0.91082511  1
  O  O82  1  0.20612632  0.01216944  0.91558729  1
  O  O83  1  0.80455616  0.79992440  0.91456361  1
  O  O84  1  0.96357772  0.14666343  0.58473986  1
  O  O85  1  0.18877278  0.03380878  0.58438779  1
  O  O86  1  0.85591311  0.81617724  0.58800132  1
  O  O87  1  0.96026414  0.81617724  0.08800132  1
  O  O88  1  0.84503600  0.03380878  0.08438779  1
  O  O89  1  0.18308571  0.14666343  0.08473986  1
  O  O90  1  0.66203524  0.13325740  0.74789661  1
  O  O91  1  0.47271012  0.34550244  0.74892029  1
  O  O92  1  0.87120798  0.55001234  0.74415811  1
  O  O93  1  0.67880536  0.55001234  0.24415811  1
  O  O94  1  0.87279332  0.34550244  0.24892029  1
  O  O95  1  0.47122316  0.13325740  0.24789661  1
  O  O96  1  0.63024472  0.47999643  0.91807286  1
  O  O97  1  0.85543978  0.36714178  0.91772079  1
  O  O98  1  0.52258011  0.14951024  0.92133432  1
  O  O99  1  0.62693114  0.14951024  0.42133432  1
  O  O100  1  0.51170300  0.36714178  0.41772079  1
  O  O101  1  0.84975271  0.47999643  0.41807286  1
  O  O102  1  0.32870124  0.46659140  0.08123061  1
  O  O103  1  0.13937612  0.67883644  0.08225429  1
  O  O104  1  0.53787398  0.88334634  0.07749211  1
  O  O105  1  0.34547136  0.88334634  0.57749211  1
  O  O106  1  0.53945932  0.67883644  0.58225429  1
  O  O107  1  0.13788916  0.46659140  0.58123061  1
  O  O108  1  0.29691072  0.81333043  0.25140686  1
  O  O109  1  0.52210578  0.70047578  0.25105479  1
  O  O110  1  0.18924611  0.48284424  0.25466832  1
  O  O111  1  0.29359714  0.48284424  0.75466832  1
  O  O112  1  0.17836900  0.70047578  0.75105479  1
  O  O113  1  0.51641871  0.81333043  0.75140686  1
