# generated using pymatgen
data_NaHf3ZnP3(SO8)3
_symmetry_space_group_name_H-M   'P 1'
_cell_length_a   8.84431261
_cell_length_b   8.84734722
_cell_length_c   22.98634071
_cell_angle_alpha   90.06774426
_cell_angle_beta   89.96935474
_cell_angle_gamma   120.11178675
_symmetry_Int_Tables_number   1
_chemical_formula_structural   NaHf3ZnP3(SO8)3
_chemical_formula_sum   'Na3 Hf9 Zn3 P9 S9 O72'
_cell_volume   1555.91910850
_cell_formula_units_Z   3
loop_
 _symmetry_equiv_pos_site_id
 _symmetry_equiv_pos_as_xyz
  1  'x, y, z'
loop_
 _atom_site_type_symbol
 _atom_site_label
 _atom_site_symmetry_multiplicity
 _atom_site_fract_x
 _atom_site_fract_y
 _atom_site_fract_z
 _atom_site_occupancy
  Na  Na0  1  0.65452686  0.33144896  0.82853236  1
  Na  Na1  1  0.67435713  0.32909445  0.32524636  1
  Na  Na2  1  0.32967369  0.67471292  0.17145915  1
  Hf  Hf3  1  0.99515588  0.99367960  0.35710269  1
  Hf  Hf4  1  0.00565360  0.00451174  0.85877314  1
  Hf  Hf5  1  0.00004135  0.00072458  0.64473599  1
  Hf  Hf6  1  0.99474888  0.99616245  0.14214046  1
  Hf  Hf7  1  0.67326839  0.33502894  0.98040814  1
  Hf  Hf8  1  0.67350746  0.34037065  0.48073383  1
  Hf  Hf9  1  0.33403766  0.67162929  0.01903105  1
  Hf  Hf10  1  0.33958877  0.67252646  0.51919134  1
  Hf  Hf11  1  0.33390817  0.66103728  0.81064505  1
  Zn  Zn12  1  0.64891319  0.34079907  0.68607239  1
  Zn  Zn13  1  0.67670433  0.32838899  0.18030562  1
  Zn  Zn14  1  0.33023990  0.67976116  0.31786677  1
  P  P15  1  0.29323117  0.28498129  0.75049793  1
  P  P16  1  0.66417544  0.62046174  0.58553257  1
  P  P17  1  0.95811457  0.61796296  0.08683214  1
  P  P18  1  0.65928847  0.04229305  0.08666643  1
  P  P19  1  0.61905570  0.66152276  0.91563750  1
  P  P20  1  0.04417702  0.38268856  0.91560194  1
  P  P21  1  0.34024862  0.95724489  0.91452353  1
  P  P22  1  0.61843400  0.95888119  0.41363093  1
  P  P23  1  0.04572098  0.66152549  0.41376023  1
  S  S24  1  0.29292438  0.00389715  0.24962887  1
  S  S25  1  0.70432546  0.70467722  0.25006843  1
  S  S26  1  0.00408626  0.29287454  0.25093552  1
  S  S27  1  0.99659502  0.70884196  0.75061310  1
  S  S28  1  0.71379247  0.00694278  0.75017996  1
  S  S29  1  0.95575923  0.33573748  0.58552548  1
  S  S30  1  0.37970745  0.04455167  0.58483763  1
  S  S31  1  0.38027150  0.33780457  0.08584097  1
  S  S32  1  0.33659468  0.37956639  0.41461648  1
  O  O33  1  0.19819052  0.01324201  0.30246464  1
  O  O34  1  0.81360961  0.79948676  0.30264317  1
  O  O35  1  0.99259645  0.18552291  0.30314476  1
  O  O36  1  0.19381338  0.16953518  0.80336408  1
  O  O37  1  0.97265746  0.79574543  0.80197700  1
  O  O38  1  0.82133293  0.02429888  0.80177454  1
  O  O39  1  0.79704140  0.97987397  0.69732724  1
  O  O40  1  0.18121576  0.19453235  0.69538233  1
  O  O41  1  0.01753329  0.81539127  0.69756532  1
  O  O42  1  0.79918856  0.81382656  0.19788371  1
  O  O43  1  0.01409471  0.19860920  0.19822264  1
  O  O44  1  0.18595581  0.99240942  0.19751936  1
  O  O45  1  0.88013240  0.36682352  0.63723351  1
  O  O46  1  0.48782595  0.11527618  0.63644095  1
  O  O47  1  0.62595449  0.50897166  0.63909807  1
  O  O48  1  0.88366821  0.51172091  0.14169453  1
  O  O49  1  0.61727897  0.11061843  0.14118256  1
  O  O50  1  0.48596716  0.37091410  0.13809943  1
  O  O51  1  0.45996674  0.31078959  0.03280307  1
  O  O52  1  0.84346223  0.53366642  0.03206334  1
  O  O53  1  0.68524278  0.15543142  0.03201318  1
  O  O54  1  0.45998497  0.15477173  0.53270263  1
  O  O55  1  0.69832893  0.53552963  0.53144118  1
  O  O56  1  0.84300811  0.30177180  0.53296343  1
  O  O57  1  0.53559499  0.68978376  0.97011395  1
  O  O58  1  0.15492689  0.46631091  0.97005878  1
  O  O59  1  0.31367241  0.84680100  0.96945621  1
  O  O60  1  0.53435611  0.84357714  0.46844728  1
  O  O61  1  0.30829930  0.45876347  0.46751631  1
  O  O62  1  0.15740629  0.68701568  0.46853871  1
  O  O63  1  0.11379667  0.61836979  0.35972232  1
  O  O64  1  0.50996798  0.88646094  0.35926757  1
  O  O65  1  0.37361400  0.48623688  0.36278124  1
  O  O66  1  0.13056367  0.49738848  0.86169353  1
  O  O67  1  0.36896424  0.87084221  0.86091932  1
  O  O68  1  0.50301815  0.63209342  0.86158439  1
  O  O69  1  0.02991896  0.82789283  0.40643528  1
  O  O70  1  0.80367987  0.98097127  0.40657976  1
  O  O71  1  0.17857229  0.20287328  0.40840047  1
  O  O72  1  0.02462366  0.20159880  0.90663730  1
  O  O73  1  0.17470189  0.97107392  0.90635830  1
  O  O74  1  0.79869575  0.82333886  0.90476305  1
  O  O75  1  0.97399059  0.17724443  0.59152618  1
  O  O76  1  0.20379202  0.02695484  0.59147001  1
  O  O77  1  0.82798964  0.80411903  0.59381153  1
  O  O78  1  0.97945751  0.80306271  0.09393336  1
  O  O79  1  0.82749464  0.02942940  0.09413548  1
  O  O80  1  0.20339212  0.17922178  0.09224310  1
  O  O81  1  0.69862497  0.16331740  0.74466977  1
  O  O82  1  0.47342268  0.30067146  0.74850242  1
  O  O83  1  0.84539966  0.53240900  0.74620419  1
  O  O84  1  0.69424135  0.53398244  0.24747088  1
  O  O85  1  0.84282052  0.30333044  0.24982578  1
  O  O86  1  0.46447546  0.16546679  0.24789711  1
  O  O87  1  0.63796644  0.49841768  0.92323989  1
  O  O88  1  0.86110099  0.36270832  0.92233069  1
  O  O89  1  0.50036980  0.14140308  0.92257198  1
  O  O90  1  0.64414259  0.14287340  0.42646197  1
  O  O91  1  0.48734331  0.35078208  0.42523157  1
  O  O92  1  0.85678087  0.50540133  0.42516916  1
  O  O93  1  0.35253211  0.48835954  0.07677750  1
  O  O94  1  0.14311893  0.64440973  0.07627971  1
  O  O95  1  0.50640263  0.85393352  0.07609906  1
  O  O96  1  0.35183097  0.86667397  0.57343441  1
  O  O97  1  0.50706799  0.64457906  0.57040295  1
  O  O98  1  0.13091709  0.48595017  0.57289754  1
  O  O99  1  0.30353227  0.84239222  0.25084583  1
  O  O100  1  0.53346720  0.69462593  0.25312988  1
  O  O101  1  0.16614489  0.46446666  0.25311780  1
  O  O102  1  0.30372651  0.46450761  0.75762078  1
  O  O103  1  0.16190311  0.70453840  0.75658276  1
  O  O104  1  0.53996654  0.84561639  0.75599725  1
