# generated using pymatgen
data_Li7Mo4P9O32
_symmetry_space_group_name_H-M   'P 1'
_cell_length_a   14.05315900
_cell_length_b   14.05315900
_cell_length_c   6.55375700
_cell_angle_alpha   90.00000000
_cell_angle_beta   90.00000000
_cell_angle_gamma   90.00000000
_symmetry_Int_Tables_number   1
_chemical_formula_structural   Li7Mo4P9O32
_chemical_formula_sum   'Li14 Mo8 P18 O64'
_cell_volume   1294.30984484
_cell_formula_units_Z   2
loop_
 _symmetry_equiv_pos_site_id
 _symmetry_equiv_pos_as_xyz
  1  'x, y, z'
loop_
 _atom_site_type_symbol
 _atom_site_label
 _atom_site_symmetry_multiplicity
 _atom_site_fract_x
 _atom_site_fract_y
 _atom_site_fract_z
 _atom_site_occupancy
  Li  Li0  1  0.00000000  0.00000000  0.00000000  1
  Li  Li1  1  0.00000000  0.50000000  0.13352800  1
  Li  Li2  1  0.00000000  0.50000000  0.63352800  1
  Li  Li3  1  0.10998600  0.74577100  0.80240400  1
  Li  Li4  1  0.24577100  0.60998600  0.30240400  1
  Li  Li5  1  0.25422900  0.10998600  0.19759600  1
  Li  Li6  1  0.39001400  0.24577100  0.69759600  1
  Li  Li7  1  0.50000000  0.00000000  0.36647200  1
  Li  Li8  1  0.50000000  0.00000000  0.86647200  1
  Li  Li9  1  0.50000000  0.50000000  0.50000000  1
  Li  Li10  1  0.60998600  0.75422900  0.69759600  1
  Li  Li11  1  0.74577100  0.89001400  0.19759600  1
  Li  Li12  1  0.75422900  0.39001400  0.30240400  1
  Li  Li13  1  0.89001400  0.25422900  0.80240400  1
  Mo  Mo14  1  0.12104800  0.19855700  0.61769900  1
  Mo  Mo15  1  0.19855700  0.87895200  0.38230100  1
  Mo  Mo16  1  0.30144300  0.37895200  0.11769900  1
  Mo  Mo17  1  0.37895200  0.69855700  0.88230100  1
  Mo  Mo18  1  0.62104800  0.30144300  0.88230100  1
  Mo  Mo19  1  0.69855700  0.62104800  0.11769900  1
  Mo  Mo20  1  0.80144300  0.12104800  0.38230100  1
  Mo  Mo21  1  0.87895200  0.80144300  0.61769900  1
  P  P22  1  0.93947500  0.30911500  0.38395800  1
  P  P23  1  0.89721200  0.75219500  0.12746000  1
  P  P24  1  0.80911500  0.43947500  0.88395800  1
  P  P25  1  0.75219500  0.10278800  0.87254000  1
  P  P26  1  0.74780500  0.60278800  0.62746000  1
  P  P27  1  0.69088500  0.93947500  0.61604200  1
  P  P28  1  0.60278800  0.25219500  0.37254000  1
  P  P29  1  0.56052500  0.80911500  0.11604200  1
  P  P30  1  0.00000000  0.00000000  0.50000000  1
  P  P31  1  0.06052500  0.69088500  0.38395800  1
  P  P32  1  0.10278800  0.24780500  0.12746000  1
  P  P33  1  0.19088500  0.56052500  0.88395800  1
  P  P34  1  0.24780500  0.89721200  0.87254000  1
  P  P35  1  0.50000000  0.50000000  0.00000000  1
  P  P36  1  0.30911500  0.06052500  0.61604200  1
  P  P37  1  0.39721200  0.74780500  0.37254000  1
  P  P38  1  0.43947500  0.19088500  0.11604200  1
  P  P39  1  0.25219500  0.39721200  0.62746000  1
  O  O40  1  0.55532200  0.91650400  0.11302800  1
  O  O41  1  0.98268000  0.25864800  0.57209600  1
  O  O42  1  0.93915600  0.06255600  0.35368500  1
  O  O43  1  0.94467800  0.41650400  0.38697200  1
  O  O44  1  0.93744400  0.93915600  0.64631500  1
  O  O45  1  0.91650400  0.44467800  0.88697200  1
  O  O46  1  0.90377600  0.81102100  0.93287300  1
  O  O47  1  0.84550600  0.65761600  0.10901900  1
  O  O48  1  0.00720300  0.72896300  0.17918000  1
  O  O49  1  0.01732000  0.74135200  0.57209600  1
  O  O50  1  0.06084400  0.93744400  0.35368500  1
  O  O51  1  0.05532200  0.58349600  0.38697200  1
  O  O52  1  0.06255600  0.06084400  0.64631500  1
  O  O53  1  0.08349600  0.55532200  0.88697200  1
  O  O54  1  0.09622400  0.18897900  0.93287300  1
  O  O55  1  0.14150500  0.18297400  0.29809100  1
  O  O56  1  0.15449400  0.34238400  0.10901900  1
  O  O57  1  0.15761600  0.34550600  0.60901900  1
  O  O58  1  0.16354300  0.72745900  0.35269900  1
  O  O59  1  0.18297400  0.85849500  0.70190900  1
  O  O60  1  0.18897900  0.90377600  0.06712700  1
  O  O61  1  0.22745900  0.66354300  0.85269900  1
  O  O62  1  0.22896300  0.50720300  0.67918000  1
  O  O63  1  0.24135200  0.51732000  0.07209600  1
  O  O64  1  0.25864800  0.01732000  0.42790400  1
  O  O65  1  0.27103700  0.00720300  0.82082000  1
  O  O66  1  0.27254100  0.16354300  0.64730100  1
  O  O67  1  0.31102100  0.40377600  0.43287300  1
  O  O68  1  0.31702600  0.35849500  0.79809100  1
  O  O69  1  0.33645700  0.22745900  0.14730100  1
  O  O70  1  0.34238400  0.84550600  0.89098100  1
  O  O71  1  0.34550600  0.84238400  0.39098100  1
  O  O72  1  0.35849500  0.68297400  0.20190900  1
  O  O73  1  0.40377600  0.68897900  0.56712700  1
  O  O74  1  0.41650400  0.05532200  0.61302800  1
  O  O75  1  0.43744400  0.56084400  0.85368500  1
  O  O76  1  0.44467800  0.08349600  0.11302800  1
  O  O77  1  0.43915600  0.43744400  0.14631500  1
  O  O78  1  0.48268000  0.24135200  0.92790400  1
  O  O79  1  0.49279700  0.22896300  0.32082000  1
  O  O80  1  0.50720300  0.77103700  0.32082000  1
  O  O81  1  0.51732000  0.75864800  0.92790400  1
  O  O82  1  0.56084400  0.56255600  0.14631500  1
  O  O83  1  0.99279700  0.27103700  0.17918000  1
  O  O84  1  0.56255600  0.43915600  0.85368500  1
  O  O85  1  0.58349600  0.94467800  0.61302800  1
  O  O86  1  0.59622400  0.31102100  0.56712700  1
  O  O87  1  0.64150500  0.31702600  0.20190900  1
  O  O88  1  0.65449400  0.15761600  0.39098100  1
  O  O89  1  0.65761600  0.15449400  0.89098100  1
  O  O90  1  0.66354300  0.77254100  0.14730100  1
  O  O91  1  0.68297400  0.64150500  0.79809100  1
  O  O92  1  0.68897900  0.59622400  0.43287300  1
  O  O93  1  0.72745900  0.83645700  0.64730100  1
  O  O94  1  0.72896300  0.99279700  0.82082000  1
  O  O95  1  0.74135200  0.98268000  0.42790400  1
  O  O96  1  0.75864800  0.48268000  0.07209600  1
  O  O97  1  0.77103700  0.49279700  0.67918000  1
  O  O98  1  0.77254100  0.33645700  0.85269900  1
  O  O99  1  0.81102100  0.09622400  0.06712700  1
  O  O100  1  0.81702600  0.14150500  0.70190900  1
  O  O101  1  0.83645700  0.27254100  0.35269900  1
  O  O102  1  0.84238400  0.65449400  0.60901900  1
  O  O103  1  0.85849500  0.81702600  0.29809100  1
