# generated using pymatgen
data_Na3GaSiGe(PO6)2
_symmetry_space_group_name_H-M   'P 1'
_cell_length_a   15.08950624
_cell_length_b   8.76136994
_cell_length_c   8.83026805
_cell_angle_alpha   90.00000000
_cell_angle_beta   125.37520074
_cell_angle_gamma   90.00000000
_symmetry_Int_Tables_number   1
_chemical_formula_structural   Na3GaSiGe(PO6)2
_chemical_formula_sum   'Na12 Ga4 Si4 Ge4 P8 O48'
_cell_volume   951.87553061
_cell_formula_units_Z   4
loop_
 _symmetry_equiv_pos_site_id
 _symmetry_equiv_pos_as_xyz
  1  'x, y, z'
loop_
 _atom_site_type_symbol
 _atom_site_label
 _atom_site_symmetry_multiplicity
 _atom_site_fract_x
 _atom_site_fract_y
 _atom_site_fract_z
 _atom_site_occupancy
  Na  Na0  1  0.25093279  0.72895293  0.99509105  1
  Na  Na1  1  0.75093279  0.77104707  0.49509105  1
  Na  Na2  1  0.75093279  0.22895293  0.99509105  1
  Na  Na3  1  0.25093279  0.27104707  0.49509105  1
  Na  Na4  1  0.50469925  0.11472721  0.75685872  1
  Na  Na5  1  0.50469925  0.88527279  0.25685872  1
  Na  Na6  1  0.00469925  0.61472721  0.75685872  1
  Na  Na7  1  0.00469925  0.38527279  0.25685872  1
  Na  Na8  1  0.18669077  0.93654736  0.27822424  1
  Na  Na9  1  0.18669077  0.06345264  0.77822424  1
  Na  Na10  1  0.68669077  0.43654736  0.27822424  1
  Na  Na11  1  0.68669077  0.56345264  0.77822424  1
  Ga  Ga12  1  0.10533262  0.74157635  0.56217986  1
  Ga  Ga13  1  0.10533262  0.25842365  0.06217986  1
  Ga  Ga14  1  0.60533262  0.24157635  0.56217986  1
  Ga  Ga15  1  0.60533262  0.75842365  0.06217986  1
  Si  Si16  1  0.64646443  0.89206132  0.74880001  1
  Si  Si17  1  0.64646443  0.10793868  0.24880001  1
  Si  Si18  1  0.14646443  0.39206132  0.74880001  1
  Si  Si19  1  0.14646443  0.60793868  0.24880001  1
  Ge  Ge20  1  0.89708416  0.75892026  0.93934180  1
  Ge  Ge21  1  0.89708416  0.24107974  0.43934180  1
  Ge  Ge22  1  0.39708416  0.25892026  0.93934180  1
  Ge  Ge23  1  0.39708416  0.74107974  0.43934180  1
  P  P24  1  0.99610514  0.96253090  0.75434311  1
  P  P25  1  0.99610514  0.03746910  0.25434311  1
  P  P26  1  0.49610514  0.46253090  0.75434311  1
  P  P27  1  0.49610514  0.53746910  0.25434311  1
  P  P28  1  0.35535330  0.89522222  0.75631129  1
  P  P29  1  0.35535330  0.10477778  0.25631129  1
  P  P30  1  0.85535330  0.39522222  0.75631129  1
  P  P31  1  0.85535330  0.60477778  0.25631129  1
  O  O32  1  0.15032126  0.57629643  0.73785629  1
  O  O33  1  0.85205429  0.57516350  0.76135760  1
  O  O34  1  0.85205429  0.42483650  0.26135760  1
  O  O35  1  0.15032126  0.42370357  0.23785629  1
  O  O36  1  0.65032126  0.07629643  0.73785629  1
  O  O37  1  0.35205429  0.07516350  0.76135760  1
  O  O38  1  0.35205429  0.92483650  0.26135760  1
  O  O39  1  0.65032126  0.92370357  0.23785629  1
  O  O40  1  0.42573524  0.56230797  0.57679079  1
  O  O41  1  0.56581229  0.55597868  0.93225711  1
  O  O42  1  0.56581229  0.44402132  0.43225711  1
  O  O43  1  0.42573524  0.43769203  0.07679079  1
  O  O44  1  0.92573524  0.06230797  0.57679079  1
  O  O45  1  0.06581229  0.05597868  0.93225711  1
  O  O46  1  0.06581229  0.94402132  0.43225711  1
  O  O47  1  0.92573524  0.93769203  0.07679079  1
  O  O48  1  0.25364847  0.83806671  0.73974252  1
  O  O49  1  0.74983701  0.80396836  0.76673950  1
  O  O50  1  0.74983701  0.19603164  0.26673950  1
  O  O51  1  0.25364847  0.16193329  0.23974252  1
  O  O52  1  0.75364847  0.33806671  0.73974252  1
  O  O53  1  0.24983701  0.30396836  0.76673950  1
  O  O54  1  0.24983701  0.69603164  0.26673950  1
  O  O55  1  0.75364847  0.66193329  0.23974252  1
  O  O56  1  0.35702967  0.86498063  0.58267656  1
  O  O57  1  0.64118817  0.85423725  0.91996341  1
  O  O58  1  0.64118817  0.14576275  0.41996341  1
  O  O59  1  0.35702967  0.13501937  0.08267656  1
  O  O60  1  0.85702967  0.36498063  0.58267656  1
  O  O61  1  0.14118817  0.35423725  0.91996341  1
  O  O62  1  0.14118817  0.64576275  0.41996341  1
  O  O63  1  0.85702967  0.63501937  0.08267656  1
  O  O64  1  0.45415616  0.83095101  0.93660749  1
  O  O65  1  0.53860322  0.81146275  0.55638563  1
  O  O66  1  0.53860322  0.18853725  0.05638563  1
  O  O67  1  0.45415616  0.16904899  0.43660749  1
  O  O68  1  0.95415616  0.33095101  0.93660749  1
  O  O69  1  0.03860322  0.31146275  0.55638563  1
  O  O70  1  0.03860322  0.68853725  0.05638563  1
  O  O71  1  0.95415616  0.66904899  0.43660749  1
  O  O72  1  0.07562943  0.85914154  0.74306324  1
  O  O73  1  0.91332233  0.85602670  0.75540979  1
  O  O74  1  0.91332233  0.14397330  0.25540979  1
  O  O75  1  0.07562943  0.14085846  0.24306324  1
  O  O76  1  0.57562943  0.35914154  0.74306324  1
  O  O77  1  0.41332233  0.35602670  0.75540979  1
  O  O78  1  0.41332233  0.64397330  0.25540979  1
  O  O79  1  0.57562943  0.64085846  0.24306324  1
