# generated using pymatgen
data_SnClF
_symmetry_space_group_name_H-M   'P 1'
_cell_length_a   4.34739309
_cell_length_b   6.14680603
_cell_length_c   10.38195643
_cell_angle_alpha   90.00000000
_cell_angle_beta   90.00000000
_cell_angle_gamma   90.00000000
_symmetry_Int_Tables_number   1
_chemical_formula_structural   SnClF
_chemical_formula_sum   'Sn4 Cl4 F4'
_cell_volume   277.43268265
_cell_formula_units_Z   4
loop_
 _symmetry_equiv_pos_site_id
 _symmetry_equiv_pos_as_xyz
  1  'x, y, z'
loop_
 _atom_site_type_symbol
 _atom_site_label
 _atom_site_symmetry_multiplicity
 _atom_site_fract_x
 _atom_site_fract_y
 _atom_site_fract_z
 _atom_site_occupancy
  Sn  Sn0  1  0.75000000  0.78728530  0.91539464  1
  Sn  Sn1  1  0.25000000  0.21271470  0.08460536  1
  Sn  Sn2  1  0.75000000  0.28728530  0.58460536  1
  Sn  Sn3  1  0.25000000  0.71271470  0.41539464  1
  Cl  Cl4  1  0.75000000  0.60555955  0.13314198  1
  Cl  Cl5  1  0.25000000  0.39444045  0.86685802  1
  Cl  Cl6  1  0.75000000  0.10555955  0.36685802  1
  Cl  Cl7  1  0.25000000  0.89444045  0.63314198  1
  F  F8  1  0.75000000  0.60266845  0.47761575  1
  F  F9  1  0.25000000  0.39733155  0.52238425  1
  F  F10  1  0.75000000  0.10266845  0.02238425  1
  F  F11  1  0.25000000  0.89733155  0.97761575  1
