# generated using pymatgen
data_Na4Al3Ge3IO12
_symmetry_space_group_name_H-M   'P 1'
_cell_length_a   9.17617549
_cell_length_b   9.17617549
_cell_length_c   9.17617549
_cell_angle_alpha   90.00000000
_cell_angle_beta   90.00000000
_cell_angle_gamma   90.00000000
_symmetry_Int_Tables_number   1
_chemical_formula_structural   Na4Al3Ge3IO12
_chemical_formula_sum   'Na8 Al6 Ge6 I2 O24'
_cell_volume   772.65413286
_cell_formula_units_Z   2
loop_
 _symmetry_equiv_pos_site_id
 _symmetry_equiv_pos_as_xyz
  1  'x, y, z'
loop_
 _atom_site_type_symbol
 _atom_site_label
 _atom_site_symmetry_multiplicity
 _atom_site_fract_x
 _atom_site_fract_y
 _atom_site_fract_z
 _atom_site_occupancy
  Na  Na0  1  0.19320121  0.19320121  0.19320121  1
  Na  Na1  1  0.30679879  0.69320121  0.30679879  1
  Na  Na2  1  0.30679879  0.30679879  0.69320121  1
  Na  Na3  1  0.69320121  0.30679879  0.30679879  1
  Na  Na4  1  0.80679879  0.80679879  0.19320121  1
  Na  Na5  1  0.19320121  0.80679879  0.80679879  1
  Na  Na6  1  0.80679879  0.19320121  0.80679879  1
  Na  Na7  1  0.69320121  0.69320121  0.69320121  1
  Al  Al8  1  0.50000000  0.25000000  0.00000000  1
  Al  Al9  1  0.00000000  0.50000000  0.25000000  1
  Al  Al10  1  0.00000000  0.50000000  0.75000000  1
  Al  Al11  1  0.25000000  0.00000000  0.50000000  1
  Al  Al12  1  0.75000000  0.00000000  0.50000000  1
  Al  Al13  1  0.50000000  0.75000000  0.00000000  1
  Ge  Ge14  1  0.75000000  0.50000000  0.00000000  1
  Ge  Ge15  1  0.00000000  0.75000000  0.50000000  1
  Ge  Ge16  1  0.25000000  0.50000000  0.00000000  1
  Ge  Ge17  1  0.50000000  0.00000000  0.75000000  1
  Ge  Ge18  1  0.50000000  0.00000000  0.25000000  1
  Ge  Ge19  1  0.00000000  0.25000000  0.50000000  1
  I  I20  1  0.50000000  0.50000000  0.50000000  1
  I  I21  1  0.00000000  0.00000000  0.00000000  1
  O  O22  1  0.64618525  0.93593683  0.64647991  1
  O  O23  1  0.64618525  0.06406317  0.35352009  1
  O  O24  1  0.93593683  0.64647991  0.64618525  1
  O  O25  1  0.06406317  0.64647991  0.35381475  1
  O  O26  1  0.64647991  0.64618525  0.93593683  1
  O  O27  1  0.35352009  0.35381475  0.93593683  1
  O  O28  1  0.85381475  0.85352009  0.43593683  1
  O  O29  1  0.85381475  0.14647991  0.56406317  1
  O  O30  1  0.14618525  0.85352009  0.56406317  1
  O  O31  1  0.14647991  0.56406317  0.85381475  1
  O  O32  1  0.56406317  0.14618525  0.85352009  1
  O  O33  1  0.56406317  0.85381475  0.14647991  1
  O  O34  1  0.85352009  0.43593683  0.85381475  1
  O  O35  1  0.43593683  0.85381475  0.85352009  1
  O  O36  1  0.85352009  0.56406317  0.14618525  1
  O  O37  1  0.14647991  0.43593683  0.14618525  1
  O  O38  1  0.43593683  0.14618525  0.14647991  1
  O  O39  1  0.35352009  0.64618525  0.06406317  1
  O  O40  1  0.64647991  0.35381475  0.06406317  1
  O  O41  1  0.93593683  0.35352009  0.35381475  1
  O  O42  1  0.06406317  0.35352009  0.64618525  1
  O  O43  1  0.35381475  0.06406317  0.64647991  1
  O  O44  1  0.14618525  0.14647991  0.43593683  1
  O  O45  1  0.35381475  0.93593683  0.35352009  1
