# generated using pymatgen
data_Na3ScGa(PO4)3
_symmetry_space_group_name_H-M   'P 1'
_cell_length_a   8.89435793
_cell_length_b   8.88564658
_cell_length_c   22.15851737
_cell_angle_alpha   90.03815754
_cell_angle_beta   89.90634858
_cell_angle_gamma   119.93601234
_symmetry_Int_Tables_number   1
_chemical_formula_structural   Na3ScGa(PO4)3
_chemical_formula_sum   'Na18 Sc6 Ga6 P18 O72'
_cell_volume   1517.58856649
_cell_formula_units_Z   6
loop_
 _symmetry_equiv_pos_site_id
 _symmetry_equiv_pos_as_xyz
  1  'x, y, z'
loop_
 _atom_site_type_symbol
 _atom_site_label
 _atom_site_symmetry_multiplicity
 _atom_site_fract_x
 _atom_site_fract_y
 _atom_site_fract_z
 _atom_site_occupancy
  Na  Na0  1  0.00046911  0.00027776  0.50107883  1
  Na  Na1  1  0.99905481  0.99906924  0.00181709  1
  Na  Na2  1  0.64278643  0.31993676  0.83194640  1
  Na  Na3  1  0.68034563  0.35725912  0.33317830  1
  Na  Na4  1  0.33289928  0.66654363  0.16884165  1
  Na  Na5  1  0.33330235  0.66631634  0.66636173  1
  Na  Na6  1  0.63547085  0.99954240  0.24989476  1
  Na  Na7  1  0.36492425  0.36352893  0.24992566  1
  Na  Na8  1  0.63603004  0.63381526  0.74864366  1
  Na  Na9  1  -0.00007235  0.36434006  0.74857505  1
  Na  Na10  1  0.03294497  0.70124324  0.58392502  1
  Na  Na11  1  0.66526075  0.96641408  0.58376373  1
  Na  Na12  1  0.30077774  0.96895184  0.08508205  1
  Na  Na13  1  0.03077296  0.33424863  0.08489545  1
  Na  Na14  1  0.96872418  0.66488508  0.91736773  1
  Na  Na15  1  0.69691498  0.02898363  0.91680668  1
  Na  Na16  1  0.96977002  0.30171202  0.41679596  1
  Na  Na17  1  0.33540426  0.03364123  0.41760701  1
  Sc  Sc18  1  0.99263111  0.98998862  0.35020067  1
  Sc  Sc19  1  0.01008888  0.00759845  0.84952669  1
  Sc  Sc20  1  0.66161631  0.33649349  0.98414898  1
  Sc  Sc21  1  0.34048613  0.66526200  0.02039407  1
  Sc  Sc22  1  0.33436678  0.65973808  0.51970358  1
  Sc  Sc23  1  0.33449410  0.67127329  0.81312523  1
  Ga  Ga24  1  0.00841765  0.00670668  0.64826587  1
  Ga  Ga25  1  0.99427366  0.99238986  0.15170545  1
  Ga  Ga26  1  0.65971454  0.32863636  0.68286615  1
  Ga  Ga27  1  0.67185989  0.34056272  0.18431566  1
  Ga  Ga28  1  0.66381711  0.33884061  0.48326647  1
  Ga  Ga29  1  0.32819916  0.66459331  0.31643571  1
  P  P30  1  0.29615036  0.99702660  0.24888854  1
  P  P31  1  0.70330264  0.70202324  0.24833206  1
  P  P32  1  0.00025624  0.29910418  0.24881834  1
  P  P33  1  0.29778243  0.29058342  0.74603398  1
  P  P34  1  0.99622303  0.70370929  0.74614340  1
  P  P35  1  0.70848991  0.00524007  0.74600694  1
  P  P36  1  0.95194789  0.32796350  0.58434574  1
  P  P37  1  0.37415701  0.04883831  0.58268325  1
  P  P38  1  0.67113736  0.62472257  0.58584889  1
  P  P39  1  0.95734727  0.63170465  0.08534363  1
  P  P40  1  0.67251472  0.04185265  0.08702145  1
  P  P41  1  0.36862470  0.32780079  0.08919681  1
  P  P42  1  0.62923203  0.66619373  0.91395061  1
  P  P43  1  0.03779780  0.37026338  0.91733658  1
  P  P44  1  0.33377039  0.96211110  0.91879934  1
  P  P45  1  0.62476871  0.96231070  0.41676241  1
  P  P46  1  0.34133083  0.37718126  0.41403063  1
  P  P47  1  0.03721394  0.66029502  0.41821090  1
  O  O48  1  0.21368176  0.02974123  0.30505903  1
  O  O49  1  0.81339055  0.78430500  0.30501548  1
  O  O50  1  0.96723915  0.18326115  0.30525149  1
  O  O51  1  0.21608096  0.18478921  0.80361475  1
  O  O52  1  0.96878574  0.78638673  0.80345787  1
  O  O53  1  0.81927029  0.03449601  0.80357448  1
  O  O54  1  0.79620529  0.97348808  0.69041738  1
  O  O55  1  0.17546686  0.20677153  0.69149622  1
  O  O56  1  0.02117383  0.81556052  0.68933119  1
  O  O57  1  0.78732953  0.82492482  0.19358575  1
  O  O58  1  0.03445812  0.21310932  0.19286563  1
  O  O59  1  0.18495127  0.97135515  0.19172076  1
  O  O60  1  0.86948383  0.36098688  0.64088807  1
  O  O61  1  0.49593282  0.13355630  0.63706310  1
  O  O62  1  0.64542538  0.51959972  0.64410252  1
  O  O63  1  0.86773198  0.50575986  0.13851638  1
  O  O64  1  0.63982079  0.12904689  0.14246413  1
  O  O65  1  0.47772401  0.35339685  0.14638900  1
  O  O66  1  0.45458785  0.29752522  0.03362194  1
  O  O67  1  0.85746407  0.55488951  0.02587336  1
  O  O68  1  0.70218452  0.15259654  0.02926158  1
  O  O69  1  0.45330200  0.15187159  0.52346636  1
  O  O70  1  0.70413344  0.53851066  0.53046209  1
  O  O71  1  0.83811889  0.29629486  0.52695981  1
  O  O72  1  0.53872476  0.69380058  0.96866213  1
  O  O73  1  0.14348442  0.45776320  0.97469955  1
  O  O74  1  0.30819113  0.85443350  0.97670207  1
  O  O75  1  0.54114953  0.85572649  0.47428289  1
  O  O76  1  0.30655825  0.46280174  0.46865322  1
  O  O77  1  0.14680272  0.69159365  0.47575553  1
  O  O78  1  0.12521917  0.62581408  0.36310726  1
  O  O79  1  0.50997880  0.87617750  0.35992597  1
  O  O80  1  0.36477438  0.48265438  0.35541448  1
  O  O81  1  0.12389103  0.48097860  0.86030950  1
  O  O82  1  0.36022878  0.87035786  0.86392403  1
  O  O83  1  0.52726470  0.64582206  0.85538812  1
  O  O84  1  0.02565565  0.82720626  0.41080249  1
  O  O85  1  0.81058392  0.99046315  0.41171801  1
  O  O86  1  0.17694940  0.19298009  0.40989929  1
  O  O87  1  0.01074431  0.18476577  0.91329301  1
  O  O88  1  0.16689587  0.97310027  0.91244746  1
  O  O89  1  0.81160686  0.83077820  0.91112997  1
  O  O90  1  0.96660262  0.16099786  0.58956087  1
  O  O91  1  0.18846332  0.02249571  0.58883412  1
  O  O92  1  0.83696057  0.81024676  0.58889686  1
  O  O93  1  0.98196851  0.81626216  0.09206981  1
  O  O94  1  0.83971230  0.02947052  0.09295958  1
  O  O95  1  0.18489810  0.16186523  0.09259898  1
  O  O96  1  0.69421370  0.17158247  0.74070185  1
  O  O97  1  0.48208462  0.31521253  0.74090912  1
  O  O98  1  0.83027042  0.52001555  0.74263161  1
  O  O99  1  0.67849394  0.51733776  0.24212207  1
  O  O100  1  0.83352580  0.31236195  0.24221669  1
  O  O101  1  0.48043951  0.16276544  0.24387322  1
  O  O102  1  0.65363074  0.50638474  0.92000961  1
  O  O103  1  0.85528029  0.35346907  0.92087850  1
  O  O104  1  0.49918617  0.14132839  0.92242425  1
  O  O105  1  0.64143649  0.14626937  0.42111345  1
  O  O106  1  0.50228826  0.35432781  0.42159898  1
  O  O107  1  0.85645043  0.49414888  0.42383959  1
  O  O108  1  0.34210520  0.48639465  0.08293266  1
  O  O109  1  0.14130802  0.65017294  0.08172489  1
  O  O110  1  0.50669186  0.86205409  0.08181077  1
  O  O111  1  0.35396688  0.86351489  0.57932232  1
  O  O112  1  0.51327331  0.65246896  0.58036982  1
  O  O113  1  0.13246108  0.49324564  0.57938122  1
  O  O114  1  0.32135964  0.83639752  0.25558452  1
  O  O115  1  0.51981141  0.68532869  0.25457049  1
  O  O116  1  0.16785136  0.47867253  0.25543521  1
  O  O117  1  0.31613862  0.47431948  0.75119817  1
  O  O118  1  0.15455721  0.67590544  0.75071948  1
  O  O119  1  0.52883016  0.83912479  0.75092316  1
