# generated using pymatgen
data_Na8ZrZn3(PO4)6
_symmetry_space_group_name_H-M   'P 1'
_cell_length_a   9.11206735
_cell_length_b   9.11206704
_cell_length_c   22.25220281
_cell_angle_alpha   90.00000000
_cell_angle_beta   90.00000000
_cell_angle_gamma   120.00000118
_symmetry_Int_Tables_number   1
_chemical_formula_structural   Na8ZrZn3(PO4)6
_chemical_formula_sum   'Na24 Zr3 Zn9 P18 O72'
_cell_volume   1600.06440210
_cell_formula_units_Z   3
loop_
 _symmetry_equiv_pos_site_id
 _symmetry_equiv_pos_as_xyz
  1  'x, y, z'
loop_
 _atom_site_type_symbol
 _atom_site_label
 _atom_site_symmetry_multiplicity
 _atom_site_fract_x
 _atom_site_fract_y
 _atom_site_fract_z
 _atom_site_occupancy
  Na  Na0  1  0.63215792  0.99885138  0.25136138  1
  Na  Na1  1  0.36669345  0.36784208  0.25136138  1
  Na  Na2  1  0.00114862  0.63330655  0.25136138  1
  Na  Na3  1  0.64324587  0.63075549  0.74309351  1
  Na  Na4  1  0.98750962  0.35675413  0.74309351  1
  Na  Na5  1  0.36924451  0.01249038  0.74309351  1
  Na  Na6  1  0.29592686  0.33460346  0.58134073  1
  Na  Na7  1  0.03867760  0.70407314  0.58134073  1
  Na  Na8  1  0.66539654  0.96132240  0.58134073  1
  Na  Na9  1  0.29483422  0.96325995  0.09073311  1
  Na  Na10  1  0.66842673  0.70516578  0.09073311  1
  Na  Na11  1  0.03674005  0.33157327  0.09073311  1
  Na  Na12  1  0.97252909  0.67925582  0.91508121  1
  Na  Na13  1  0.70672572  0.02747091  0.91508121  1
  Na  Na14  1  0.32074418  0.29327428  0.91508121  1
  Na  Na15  1  0.97672076  0.29664963  0.40920419  1
  Na  Na16  1  0.31992787  0.02327924  0.40920419  1
  Na  Na17  1  0.70335037  0.68007213  0.40920419  1
  Na  Na18  1  0.00000000  0.00000000  0.49694290  1
  Na  Na19  1  0.00000000  0.00000000  0.00529471  1
  Na  Na20  1  0.66666700  0.33333300  0.82663326  1
  Na  Na21  1  0.66666700  0.33333300  0.32479842  1
  Na  Na22  1  0.33333300  0.66666700  0.17214774  1
  Na  Na23  1  0.33333300  0.66666700  0.65696129  1
  Zr  Zr24  1  0.66666700  0.33333300  0.98512089  1
  Zr  Zr25  1  0.66666700  0.33333300  0.48220162  1
  Zr  Zr26  1  0.33333300  0.66666700  0.81486968  1
  Zn  Zn27  1  0.00000000  0.00000000  0.34197862  1
  Zn  Zn28  1  0.00000000  0.00000000  0.84402557  1
  Zn  Zn29  1  0.00000000  0.00000000  0.65078217  1
  Zn  Zn30  1  0.00000000  0.00000000  0.15974551  1
  Zn  Zn31  1  0.66666700  0.33333300  0.67725797  1
  Zn  Zn32  1  0.66666700  0.33333300  0.18404962  1
  Zn  Zn33  1  0.33333300  0.66666700  0.01797071  1
  Zn  Zn34  1  0.33333300  0.66666700  0.51004746  1
  Zn  Zn35  1  0.33333300  0.66666700  0.31746699  1
  P  P36  1  0.29676953  0.99958399  0.24978742  1
  P  P37  1  0.70281446  0.70323047  0.24978742  1
  P  P38  1  0.00041601  0.29718554  0.24978742  1
  P  P39  1  0.29422858  0.29195902  0.75041700  1
  P  P40  1  0.99773045  0.70577142  0.75041700  1
  P  P41  1  0.70804098  0.00226955  0.75041700  1
  P  P42  1  0.96486897  0.33352368  0.58605308  1
  P  P43  1  0.36865571  0.03513103  0.58605308  1
  P  P44  1  0.66647632  0.63134429  0.58605308  1
  P  P45  1  0.96606812  0.63113760  0.08483910  1
  P  P46  1  0.66507048  0.03393188  0.08483910  1
  P  P47  1  0.36886240  0.33492952  0.08483910  1
  P  P48  1  0.63004476  0.66904567  0.91847509  1
  P  P49  1  0.03899992  0.36995524  0.91847509  1
  P  P50  1  0.33095433  0.96100008  0.91847509  1
  P  P51  1  0.62770203  0.95866899  0.41712912  1
  P  P52  1  0.33096597  0.37229797  0.41712912  1
  P  P53  1  0.04133101  0.66903403  0.41712912  1
  O  O54  1  0.21619545  0.02977958  0.30635948  1
  O  O55  1  0.81358414  0.78380455  0.30635948  1
  O  O56  1  0.97022042  0.18641586  0.30635948  1
  O  O57  1  0.21660831  0.18809690  0.80832554  1
  O  O58  1  0.97148859  0.78339169  0.80832554  1
  O  O59  1  0.81190310  0.02851141  0.80832554  1
  O  O60  1  0.78230088  0.96452391  0.69495402  1
  O  O61  1  0.18222303  0.21769912  0.69495402  1
  O  O62  1  0.03547609  0.81777697  0.69495402  1
  O  O63  1  0.78215309  0.81259896  0.19242232  1
  O  O64  1  0.03044587  0.21784691  0.19242232  1
  O  O65  1  0.18740104  0.96955413  0.19242232  1
  O  O66  1  0.88371646  0.36259969  0.64255202  1
  O  O67  1  0.47888423  0.11628354  0.64255202  1
  O  O68  1  0.63740031  0.52111577  0.64255202  1
  O  O69  1  0.87955516  0.51608137  0.13854410  1
  O  O70  1  0.63652721  0.12044484  0.13854410  1
  O  O71  1  0.48391863  0.36347279  0.13854410  1
  O  O72  1  0.45918675  0.31064261  0.02646418  1
  O  O73  1  0.85145687  0.54081325  0.02646418  1
  O  O74  1  0.68935739  0.14854313  0.02646418  1
  O  O75  1  0.46125178  0.15132119  0.53048335  1
  O  O76  1  0.69007041  0.53874822  0.53048335  1
  O  O77  1  0.84867881  0.30992959  0.53048335  1
  O  O78  1  0.54656622  0.69467957  0.97306626  1
  O  O79  1  0.14811235  0.45343378  0.97306626  1
  O  O80  1  0.30532043  0.85188765  0.97306626  1
  O  O81  1  0.54992369  0.85424208  0.47520216  1
  O  O82  1  0.30431739  0.45007631  0.47520216  1
  O  O83  1  0.14575792  0.69568261  0.47520216  1
  O  O84  1  0.11528901  0.63101800  0.36181988  1
  O  O85  1  0.51572799  0.88471099  0.36181988  1
  O  O86  1  0.36898200  0.48427201  0.36181988  1
  O  O87  1  0.12302266  0.48424944  0.86145359  1
  O  O88  1  0.36122579  0.87697734  0.86145359  1
  O  O89  1  0.51575056  0.63877421  0.86145359  1
  O  O90  1  0.01575460  0.82446344  0.41255675  1
  O  O91  1  0.80870884  0.98424540  0.41255675  1
  O  O92  1  0.17553656  0.19129116  0.41255675  1
  O  O93  1  0.01563910  0.19109855  0.91125861  1
  O  O94  1  0.17545945  0.98436090  0.91125861  1
  O  O95  1  0.80890145  0.82454055  0.91125861  1
  O  O96  1  0.97605070  0.16997022  0.58766141  1
  O  O97  1  0.19391953  0.02394930  0.58766141  1
  O  O98  1  0.83002978  0.80608047  0.58766141  1
  O  O99  1  0.97711755  0.80567969  0.08522122  1
  O  O100  1  0.82856214  0.02288245  0.08522122  1
  O  O101  1  0.19432031  0.17143786  0.08522122  1
  O  O102  1  0.68243217  0.15778302  0.74610608  1
  O  O103  1  0.47535185  0.31756783  0.74610608  1
  O  O104  1  0.84221698  0.52464815  0.74610608  1
  O  O105  1  0.68574183  0.52438836  0.24543288  1
  O  O106  1  0.83864752  0.31425817  0.24543288  1
  O  O107  1  0.47561164  0.16135248  0.24543288  1
  O  O108  1  0.64375260  0.50325124  0.92051241  1
  O  O109  1  0.85949965  0.35624740  0.92051241  1
  O  O110  1  0.49674876  0.14050035  0.92051241  1
  O  O111  1  0.64697763  0.14192946  0.42406125  1
  O  O112  1  0.49495283  0.35302237  0.42406125  1
  O  O113  1  0.85807054  0.50504717  0.42406125  1
  O  O114  1  0.35305786  0.49472127  0.07755948  1
  O  O115  1  0.14166240  0.64694214  0.07755948  1
  O  O116  1  0.50527873  0.85833760  0.07755948  1
  O  O117  1  0.35190314  0.85822998  0.57971128  1
  O  O118  1  0.50632584  0.64809686  0.57971128  1
  O  O119  1  0.14177002  0.49367416  0.57971128  1
  O  O120  1  0.31421855  0.83850381  0.25445061  1
  O  O121  1  0.52428425  0.68578145  0.25445061  1
  O  O122  1  0.16149619  0.47571575  0.25445061  1
  O  O123  1  0.31360254  0.47527047  0.75687447  1
  O  O124  1  0.16166693  0.68639746  0.75687447  1
  O  O125  1  0.52472953  0.83833307  0.75687447  1
