# generated using pymatgen
data_V(PO3)4
_symmetry_space_group_name_H-M   'P 1'
_cell_length_a   10.44532944
_cell_length_b   10.44532944
_cell_length_c   5.14444062
_cell_angle_alpha   80.46241694
_cell_angle_beta   80.46241694
_cell_angle_gamma   73.33896686
_symmetry_Int_Tables_number   1
_chemical_formula_structural   V(PO3)4
_chemical_formula_sum   'V2 P8 O24'
_cell_volume   526.12125630
_cell_formula_units_Z   2
loop_
 _symmetry_equiv_pos_site_id
 _symmetry_equiv_pos_as_xyz
  1  'x, y, z'
loop_
 _atom_site_type_symbol
 _atom_site_label
 _atom_site_symmetry_multiplicity
 _atom_site_fract_x
 _atom_site_fract_y
 _atom_site_fract_z
 _atom_site_occupancy
  V  V0  1  -0.00000000  0.50000000  0.50000000  1
  V  V1  1  0.50000000  -0.00000000  0.50000000  1
  P  P2  1  0.35929974  0.79943644  0.32297449  1
  P  P3  1  0.79943644  0.35929974  0.32297449  1
  P  P4  1  0.69004377  0.92925094  0.96579240  1
  P  P5  1  0.92925094  0.69004377  0.96579240  1
  P  P6  1  0.07074906  0.30995623  0.03420760  1
  P  P7  1  0.64070026  0.20056356  0.67702551  1
  P  P8  1  0.20056356  0.64070026  0.67702551  1
  P  P9  1  0.30995623  0.07074906  0.03420760  1
  O  O10  1  0.42184347  0.86301341  0.50352677  1
  O  O11  1  0.86301341  0.42184347  0.50352677  1
  O  O12  1  0.22691207  0.77308793  0.50000000  1
  O  O13  1  0.77308793  0.22691207  0.50000000  1
  O  O14  1  0.65786619  0.90988024  0.26099905  1
  O  O15  1  0.90988024  0.65786619  0.26099905  1
  O  O16  1  0.44403192  0.69180197  0.18052504  1
  O  O17  1  0.69180197  0.44403192  0.18052504  1
  O  O18  1  0.28291393  0.92956410  0.13208285  1
  O  O19  1  0.92956410  0.28291393  0.13208285  1
  O  O20  1  0.83382582  0.83382582  0.88750181  1
  O  O21  1  0.40933827  0.09213364  0.19049565  1
  O  O22  1  0.09213364  0.40933827  0.19049565  1
  O  O23  1  0.90786636  0.59066173  0.80950435  1
  O  O24  1  0.59066173  0.90786636  0.80950435  1
  O  O25  1  0.16617418  0.16617418  0.11249819  1
  O  O26  1  0.07043590  0.71708607  0.86791715  1
  O  O27  1  0.57815653  0.13698659  0.49647323  1
  O  O28  1  0.30819803  0.55596808  0.81947496  1
  O  O29  1  0.55596808  0.30819803  0.81947496  1
  O  O30  1  0.09011976  0.34213381  0.73900095  1
  O  O31  1  0.34213381  0.09011976  0.73900095  1
  O  O32  1  0.13698659  0.57815653  0.49647323  1
  O  O33  1  0.71708607  0.07043590  0.86791715  1
