# generated using pymatgen
data_Na3Mg2Ga2PS5O24
_symmetry_space_group_name_H-M   'P 1'
_cell_length_a   8.64173529
_cell_length_b   8.62223394
_cell_length_c   22.26587115
_cell_angle_alpha   89.92067593
_cell_angle_beta   90.07621460
_cell_angle_gamma   119.94269832
_symmetry_Int_Tables_number   1
_chemical_formula_structural   Na3Mg2Ga2PS5O24
_chemical_formula_sum   'Na9 Mg6 Ga6 P3 S15 O72'
_cell_volume   1437.60980540
_cell_formula_units_Z   3
loop_
 _symmetry_equiv_pos_site_id
 _symmetry_equiv_pos_as_xyz
  1  'x, y, z'
loop_
 _atom_site_type_symbol
 _atom_site_label
 _atom_site_symmetry_multiplicity
 _atom_site_fract_x
 _atom_site_fract_y
 _atom_site_fract_z
 _atom_site_occupancy
  Na  Na0  1  0.36675231  0.99776221  0.74956625  1
  Na  Na1  1  0.66395687  0.96615535  0.58614265  1
  Na  Na2  1  0.67039902  0.69914558  0.08235116  1
  Na  Na3  1  0.01624925  0.00162804  0.50039661  1
  Na  Na4  1  0.00947933  0.00236198  0.00002294  1
  Na  Na5  1  0.67603608  0.33787990  0.83401203  1
  Na  Na6  1  0.66669458  0.33337179  0.33349307  1
  Na  Na7  1  0.31613986  0.66447487  0.16705793  1
  Na  Na8  1  0.33047131  0.65998830  0.66684170  1
  Mg  Mg9  1  0.00404003  0.00023277  0.64773738  1
  Mg  Mg10  1  0.00572531  0.99972797  0.14779414  1
  Mg  Mg11  1  0.32069084  0.66517900  0.01770989  1
  Mg  Mg12  1  0.32823569  0.66751996  0.51722858  1
  Mg  Mg13  1  0.33174673  0.66624895  0.31590653  1
  Mg  Mg14  1  0.33817494  0.66653913  0.81627398  1
  Ga  Ga15  1  0.00226224  0.00084538  0.34957514  1
  Ga  Ga16  1  0.99061708  0.00232765  0.84921066  1
  Ga  Ga17  1  0.66867034  0.32539072  0.68403398  1
  Ga  Ga18  1  0.67585110  0.33765923  0.18461333  1
  Ga  Ga19  1  0.67446931  0.34022052  0.98271602  1
  Ga  Ga20  1  0.65724804  0.32901080  0.48229033  1
  P  P21  1  0.70934805  0.00082487  0.74800096  1
  P  P22  1  0.37324504  0.04328920  0.58301973  1
  P  P23  1  0.95820658  0.62185249  0.08393765  1
  S  S24  1  0.29559304  0.00345903  0.24956751  1
  S  S25  1  0.70711341  0.70654278  0.24940385  1
  S  S26  1  0.99820582  0.28982323  0.24956786  1
  S  S27  1  0.29148810  0.29383561  0.74990418  1
  S  S28  1  0.99448451  0.70463522  0.75024944  1
  S  S29  1  0.95857781  0.33757713  0.58267115  1
  S  S30  1  0.66673437  0.61887627  0.58328846  1
  S  S31  1  0.66608303  0.04558573  0.08337189  1
  S  S32  1  0.37700140  0.33042741  0.08290839  1
  S  S33  1  0.62973650  0.66642536  0.91784680  1
  S  S34  1  0.03831107  0.37037232  0.91635819  1
  S  S35  1  0.33293889  0.96624433  0.91592615  1
  S  S36  1  0.63173355  0.96321835  0.41672137  1
  S  S37  1  0.33264380  0.37157010  0.41628764  1
  S  S38  1  0.03509295  0.66558108  0.41628825  1
  O  O39  1  0.21690443  0.03639088  0.30492724  1
  O  O40  1  0.82200498  0.78899388  0.30365316  1
  O  O41  1  0.96679291  0.17878927  0.30510326  1
  O  O42  1  0.21542913  0.17507939  0.80431959  1
  O  O43  1  0.96591150  0.78482009  0.80560709  1
  O  O44  1  0.82593790  0.03481071  0.80492553  1
  O  O45  1  0.78979632  0.97460264  0.69070770  1
  O  O46  1  0.18470398  0.21111294  0.69621246  1
  O  O47  1  0.03087801  0.81939712  0.69730931  1
  O  O48  1  0.78636885  0.81209869  0.19461528  1
  O  O49  1  0.02322874  0.20698523  0.19619937  1
  O  O50  1  0.18616527  0.97614130  0.19638670  1
  O  O51  1  0.88030923  0.36995425  0.63756907  1
  O  O52  1  0.49288770  0.12420829  0.64106985  1
  O  O53  1  0.63986128  0.50993104  0.63815855  1
  O  O54  1  0.87041240  0.50496810  0.14059310  1
  O  O55  1  0.63206740  0.12291448  0.13797759  1
  O  O56  1  0.49153728  0.36504039  0.13749977  1
  O  O57  1  0.45677381  0.29869783  0.02849869  1
  O  O58  1  0.83274913  0.53875606  0.02810726  1
  O  O59  1  0.69379918  0.15406989  0.02861714  1
  O  O60  1  0.46466851  0.16200204  0.52743956  1
  O  O61  1  0.69897388  0.54101834  0.52861645  1
  O  O62  1  0.84250932  0.30327254  0.52890312  1
  O  O63  1  0.55267055  0.69411331  0.97304456  1
  O  O64  1  0.14513845  0.44823785  0.97045831  1
  O  O65  1  0.30466605  0.85537766  0.96918031  1
  O  O66  1  0.55656907  0.85861627  0.47217849  1
  O  O67  1  0.30431068  0.44971899  0.47055674  1
  O  O68  1  0.14332078  0.69648829  0.47039344  1
  O  O69  1  0.11372033  0.63602339  0.36241874  1
  O  O70  1  0.51972107  0.88051851  0.36376333  1
  O  O71  1  0.36050865  0.47909735  0.36225699  1
  O  O72  1  0.11706694  0.47872604  0.86236855  1
  O  O73  1  0.36181641  0.88943445  0.86070696  1
  O  O74  1  0.51984228  0.63936221  0.86440335  1
  O  O75  1  0.01572516  0.82951704  0.40924254  1
  O  O76  1  0.81343837  0.98192029  0.40953556  1
  O  O77  1  0.17039254  0.18769324  0.40981619  1
  O  O78  1  0.01967089  0.18765891  0.91043166  1
  O  O79  1  0.16994822  0.98504584  0.90920849  1
  O  O80  1  0.81222591  0.82818702  0.91122728  1
  O  O81  1  0.96930606  0.17245736  0.58858882  1
  O  O82  1  0.19019573  0.02619736  0.58890279  1
  O  O83  1  0.82414076  0.80060753  0.58841259  1
  O  O84  1  0.96871386  0.80550060  0.08922645  1
  O  O85  1  0.82705388  0.02760340  0.08953001  1
  O  O86  1  0.19880515  0.17418901  0.08950288  1
  O  O87  1  0.68783636  0.17326746  0.74458511  1
  O  O88  1  0.47321802  0.31068570  0.74470470  1
  O  O89  1  0.83135207  0.52643318  0.74333222  1
  O  O90  1  0.68951291  0.52452434  0.24498374  1
  O  O91  1  0.83205057  0.30470449  0.24524296  1
  O  O92  1  0.47681999  0.16824640  0.24363444  1
  O  O93  1  0.64704933  0.50189949  0.92262689  1
  O  O94  1  0.85473295  0.34841552  0.92244156  1
  O  O95  1  0.49622757  0.14771664  0.92328155  1
  O  O96  1  0.65273730  0.14648014  0.42242539  1
  O  O97  1  0.49620668  0.35244021  0.42190954  1
  O  O98  1  0.85259792  0.50359255  0.42350896  1
  O  O99  1  0.36708799  0.49655367  0.07650939  1
  O  O100  1  0.14126714  0.63893842  0.07796535  1
  O  O101  1  0.50937980  0.86321530  0.07723388  1
  O  O102  1  0.36486967  0.86068775  0.57742761  1
  O  O103  1  0.50572064  0.63731627  0.57741521  1
  O  O104  1  0.13652719  0.49483952  0.57633644  1
  O  O105  1  0.31514290  0.84446876  0.25721914  1
  O  O106  1  0.52948559  0.68781173  0.25701345  1
  O  O107  1  0.15591347  0.46895497  0.25671527  1
  O  O108  1  0.30935622  0.47003090  0.75784690  1
  O  O109  1  0.15454581  0.68527117  0.75773837  1
  O  O110  1  0.51890880  0.84001348  0.75590232  1
