# generated using pymatgen
data_Y3NbSiS5O24
_symmetry_space_group_name_H-M   'P 1'
_cell_length_a   9.20112351
_cell_length_b   9.21028633
_cell_length_c   23.69834881
_cell_angle_alpha   90.12228500
_cell_angle_beta   90.20133973
_cell_angle_gamma   119.99229758
_symmetry_Int_Tables_number   1
_chemical_formula_structural   Y3NbSiS5O24
_chemical_formula_sum   'Y9 Nb3 Si3 S15 O72'
_cell_volume   1739.35948370
_cell_formula_units_Z   3
loop_
 _symmetry_equiv_pos_site_id
 _symmetry_equiv_pos_as_xyz
  1  'x, y, z'
loop_
 _atom_site_type_symbol
 _atom_site_label
 _atom_site_symmetry_multiplicity
 _atom_site_fract_x
 _atom_site_fract_y
 _atom_site_fract_z
 _atom_site_occupancy
  Y  Y0  1  0.01027283  0.00328065  0.35404691  1
  Y  Y1  1  0.99438436  0.99716775  0.85884873  1
  Y  Y2  1  0.99825642  0.99873356  0.64874640  1
  Y  Y3  1  0.00986520  0.99614339  0.14229484  1
  Y  Y4  1  0.66834921  0.33369865  0.69064126  1
  Y  Y5  1  0.65940957  0.32607894  0.19156730  1
  Y  Y6  1  0.66548136  0.33182628  0.47522358  1
  Y  Y7  1  0.33696560  0.66370766  0.02322195  1
  Y  Y8  1  0.33331593  0.66636296  0.52464499  1
  Nb  Nb9  1  0.67290590  0.33780965  0.97425510  1
  Nb  Nb10  1  0.33350474  0.67188658  0.30979994  1
  Nb  Nb11  1  0.33078667  0.65516479  0.82005736  1
  Si  Si12  1  0.28811106  0.99849211  0.25040938  1
  Si  Si13  1  0.61890266  0.65842532  0.91968078  1
  Si  Si14  1  0.04205438  0.38191520  0.91898474  1
  S  S15  1  0.69934865  0.71147426  0.25224092  1
  S  S16  1  0.01134749  0.30126175  0.25240265  1
  S  S17  1  0.29138111  0.30340115  0.75189170  1
  S  S18  1  0.01537736  0.71080832  0.75136204  1
  S  S19  1  0.69516048  0.98665606  0.75156857  1
  S  S20  1  0.95341191  0.33004960  0.58317977  1
  S  S21  1  0.37666225  0.04719566  0.58315871  1
  S  S22  1  0.66993709  0.62207003  0.58317014  1
  S  S23  1  0.94184123  0.61296009  0.08092628  1
  S  S24  1  0.67181919  0.05721665  0.08107706  1
  S  S25  1  0.38559186  0.33000170  0.08115067  1
  S  S26  1  0.34674015  0.95889912  0.91690213  1
  S  S27  1  0.61237185  0.94595581  0.41448871  1
  S  S28  1  0.33475785  0.38784989  0.41537726  1
  S  S29  1  0.05164215  0.66271553  0.41450927  1
  O  O30  1  0.20180208  0.01698567  0.30662191  1
  O  O31  1  0.80190612  0.78991356  0.30275013  1
  O  O32  1  0.98000911  0.19578949  0.30244147  1
  O  O33  1  0.21688846  0.19561981  0.80072375  1
  O  O34  1  0.98377106  0.78787436  0.80020428  1
  O  O35  1  0.80717996  0.02095300  0.79997902  1
  O  O36  1  0.76970863  0.95591584  0.70012299  1
  O  O37  1  0.18612492  0.22960530  0.70057910  1
  O  O38  1  0.04165347  0.81487716  0.69999214  1
  O  O39  1  0.76411949  0.81763791  0.20212546  1
  O  O40  1  0.04732058  0.23226144  0.20210499  1
  O  O41  1  0.16678513  0.95248119  0.19580523  1
  O  O42  1  0.87478025  0.35698576  0.63339095  1
  O  O43  1  0.48259630  0.12636844  0.63356813  1
  O  O44  1  0.64441524  0.51747407  0.63343527  1
  O  O45  1  0.86589278  0.51458543  0.13190225  1
  O  O46  1  0.65305718  0.13702423  0.13244676  1
  O  O47  1  0.48461414  0.35247579  0.13288775  1
  O  O48  1  0.47256692  0.30997035  0.03100636  1
  O  O49  1  0.83277041  0.51944262  0.02977455  1
  O  O50  1  0.68798942  0.16338611  0.03023413  1
  O  O51  1  0.45654161  0.15029567  0.53218364  1
  O  O52  1  0.69269202  0.54170628  0.53206540  1
  O  O53  1  0.84936946  0.30581090  0.53198926  1
  O  O54  1  0.53575803  0.69183540  0.97225936  1
  O  O55  1  0.15031252  0.47414622  0.97252990  1
  O  O56  1  0.31453494  0.85835373  0.96729958  1
  O  O57  1  0.53563670  0.84587686  0.46540840  1
  O  O58  1  0.31477586  0.46702578  0.46668200  1
  O  O59  1  0.15366958  0.68866196  0.46556533  1
  O  O60  1  0.14130203  0.64275318  0.36429756  1
  O  O61  1  0.50134080  0.85486894  0.36395621  1
  O  O62  1  0.35484372  0.49409903  0.36514293  1
  O  O63  1  0.14220616  0.51349056  0.86209998  1
  O  O64  1  0.37570262  0.87532982  0.86614619  1
  O  O65  1  0.48682734  0.63151638  0.86292838  1
  O  O66  1  0.02805451  0.80738651  0.40694752  1
  O  O67  1  0.77803498  0.96552219  0.40542295  1
  O  O68  1  0.18458613  0.22175365  0.40874967  1
  O  O69  1  0.01236342  0.20372671  0.90162596  1
  O  O70  1  0.20740951  0.98727740  0.90407751  1
  O  O71  1  0.80128354  0.79660185  0.90152103  1
  O  O72  1  0.97184657  0.18075220  0.59112131  1
  O  O73  1  0.20883533  0.02884471  0.59103671  1
  O  O74  1  0.81955810  0.79007032  0.59092904  1
  O  O75  1  0.94621827  0.77591936  0.08356393  1
  O  O76  1  0.82425936  0.04319557  0.08610317  1
  O  O77  1  0.21813522  0.17667887  0.08552141  1
  O  O78  1  0.67345073  0.13395667  0.74151292  1
  O  O79  1  0.46232592  0.33221874  0.74188721  1
  O  O80  1  0.86944592  0.54061171  0.74145250  1
  O  O81  1  0.67381975  0.54319584  0.24390437  1
  O  O82  1  0.87508772  0.33709924  0.24403370  1
  O  O83  1  0.47835719  0.14320016  0.24272252  1
  O  O84  1  0.62456704  0.47944010  0.93154044  1
  O  O85  1  0.85160642  0.36465454  0.92993905  1
  O  O86  1  0.50373650  0.12699286  0.92509281  1
  O  O87  1  0.62180436  0.11052843  0.41885413  1
  O  O88  1  0.48720738  0.37264624  0.42044944  1
  O  O89  1  0.88739863  0.50700633  0.41897789  1
  O  O90  1  0.36566234  0.47774937  0.07563938  1
  O  O91  1  0.11030841  0.63831103  0.07344950  1
  O  O92  1  0.52112163  0.89236524  0.07433351  1
  O  O93  1  0.35883349  0.87941876  0.57545148  1
  O  O94  1  0.52022169  0.64059278  0.57573056  1
  O  O95  1  0.12117826  0.47988987  0.57568652  1
  O  O96  1  0.30866158  0.82234766  0.26777122  1
  O  O97  1  0.52403413  0.68828341  0.26502390  1
  O  O98  1  0.16859817  0.47211432  0.26555861  1
  O  O99  1  0.30595959  0.47370625  0.76204552  1
  O  O100  1  0.16828292  0.69602122  0.76146222  1
  O  O101  1  0.52632367  0.83731253  0.76238046  1
