# generated using pymatgen
data_Ti3ZnP2(SO6)4
_symmetry_space_group_name_H-M   'P 1'
_cell_length_a   8.61284862
_cell_length_b   8.64049036
_cell_length_c   22.26161987
_cell_angle_alpha   90.09510037
_cell_angle_beta   89.94998031
_cell_angle_gamma   119.97771967
_symmetry_Int_Tables_number   1
_chemical_formula_structural   Ti3ZnP2(SO6)4
_chemical_formula_sum   'Ti9 Zn3 P6 S12 O72'
_cell_volume   1435.05801919
_cell_formula_units_Z   3
loop_
 _symmetry_equiv_pos_site_id
 _symmetry_equiv_pos_as_xyz
  1  'x, y, z'
loop_
 _atom_site_type_symbol
 _atom_site_label
 _atom_site_symmetry_multiplicity
 _atom_site_fract_x
 _atom_site_fract_y
 _atom_site_fract_z
 _atom_site_occupancy
  Ti  Ti0  1  0.00069594  0.00015611  0.86069004  1
  Ti  Ti1  1  0.99891410  0.00666071  0.64241207  1
  Ti  Ti2  1  0.00698260  0.00949488  0.14327502  1
  Ti  Ti3  1  0.65562150  0.33067968  0.97465819  1
  Ti  Ti4  1  0.67491029  0.32431655  0.47531869  1
  Ti  Ti5  1  0.33214115  0.65979311  0.02105141  1
  Ti  Ti6  1  0.33601865  0.66552122  0.52110209  1
  Ti  Ti7  1  0.34225578  0.67617007  0.30741172  1
  Ti  Ti8  1  0.33032506  0.66539296  0.81373432  1
  Zn  Zn9  1  0.99517332  0.00087036  0.35646346  1
  Zn  Zn10  1  0.67373017  0.33646843  0.68760918  1
  Zn  Zn11  1  0.66354490  0.33508395  0.18554173  1
  P  P12  1  0.95584007  0.33713819  0.58391309  1
  P  P13  1  0.38178941  0.33561172  0.08397478  1
  P  P14  1  0.61714588  0.66698228  0.91620298  1
  P  P15  1  0.04579952  0.38200651  0.91662471  1
  P  P16  1  0.33308307  0.94862642  0.91680383  1
  P  P17  1  0.61769702  0.94874186  0.41646046  1
  S  S18  1  0.28783456  0.00118886  0.25115366  1
  S  S19  1  0.71464631  0.71110859  0.25041505  1
  S  S20  1  -0.00021121  0.29117537  0.25071827  1
  S  S21  1  0.28570941  0.28611515  0.75043919  1
  S  S22  1  0.00153436  0.71736162  0.75065498  1
  S  S23  1  0.71309097  0.99778060  0.75104788  1
  S  S24  1  0.37714190  0.04290590  0.58328063  1
  S  S25  1  0.66664841  0.62153396  0.58338113  1
  S  S26  1  0.95679577  0.62377933  0.08344830  1
  S  S27  1  0.66503757  0.04240935  0.08318904  1
  S  S28  1  0.33799389  0.38241911  0.41689120  1
  S  S29  1  0.04838179  0.66636431  0.41676395  1
  O  O30  1  0.20788587  0.02740859  0.30513369  1
  O  O31  1  0.81881261  0.79004079  0.30490560  1
  O  O32  1  0.97036047  0.18293515  0.30425220  1
  O  O33  1  0.19742697  0.17417518  0.80379827  1
  O  O34  1  0.98026115  0.80730415  0.80451300  1
  O  O35  1  0.82676506  0.02200720  0.80419231  1
  O  O36  1  0.79881228  0.96903849  0.69606581  1
  O  O37  1  0.16998079  0.20078097  0.69565286  1
  O  O38  1  0.03143808  0.82996924  0.69623496  1
  O  O39  1  0.79445092  0.82793173  0.19669153  1
  O  O40  1  0.03367376  0.20428068  0.19624325  1
  O  O41  1  0.17042290  0.96753732  0.19685775  1
  O  O42  1  0.88433168  0.37690248  0.63958350  1
  O  O43  1  0.48430179  0.11383909  0.63746422  1
  O  O44  1  0.62651342  0.51444041  0.63758964  1
  O  O45  1  0.88886395  0.51592577  0.13723111  1
  O  O46  1  0.63065202  0.11384909  0.13736167  1
  O  O47  1  0.49105923  0.37470953  0.13970903  1
  O  O48  1  0.46730741  0.30001664  0.02761815  1
  O  O49  1  0.84162968  0.54123045  0.02991917  1
  O  O50  1  0.70099781  0.15802102  0.02974915  1
  O  O51  1  0.45789716  0.15944652  0.52999340  1
  O  O52  1  0.69933458  0.54037565  0.53005617  1
  O  O53  1  0.83190713  0.29923821  0.52756493  1
  O  O54  1  0.53466354  0.70164020  0.97183927  1
  O  O55  1  0.16651888  0.46605086  0.97166086  1
  O  O56  1  0.29926014  0.83296954  0.97202632  1
  O  O57  1  0.52014341  0.83328615  0.47193376  1
  O  O58  1  0.31082936  0.46977014  0.47112056  1
  O  O59  1  0.15768419  0.68719104  0.47107524  1
  O  O60  1  0.12529301  0.62875861  0.36294531  1
  O  O61  1  0.49527819  0.86183817  0.36063774  1
  O  O62  1  0.36847611  0.49608641  0.36331098  1
  O  O63  1  0.13285340  0.50158018  0.86058131  1
  O  O64  1  0.36681272  0.86435315  0.86026208  1
  O  O65  1  0.49763591  0.63206216  0.86023302  1
  O  O66  1  0.02964308  0.82263307  0.41161871  1
  O  O67  1  0.80164319  0.97345115  0.41162389  1
  O  O68  1  0.18149186  0.20626362  0.41158144  1
  O  O69  1  0.02676233  0.19679319  0.90496696  1
  O  O70  1  0.16995874  0.97391898  0.90557224  1
  O  O71  1  0.80410489  0.83138366  0.90529060  1
  O  O72  1  0.97557672  0.16704756  0.59343711  1
  O  O73  1  0.19457661  0.02290193  0.59140954  1
  O  O74  1  0.82898067  0.80355142  0.59175762  1
  O  O75  1  0.97457249  0.80448124  0.09194261  1
  O  O76  1  0.82790596  0.02199234  0.09141399  1
  O  O77  1  0.19101699  0.16601206  0.09326726  1
  O  O78  1  0.69316525  0.15426739  0.74497178  1
  O  O79  1  0.46158034  0.30410538  0.74311588  1
  O  O80  1  0.84270012  0.54126968  0.74571947  1
  O  O81  1  0.68494961  0.53262492  0.24238873  1
  O  O82  1  0.84911212  0.31710375  0.23978684  1
  O  O83  1  0.46751575  0.14798459  0.24236856  1
  O  O84  1  0.63981570  0.50284556  0.92650304  1
  O  O85  1  0.86144187  0.36111130  0.92828600  1
  O  O86  1  0.49984998  0.13510715  0.92629688  1
  O  O87  1  0.62618388  0.13340547  0.42704489  1
  O  O88  1  0.50371718  0.37243874  0.42735835  1
  O  O89  1  0.86720173  0.50144994  0.42610124  1
  O  O90  1  0.35003004  0.49339233  0.07025343  1
  O  O91  1  0.13951293  0.65121673  0.07203723  1
  O  O92  1  0.50933708  0.86170097  0.07232372  1
  O  O93  1  0.34982435  0.86141313  0.57216565  1
  O  O94  1  0.51154344  0.64998069  0.57237013  1
  O  O95  1  0.14368327  0.49270292  0.56880132  1
  O  O96  1  0.29576759  0.82887383  0.25782041  1
  O  O97  1  0.53056943  0.69820215  0.25803665  1
  O  O98  1  0.16881820  0.46939227  0.25812049  1
  O  O99  1  0.29677122  0.46264076  0.75751593  1
  O  O100  1  0.16708743  0.70387739  0.75819560  1
  O  O101  1  0.53678022  0.83161459  0.75789695  1
