# generated using pymatgen
data_Na10Ca2Si7Sn6S5O48
_symmetry_space_group_name_H-M   'P 1'
_cell_length_a   18.15393829
_cell_length_b   9.11084505
_cell_length_c   22.97137623
_cell_angle_alpha   90.09324786
_cell_angle_beta   89.63640306
_cell_angle_gamma   120.05106102
_symmetry_Int_Tables_number   1
_chemical_formula_structural   Na10Ca2Si7Sn6S5O48
_chemical_formula_sum   'Na30 Ca6 Si21 Sn18 S15 O144'
_cell_volume   3288.62258650
_cell_formula_units_Z   3
loop_
 _symmetry_equiv_pos_site_id
 _symmetry_equiv_pos_as_xyz
  1  'x, y, z'
loop_
 _atom_site_type_symbol
 _atom_site_label
 _atom_site_symmetry_multiplicity
 _atom_site_fract_x
 _atom_site_fract_y
 _atom_site_fract_z
 _atom_site_occupancy
  Na  Na0  1  0.81731532  0.01106422  0.25056338  1
  Na  Na1  1  0.18854194  0.37954711  0.24854609  1
  Na  Na2  1  0.69071249  0.36230997  0.25709629  1
  Na  Na3  1  0.99125062  0.61183459  0.25663961  1
  Na  Na4  1  0.49546453  0.63645638  0.24526917  1
  Na  Na5  1  0.31807523  0.62377151  0.75085774  1
  Na  Na6  1  0.99565205  0.35375757  0.74715659  1
  Na  Na7  1  0.49123689  0.37321525  0.75631102  1
  Na  Na8  1  0.19273855  0.02181224  0.74974139  1
  Na  Na9  1  0.68880174  0.99668551  0.74945881  1
  Na  Na10  1  0.14857506  0.32857669  0.57956220  1
  Na  Na11  1  0.01655056  0.69074079  0.58288362  1
  Na  Na12  1  0.48846937  0.66551098  0.91757931  1
  Na  Na13  1  0.99287024  0.67588599  0.92106154  1
  Na  Na14  1  0.84807728  0.02760852  0.91319453  1
  Na  Na15  1  0.49381870  0.31209450  0.42088704  1
  Na  Na16  1  0.16429229  0.02444662  0.42015534  1
  Na  Na17  1  0.34771068  0.66629696  0.41305435  1
  Na  Na18  1  0.99515470  0.00366029  0.49937338  1
  Na  Na19  1  0.51268521  0.00720789  0.49464935  1
  Na  Na20  1  0.01126307  0.01737792  0.99462163  1
  Na  Na21  1  0.50395971  0.01305678  0.00024306  1
  Na  Na22  1  0.32844836  0.31661453  0.83099066  1
  Na  Na23  1  0.83088659  0.33098564  0.83530396  1
  Na  Na24  1  0.33608025  0.34162547  0.33379746  1
  Na  Na25  1  0.83264491  0.33906988  0.33233509  1
  Na  Na26  1  0.17642218  0.67212042  0.16628264  1
  Na  Na27  1  0.66044745  0.67115886  0.16207531  1
  Na  Na28  1  0.17077101  0.67949842  0.66367743  1
  Na  Na29  1  0.67465089  0.67967983  0.66648784  1
  Ca  Ca30  1  0.33095064  0.32732589  0.68537579  1
  Ca  Ca31  1  0.83773014  0.33058835  0.68242125  1
  Ca  Ca32  1  0.33991605  0.34606413  0.18131091  1
  Ca  Ca33  1  0.83182359  0.33025710  0.18543812  1
  Ca  Ca34  1  0.16532162  0.66961632  0.01723609  1
  Ca  Ca35  1  0.66441549  0.66140427  0.51668947  1
  Si  Si36  1  0.64243766  0.98993141  0.25197829  1
  Si  Si37  1  0.35075407  0.71290053  0.25324874  1
  Si  Si38  1  0.85358566  0.71645428  0.25238353  1
  Si  Si39  1  0.00515301  0.29422686  0.25224331  1
  Si  Si40  1  0.14350535  0.29822114  0.75200977  1
  Si  Si41  1  0.50540476  0.71695271  0.75334598  1
  Si  Si42  1  0.35397424  0.99176932  0.75275782  1
  Si  Si43  1  0.85218897  0.98782599  0.75218847  1
  Si  Si44  1  0.98130873  0.33573591  0.58078118  1
  Si  Si45  1  0.18281566  0.02843963  0.58546226  1
  Si  Si46  1  0.48618231  0.63266173  0.08105336  1
  Si  Si47  1  0.80957548  0.66579782  0.91752306  1
  Si  Si48  1  0.01972760  0.37291478  0.91806755  1
  Si  Si49  1  0.52043169  0.36903741  0.91427312  1
  Si  Si50  1  0.16768887  0.96914346  0.91575001  1
  Si  Si51  1  0.66496641  0.96400387  0.91658470  1
  Si  Si52  1  0.31145045  0.95484432  0.41591989  1
  Si  Si53  1  0.16460487  0.36898332  0.41788669  1
  Si  Si54  1  0.66739121  0.36550720  0.41535953  1
  Si  Si55  1  0.01714237  0.66567559  0.41315534  1
  Si  Si56  1  0.51855564  0.66544025  0.41834738  1
  Sn  Sn57  1  0.99699787  0.99870456  0.35476157  1
  Sn  Sn58  1  0.50158457  0.99124451  0.35476107  1
  Sn  Sn59  1  0.00085417  0.01090934  0.85511109  1
  Sn  Sn60  1  0.50088309  0.00540439  0.85445626  1
  Sn  Sn61  1  0.99956974  0.02029754  0.64684837  1
  Sn  Sn62  1  0.49735680  0.98994616  0.65065075  1
  Sn  Sn63  1  0.99615586  0.00655394  0.14969422  1
  Sn  Sn64  1  0.49458349  0.96507795  0.14671133  1
  Sn  Sn65  1  0.33679662  0.32241779  0.98124943  1
  Sn  Sn66  1  0.83090146  0.33724052  0.97918126  1
  Sn  Sn67  1  0.33011123  0.32381693  0.48087198  1
  Sn  Sn68  1  0.83536415  0.34145745  0.47818241  1
  Sn  Sn69  1  0.66000992  0.66038029  0.01167019  1
  Sn  Sn70  1  0.16271838  0.66879105  0.51211179  1
  Sn  Sn71  1  0.16809725  0.66182446  0.31836734  1
  Sn  Sn72  1  0.66653501  0.66425529  0.31936530  1
  Sn  Sn73  1  0.16689587  0.67061490  0.81947454  1
  Sn  Sn74  1  0.67010219  0.67723573  0.81833702  1
  S  S75  1  0.14357895  0.99473106  0.25005056  1
  S  S76  1  0.50155990  0.28571176  0.25058115  1
  S  S77  1  0.64366107  0.29321586  0.74985845  1
  S  S78  1  0.00085286  0.71324646  0.75105093  1
  S  S79  1  0.48252250  0.32113397  0.58571275  1
  S  S80  1  0.67981652  0.03934207  0.58508474  1
  S  S81  1  0.33662603  0.63784796  0.58155068  1
  S  S82  1  0.83524327  0.63294439  0.58513818  1
  S  S83  1  0.98105961  0.64202151  0.08558609  1
  S  S84  1  0.33900482  0.03734605  0.08582092  1
  S  S85  1  0.83429456  0.03242835  0.08119637  1
  S  S86  1  0.18003158  0.31988065  0.08540872  1
  S  S87  1  0.68243869  0.33367015  0.08327741  1
  S  S88  1  0.31616694  0.66336921  0.91627331  1
  S  S89  1  0.81586177  0.96883684  0.41650007  1
  O  O90  1  0.10659322  0.02283737  0.30442658  1
  O  O91  1  0.60031533  0.03660181  0.30584186  1
  O  O92  1  0.40950401  0.79874204  0.31031556  1
  O  O93  1  0.91778658  0.80255191  0.30700199  1
  O  O94  1  0.49188933  0.19234690  0.30549553  1
  O  O95  1  0.99003276  0.17153366  0.30763856  1
  O  O96  1  0.09713703  0.16141283  0.80357637  1
  O  O97  1  0.60571438  0.18624386  0.80256570  1
  O  O98  1  0.49207583  0.80585605  0.81131879  1
  O  O99  1  0.99161710  0.79203348  0.80465360  1
  O  O100  1  0.41773968  0.02792648  0.80686292  1
  O  O101  1  0.90965174  0.02010561  0.80999080  1
  O  O102  1  0.39370674  0.94959923  0.69331956  1
  O  O103  1  0.89618244  0.96214239  0.69273881  1
  O  O104  1  0.08858801  0.22628733  0.69027922  1
  O  O105  1  0.58962898  0.21468091  0.69663958  1
  O  O106  1  0.01141755  0.81362229  0.69697000  1
  O  O107  1  0.52977735  0.84468087  0.69547525  1
  O  O108  1  0.39171540  0.82480284  0.19350340  1
  O  O109  1  0.89380426  0.83931565  0.19341929  1
  O  O110  1  0.02998027  0.21885297  0.19354464  1
  O  O111  1  0.51337769  0.20302542  0.19821516  1
  O  O112  1  0.08802914  0.96604929  0.19785410  1
  O  O113  1  0.58380300  0.95203581  0.19285406  1
  O  O114  1  0.44103610  0.33566819  0.63811535  1
  O  O115  1  0.95537621  0.38479226  0.64160703  1
  O  O116  1  0.22966484  0.09849556  0.64554518  1
  O  O117  1  0.72357638  0.11774204  0.63972980  1
  O  O118  1  0.32632993  0.54117683  0.63479830  1
  O  O119  1  0.82414408  0.53236063  0.63712405  1
  O  O120  1  0.45416194  0.54718272  0.14376345  1
  O  O121  1  0.93865162  0.54541430  0.13791824  1
  O  O122  1  0.32727238  0.11743722  0.13711492  1
  O  O123  1  0.82543927  0.10709840  0.13525324  1
  O  O124  1  0.22355019  0.32889610  0.14013558  1
  O  O125  1  0.72903089  0.35402811  0.13713931  1
  O  O126  1  0.22418816  0.30045973  0.03321585  1
  O  O127  1  0.72538549  0.30283915  0.03146255  1
  O  O128  1  0.42182535  0.53351938  0.02407307  1
  O  O129  1  0.92926815  0.55936583  0.03114466  1
  O  O130  1  0.34915900  0.13796730  0.03090390  1
  O  O131  1  0.84510042  0.14067290  0.02857501  1
  O  O132  1  0.22591270  0.16159725  0.52815297  1
  O  O133  1  0.72283775  0.14600620  0.53280463  1
  O  O134  1  0.34831383  0.55539795  0.52830775  1
  O  O135  1  0.84819561  0.55198587  0.53125304  1
  O  O136  1  0.43120366  0.30011673  0.53119168  1
  O  O137  1  0.91581562  0.30717452  0.52660511  1
  O  O138  1  0.27717159  0.68742758  0.96732663  1
  O  O139  1  0.76991650  0.71341570  0.97383339  1
  O  O140  1  0.07490846  0.44898754  0.97383714  1
  O  O141  1  0.57900296  0.45000302  0.97112184  1
  O  O142  1  0.14456413  0.84705536  0.97006852  1
  O  O143  1  0.64275260  0.83389500  0.97019756  1
  O  O144  1  0.27238423  0.82705705  0.47168688  1
  O  O145  1  0.77682960  0.86750018  0.46766788  1
  O  O146  1  0.15270118  0.45420130  0.47664655  1
  O  O147  1  0.64484107  0.44269720  0.46968656  1
  O  O148  1  0.07776232  0.71093723  0.47062709  1
  O  O149  1  0.57392018  0.70134136  0.47407969  1
  O  O150  1  0.06033412  0.64068186  0.35383570  1
  O  O151  1  0.55560480  0.61953987  0.35749763  1
  O  O152  1  0.24662140  0.87951299  0.36051318  1
  O  O153  1  0.76788749  0.89218683  0.36082450  1
  O  O154  1  0.18745698  0.48809608  0.35970664  1
  O  O155  1  0.68545907  0.48071919  0.35385142  1
  O  O156  1  0.05629283  0.49216061  0.85740956  1
  O  O157  1  0.55996690  0.48916969  0.85538522  1
  O  O158  1  0.18601564  0.89119885  0.85409223  1
  O  O159  1  0.68940408  0.89612844  0.85718566  1
  O  O160  1  0.26771032  0.64237804  0.86081050  1
  O  O161  1  0.75090970  0.62484768  0.85972694  1
  O  O162  1  0.01299076  0.84293838  0.40984062  1
  O  O163  1  0.49549937  0.81643394  0.41127762  1
  O  O164  1  0.40737001  0.98585391  0.40857896  1
  O  O165  1  0.90297505  0.98971700  0.41211537  1
  O  O166  1  0.08437578  0.17509140  0.41142182  1
  O  O167  1  0.57821659  0.18198728  0.40732984  1
  O  O168  1  0.99666058  0.17583123  0.91142385  1
  O  O169  1  0.50750129  0.17881961  0.91066519  1
  O  O170  1  0.07873887  0.97547626  0.90704749  1
  O  O171  1  0.57842160  0.97573644  0.91126698  1
  O  O172  1  0.40431025  0.81390905  0.91131691  1
  O  O173  1  0.90584418  0.83034783  0.91028451  1
  O  O174  1  0.48805589  0.15890815  0.58739873  1
  O  O175  1  0.99184659  0.16509227  0.58159124  1
  O  O176  1  0.08454117  0.00621542  0.58840809  1
  O  O177  1  0.59190022  0.02779215  0.58576244  1
  O  O178  1  0.41485567  0.81109941  0.58366831  1
  O  O179  1  0.91924850  0.79945954  0.58784818  1
  O  O180  1  0.49243395  0.82343531  0.07858284  1
  O  O181  1  0.98725508  0.81552564  0.08708610  1
  O  O182  1  0.42234195  0.03601058  0.08815959  1
  O  O183  1  0.91540605  0.02271983  0.08234444  1
  O  O184  1  0.09245941  0.15518484  0.08535537  1
  O  O185  1  0.59533133  0.18111464  0.08610146  1
  O  O186  1  0.34425281  0.15704050  0.75061302  1
  O  O187  1  0.84102518  0.15550515  0.75036993  1
  O  O188  1  0.23871748  0.33021032  0.74992262  1
  O  O189  1  0.72799741  0.31001463  0.74391291  1
  O  O190  1  0.42157146  0.53434434  0.74817951  1
  O  O191  1  0.92790952  0.53917159  0.74867748  1
  O  O192  1  0.33983702  0.52337154  0.25179329  1
  O  O193  1  0.84137622  0.52961218  0.24774496  1
  O  O194  1  0.42856649  0.31440286  0.24754053  1
  O  O195  1  0.92116786  0.30970758  0.24759126  1
  O  O196  1  0.22769950  0.14695579  0.24366686  1
  O  O197  1  0.73718433  0.14956820  0.24791002  1
  O  O198  1  0.32625981  0.51046689  0.91939758  1
  O  O199  1  0.82562863  0.50453089  0.92594151  1
  O  O200  1  0.42847492  0.36533459  0.92074866  1
  O  O201  1  0.92312196  0.35899200  0.92310385  1
  O  O202  1  0.25234369  0.16287348  0.92323567  1
  O  O203  1  0.75230778  0.14665822  0.92599347  1
  O  O204  1  0.32025718  0.14248155  0.42468104  1
  O  O205  1  0.82396470  0.13946877  0.41908561  1
  O  O206  1  0.25184198  0.35380961  0.42301684  1
  O  O207  1  0.75098595  0.33829776  0.42211107  1
  O  O208  1  0.42251209  0.48498594  0.42393888  1
  O  O209  1  0.92422842  0.49680770  0.42028574  1
  O  O210  1  0.16937524  0.46780019  0.08107736  1
  O  O211  1  0.67749177  0.49009044  0.07452524  1
  O  O212  1  0.06597543  0.66291934  0.08199723  1
  O  O213  1  0.58233913  0.65305424  0.07468502  1
  O  O214  1  0.26744509  0.86374405  0.08082822  1
  O  O215  1  0.75954127  0.86077100  0.07517319  1
  O  O216  1  0.16938923  0.83816188  0.57401641  1
  O  O217  1  0.66952091  0.87022067  0.58113475  1
  O  O218  1  0.25814562  0.64983916  0.57602754  1
  O  O219  1  0.76444716  0.66491313  0.57980707  1
  O  O220  1  0.07966840  0.50038505  0.57187968  1
  O  O221  1  0.56790372  0.46860995  0.58189506  1
  O  O222  1  0.14765015  0.83599842  0.25330805  1
  O  O223  1  0.64662070  0.81165816  0.25871483  1
  O  O224  1  0.25524696  0.69237898  0.25575010  1
  O  O225  1  0.75945969  0.70541053  0.25754869  1
  O  O226  1  0.08985820  0.48628697  0.25602491  1
  O  O227  1  0.58241378  0.45848814  0.25249769  1
  O  O228  1  0.14672993  0.48376445  0.75919431  1
  O  O229  1  0.64699948  0.45883398  0.75450141  1
  O  O230  1  0.08202061  0.70405073  0.75286296  1
  O  O231  1  0.59052356  0.69407238  0.75591678  1
  O  O232  1  0.25958919  0.81508655  0.75732375  1
  O  O233  1  0.75641749  0.81760261  0.75404086  1
