# generated using pymatgen
data_In2(SO4)3
_symmetry_space_group_name_H-M   'P 1'
_cell_length_a   8.94184047
_cell_length_b   8.94184017
_cell_length_c   22.92275865
_cell_angle_alpha   90.00000000
_cell_angle_beta   90.00000000
_cell_angle_gamma   120.00000113
_symmetry_Int_Tables_number   1
_chemical_formula_structural   In2(SO4)3
_chemical_formula_sum   'In12 S18 O72'
_cell_volume   1587.27190444
_cell_formula_units_Z   6
loop_
 _symmetry_equiv_pos_site_id
 _symmetry_equiv_pos_as_xyz
  1  'x, y, z'
loop_
 _atom_site_type_symbol
 _atom_site_label
 _atom_site_symmetry_multiplicity
 _atom_site_fract_x
 _atom_site_fract_y
 _atom_site_fract_z
 _atom_site_occupancy
  In  In0  1  0.00000000  0.00000000  0.35342447  1
  In  In1  1  0.00000000  0.00000000  0.85342447  1
  In  In2  1  0.00000000  0.00000000  0.64657553  1
  In  In3  1  0.00000000  0.00000000  0.14657553  1
  In  In4  1  0.66666700  0.33333300  0.68675747  1
  In  In5  1  0.66666700  0.33333300  0.18675747  1
  In  In6  1  0.66666700  0.33333300  0.97990853  1
  In  In7  1  0.66666700  0.33333300  0.47990853  1
  In  In8  1  0.33333300  0.66666700  0.02009147  1
  In  In9  1  0.33333300  0.66666700  0.52009147  1
  In  In10  1  0.33333300  0.66666700  0.31324253  1
  In  In11  1  0.33333300  0.66666700  0.81324253  1
  S  S12  1  0.29145501  0.00000000  0.25000000  1
  S  S13  1  0.70854499  0.70854499  0.25000000  1
  S  S14  1  0.00000000  0.29145501  0.25000000  1
  S  S15  1  0.29145501  0.29145501  0.75000000  1
  S  S16  1  1.00000000  0.70854499  0.75000000  1
  S  S17  1  0.70854499  0.00000000  0.75000000  1
  S  S18  1  0.95812201  0.33333300  0.58333300  1
  S  S19  1  0.37521199  0.04187799  0.58333300  1
  S  S20  1  0.66666700  0.62478801  0.58333300  1
  S  S21  1  0.95812201  0.62478801  0.08333300  1
  S  S22  1  0.66666700  0.04187799  0.08333300  1
  S  S23  1  0.37521199  0.33333300  0.08333300  1
  S  S24  1  0.62478801  0.66666700  0.91666700  1
  S  S25  1  0.04187799  0.37521199  0.91666700  1
  S  S26  1  0.33333300  0.95812201  0.91666700  1
  S  S27  1  0.62478801  0.95812201  0.41666700  1
  S  S28  1  0.33333300  0.37521199  0.41666700  1
  S  S29  1  0.04187799  0.66666700  0.41666700  1
  O  O30  1  0.21495695  0.03306125  0.30234426  1
  O  O31  1  0.81810429  0.78504305  0.30234426  1
  O  O32  1  0.96693875  0.18189571  0.30234426  1
  O  O33  1  0.21495695  0.18189571  0.80234426  1
  O  O34  1  0.96693875  0.78504305  0.80234426  1
  O  O35  1  0.81810429  0.03306125  0.80234426  1
  O  O36  1  0.78504305  0.96693875  0.69765574  1
  O  O37  1  0.18189571  0.21495695  0.69765574  1
  O  O38  1  0.03306125  0.81810429  0.69765574  1
  O  O39  1  0.78504305  0.81810429  0.19765574  1
  O  O40  1  0.03306125  0.21495695  0.19765574  1
  O  O41  1  0.18189571  0.96693875  0.19765574  1
  O  O42  1  0.88162395  0.36639425  0.63567726  1
  O  O43  1  0.48477129  0.11837605  0.63567726  1
  O  O44  1  0.63360575  0.51522871  0.63567726  1
  O  O45  1  0.88162395  0.51522871  0.13567726  1
  O  O46  1  0.63360575  0.11837605  0.13567726  1
  O  O47  1  0.48477129  0.36639425  0.13567726  1
  O  O48  1  0.45171005  0.30027175  0.03098874  1
  O  O49  1  0.84856271  0.54828995  0.03098874  1
  O  O50  1  0.69972825  0.15143729  0.03098874  1
  O  O51  1  0.45171005  0.15143729  0.53098874  1
  O  O52  1  0.69972825  0.54828995  0.53098874  1
  O  O53  1  0.84856271  0.30027175  0.53098874  1
  O  O54  1  0.54828995  0.69972825  0.96901126  1
  O  O55  1  0.15143729  0.45171005  0.96901126  1
  O  O56  1  0.30027175  0.84856271  0.96901126  1
  O  O57  1  0.54828995  0.84856271  0.46901126  1
  O  O58  1  0.30027175  0.45171005  0.46901126  1
  O  O59  1  0.15143729  0.69972825  0.46901126  1
  O  O60  1  0.11837605  0.63360575  0.36432274  1
  O  O61  1  0.51522871  0.88162395  0.36432274  1
  O  O62  1  0.36639425  0.48477129  0.36432274  1
  O  O63  1  0.11837605  0.48477129  0.86432274  1
  O  O64  1  0.36639425  0.88162395  0.86432274  1
  O  O65  1  0.51522871  0.63360575  0.86432274  1
  O  O66  1  0.02478641  0.82167600  0.40943389  1
  O  O67  1  0.79688960  0.97521359  0.40943389  1
  O  O68  1  0.17832400  0.20311040  0.40943389  1
  O  O69  1  0.02478641  0.20311040  0.90943389  1
  O  O70  1  0.17832400  0.97521359  0.90943389  1
  O  O71  1  0.79688960  0.82167600  0.90943389  1
  O  O72  1  0.97521359  0.17832400  0.59056611  1
  O  O73  1  0.20311040  0.02478641  0.59056611  1
  O  O74  1  0.82167600  0.79688960  0.59056611  1
  O  O75  1  0.97521359  0.79688960  0.09056611  1
  O  O76  1  0.82167600  0.02478641  0.09056611  1
  O  O77  1  0.20311040  0.17832400  0.09056611  1
  O  O78  1  0.69145341  0.15500900  0.74276689  1
  O  O79  1  0.46355660  0.30854659  0.74276689  1
  O  O80  1  0.84499100  0.53644340  0.74276689  1
  O  O81  1  0.69145341  0.53644340  0.24276689  1
  O  O82  1  0.84499100  0.30854659  0.24276689  1
  O  O83  1  0.46355660  0.15500900  0.24276689  1
  O  O84  1  0.64188059  0.51165700  0.92389911  1
  O  O85  1  0.86977740  0.35811941  0.92389911  1
  O  O86  1  0.48834300  0.13022260  0.92389911  1
  O  O87  1  0.64188059  0.13022260  0.42389911  1
  O  O88  1  0.48834300  0.35811941  0.42389911  1
  O  O89  1  0.86977740  0.51165700  0.42389911  1
  O  O90  1  0.35811941  0.48834300  0.07610089  1
  O  O91  1  0.13022260  0.64188059  0.07610089  1
  O  O92  1  0.51165700  0.86977740  0.07610089  1
  O  O93  1  0.35811941  0.86977740  0.57610089  1
  O  O94  1  0.51165700  0.64188059  0.57610089  1
  O  O95  1  0.13022260  0.48834300  0.57610089  1
  O  O96  1  0.30854659  0.84499100  0.25723311  1
  O  O97  1  0.53644340  0.69145341  0.25723311  1
  O  O98  1  0.15500900  0.46355660  0.25723311  1
  O  O99  1  0.30854659  0.46355660  0.75723311  1
  O  O100  1  0.15500900  0.69145341  0.75723311  1
  O  O101  1  0.53644340  0.84499100  0.75723311  1
