# generated using pymatgen
data_MgTe3WO12
_symmetry_space_group_name_H-M   'P 1'
_cell_length_a   5.31320734
_cell_length_b   4.94678690
_cell_length_c   8.88569900
_cell_angle_alpha   90.00000000
_cell_angle_beta   90.00000000
_cell_angle_gamma   89.27541932
_symmetry_Int_Tables_number   1
_chemical_formula_structural   MgTe3WO12
_chemical_formula_sum   'Mg1 Te3 W1 O12'
_cell_volume   233.52685685
_cell_formula_units_Z   1
loop_
 _symmetry_equiv_pos_site_id
 _symmetry_equiv_pos_as_xyz
  1  'x, y, z'
loop_
 _atom_site_type_symbol
 _atom_site_label
 _atom_site_symmetry_multiplicity
 _atom_site_fract_x
 _atom_site_fract_y
 _atom_site_fract_z
 _atom_site_occupancy
  Mg  Mg0  1  0.50000000  0.50000000  0.21797900  1
  Te  Te1  1  0.00000000  0.50000000  0.41569000  1
  Te  Te2  1  0.50000000  0.00000000  0.90201900  1
  Te  Te3  1  0.50000000  0.50000000  0.59617300  1
  W  W4  1  0.00000000  0.00000000  0.09734700  1
  O  O5  1  0.14609400  0.26397100  0.26306200  1
  O  O6  1  0.18497400  0.29283000  0.57351700  1
  O  O7  1  0.16131100  0.21460100  0.95367100  1
  O  O8  1  0.32343000  0.69826800  0.41986100  1
  O  O9  1  0.30835000  0.78518500  0.10068900  1
  O  O10  1  0.36370600  0.74510600  0.74021400  1
  O  O11  1  0.63629400  0.25489400  0.74021400  1
  O  O12  1  0.69165000  0.21481500  0.10068900  1
  O  O13  1  0.67657000  0.30173200  0.41986100  1
  O  O14  1  0.83868900  0.78539900  0.95367100  1
  O  O15  1  0.81502600  0.70717000  0.57351700  1
  O  O16  1  0.85390600  0.73602900  0.26306200  1
