# generated using pymatgen
data_Na5Y3TaSiP5O24
_symmetry_space_group_name_H-M   'P 1'
_cell_length_a   9.24211602
_cell_length_b   9.24856095
_cell_length_c   23.37746008
_cell_angle_alpha   90.00476073
_cell_angle_beta   89.99362727
_cell_angle_gamma   120.16022640
_symmetry_Int_Tables_number   1
_chemical_formula_structural   Na5Y3TaSiP5O24
_chemical_formula_sum   'Na15 Y9 Ta3 Si3 P15 O72'
_cell_volume   1727.70693327
_cell_formula_units_Z   3
loop_
 _symmetry_equiv_pos_site_id
 _symmetry_equiv_pos_as_xyz
  1  'x, y, z'
loop_
 _atom_site_type_symbol
 _atom_site_label
 _atom_site_symmetry_multiplicity
 _atom_site_fract_x
 _atom_site_fract_y
 _atom_site_fract_z
 _atom_site_occupancy
  Na  Na0  1  0.63791968  0.99995710  0.25182979  1
  Na  Na1  1  0.36129174  0.36066508  0.25075494  1
  Na  Na2  1  0.00125143  0.63902389  0.25122754  1
  Na  Na3  1  0.30897422  0.34212277  0.58728815  1
  Na  Na4  1  0.03188774  0.69899231  0.58391431  1
  Na  Na5  1  0.66362419  0.96066827  0.58425048  1
  Na  Na6  1  0.29658187  0.95795616  0.07791573  1
  Na  Na7  1  0.97758356  0.67774099  0.91486981  1
  Na  Na8  1  0.69627327  0.02049176  0.91264285  1
  Na  Na9  1  0.99562105  0.99556402  0.49720826  1
  Na  Na10  1  0.00960899  0.01893347  0.99658237  1
  Na  Na11  1  0.65458760  0.33132089  0.82588338  1
  Na  Na12  1  0.66641737  0.33113413  0.33779061  1
  Na  Na13  1  0.33268481  0.65460227  0.16217774  1
  Na  Na14  1  0.34194592  0.66518772  0.67200671  1
  Y  Y15  1  0.99979476  0.99971009  0.35457555  1
  Y  Y16  1  0.00928218  0.00916911  0.84905747  1
  Y  Y17  1  0.99738238  0.99754294  0.65477065  1
  Y  Y18  1  0.99227459  0.00052900  0.14346102  1
  Y  Y19  1  0.66593307  0.33543420  0.68840795  1
  Y  Y20  1  0.67068138  0.33716979  0.18138404  1
  Y  Y21  1  0.33088147  0.65544383  0.01706091  1
  Y  Y22  1  0.33561305  0.66673303  0.51310186  1
  Y  Y23  1  0.33393446  0.66719256  0.32432516  1
  Ta  Ta24  1  0.66522892  0.33319555  0.97846680  1
  Ta  Ta25  1  0.66769004  0.33842040  0.48130642  1
  Ta  Ta26  1  0.32919400  0.66592188  0.81694980  1
  Si  Si27  1  0.66799696  0.62732121  0.58247569  1
  Si  Si28  1  0.03456255  0.37207535  0.91697173  1
  Si  Si29  1  0.33646555  0.96020286  0.91937912  1
  P  P30  1  0.29542167  0.99752956  0.24823499  1
  P  P31  1  0.70158784  0.70433209  0.25037130  1
  P  P32  1  0.00276419  0.29804323  0.25032963  1
  P  P33  1  0.30174327  0.31332749  0.75058582  1
  P  P34  1  0.01008541  0.69984345  0.75317114  1
  P  P35  1  0.68810991  0.98864995  0.75313597  1
  P  P36  1  0.95307519  0.33203311  0.58097872  1
  P  P37  1  0.37898214  0.04690692  0.58101386  1
  P  P38  1  0.95911191  0.62743635  0.08061993  1
  P  P39  1  0.66786173  0.04585927  0.08022966  1
  P  P40  1  0.37787314  0.33089047  0.08201397  1
  P  P41  1  0.62056710  0.65810387  0.91570495  1
  P  P42  1  0.63782169  0.98086308  0.41886893  1
  P  P43  1  0.34170089  0.36233391  0.41897236  1
  P  P44  1  0.02169773  0.65830509  0.41912143  1
  O  O45  1  0.20850847  0.02497019  0.29961252  1
  O  O46  1  0.81242307  0.78664774  0.30275696  1
  O  O47  1  0.97354564  0.18682104  0.30266789  1
  O  O48  1  0.20911754  0.19873679  0.80067855  1
  O  O49  1  0.98774052  0.78430893  0.80581059  1
  O  O50  1  0.79506892  0.00885056  0.80572331  1
  O  O51  1  0.76587331  0.96307776  0.69718266  1
  O  O52  1  0.20254213  0.24243050  0.69358038  1
  O  O53  1  0.03878390  0.80358352  0.69738104  1
  O  O54  1  0.78327482  0.81334108  0.19670937  1
  O  O55  1  0.02934299  0.21656708  0.19655549  1
  O  O56  1  0.19208495  0.97203830  0.19282890  1
  O  O57  1  0.87520706  0.35921965  0.63424984  1
  O  O58  1  0.48701930  0.11999643  0.63411910  1
  O  O59  1  0.63326466  0.50667786  0.63608189  1
  O  O60  1  0.88117439  0.53550102  0.13681305  1
  O  O61  1  0.65001469  0.12367006  0.13594349  1
  O  O62  1  0.46689032  0.34352305  0.13870104  1
  O  O63  1  0.48746278  0.32284766  0.03043372  1
  O  O64  1  0.84429927  0.52263193  0.02816600  1
  O  O65  1  0.67890971  0.16286181  0.02756876  1
  O  O66  1  0.47819295  0.16159116  0.52809818  1
  O  O67  1  0.68547341  0.51826121  0.52648810  1
  O  O68  1  0.83713357  0.31256455  0.52797503  1
  O  O69  1  0.55209416  0.69815656  0.96895898  1
  O  O70  1  0.14304265  0.45151969  0.97286889  1
  O  O71  1  0.31198743  0.85765678  0.97737717  1
  O  O72  1  0.55095965  0.87205819  0.47154319  1
  O  O73  1  0.32072927  0.44836165  0.47180749  1
  O  O74  1  0.12744384  0.67909838  0.47223179  1
  O  O75  1  0.09809150  0.63020615  0.36398559  1
  O  O76  1  0.53298415  0.90365662  0.36358563  1
  O  O77  1  0.37159519  0.46755612  0.36390290  1
  O  O78  1  0.13799543  0.50379639  0.86234144  1
  O  O79  1  0.37081481  0.85865817  0.86522878  1
  O  O80  1  0.50292891  0.63089614  0.86355258  1
  O  O81  1  0.99566719  0.80845138  0.41441785  1
  O  O82  1  0.81317660  0.00351281  0.41443043  1
  O  O83  1  0.19065289  0.18613861  0.41440550  1
  O  O84  1  0.98169695  0.17840858  0.90984148  1
  O  O85  1  0.17139014  0.97439034  0.91036400  1
  O  O86  1  0.79932307  0.80425841  0.90645473  1
  O  O87  1  0.96554413  0.17052188  0.58366504  1
  O  O88  1  0.20823424  0.04169087  0.58412196  1
  O  O89  1  0.84297170  0.80915576  0.58408145  1
  O  O90  1  0.97475180  0.80256035  0.07940128  1
  O  O91  1  0.82774708  0.03460160  0.07884154  1
  O  O92  1  0.21052277  0.16212822  0.07957522  1
  O  O93  1  0.66235724  0.13957625  0.74839081  1
  O  O94  1  0.47806652  0.33681643  0.74832821  1
  O  O95  1  0.86124907  0.52164054  0.74833136  1
  O  O96  1  0.68041353  0.52646320  0.24579505  1
  O  O97  1  0.84614150  0.31959645  0.24577452  1
  O  O98  1  0.47485644  0.15408743  0.24529327  1
  O  O99  1  0.63706487  0.49667342  0.92565473  1
  O  O100  1  0.84990176  0.37180669  0.92561975  1
  O  O101  1  0.51391189  0.14880770  0.92657174  1
  O  O102  1  0.65084723  0.15598883  0.42731593  1
  O  O103  1  0.50426291  0.34791880  0.42736955  1
  O  O104  1  0.84555251  0.49331451  0.42690516  1
  O  O105  1  0.35747529  0.48461466  0.07856713  1
  O  O106  1  0.13710358  0.65217927  0.07827940  1
  O  O107  1  0.50617092  0.87536298  0.07624399  1
  O  O108  1  0.34849550  0.86728314  0.57354415  1
  O  O109  1  0.50548265  0.65294365  0.57677701  1
  O  O110  1  0.12959066  0.48756919  0.57410177  1
  O  O111  1  0.31276268  0.83845179  0.25536669  1
  O  O112  1  0.52400714  0.68495690  0.25602741  1
  O  O113  1  0.16167652  0.47548156  0.25610865  1
  O  O114  1  0.31524906  0.48890811  0.76180226  1
  O  O115  1  0.17601428  0.68947443  0.76228235  1
  O  O116  1  0.51211367  0.82371007  0.76171480  1
