# generated using pymatgen
data_Na30Nb4Zn20Si9(S3O16)9
_symmetry_space_group_name_H-M   'P 1'
_cell_length_a   17.90629078
_cell_length_b   9.03431062
_cell_length_c   22.41411933
_cell_angle_alpha   89.93235196
_cell_angle_beta   89.39142045
_cell_angle_gamma   120.27715324
_symmetry_Int_Tables_number   1
_chemical_formula_structural   Na30Nb4Zn20Si9(S3O16)9
_chemical_formula_sum   'Na30 Nb4 Zn20 Si9 S27 O144'
_cell_volume   3131.09574391
_cell_formula_units_Z   1
loop_
 _symmetry_equiv_pos_site_id
 _symmetry_equiv_pos_as_xyz
  1  'x, y, z'
loop_
 _atom_site_type_symbol
 _atom_site_label
 _atom_site_symmetry_multiplicity
 _atom_site_fract_x
 _atom_site_fract_y
 _atom_site_fract_z
 _atom_site_occupancy
  Na  Na0  1  0.81156326  0.00463762  0.24283643  1
  Na  Na1  1  0.00225896  0.63073607  0.24465060  1
  Na  Na2  1  0.50101737  0.62837278  0.24371154  1
  Na  Na3  1  0.00100073  0.37411102  0.74265308  1
  Na  Na4  1  0.50100678  0.37429322  0.74348338  1
  Na  Na5  1  0.18383145  0.00865969  0.75253703  1
  Na  Na6  1  0.65616993  0.34978899  0.58116540  1
  Na  Na7  1  0.65876987  0.95918818  0.08407976  1
  Na  Na8  1  0.83117457  0.68999679  0.07638802  1
  Na  Na9  1  0.01233581  0.33832257  0.08142610  1
  Na  Na10  1  0.48022115  0.66138067  0.92281621  1
  Na  Na11  1  0.84898593  0.03474019  0.92262903  1
  Na  Na12  1  0.16613106  0.29650749  0.91234134  1
  Na  Na13  1  0.66608116  0.29861000  0.91100641  1
  Na  Na14  1  0.47991239  0.29797214  0.42205810  1
  Na  Na15  1  0.98333138  0.30185423  0.42390516  1
  Na  Na16  1  0.16633735  0.03520312  0.41184465  1
  Na  Na17  1  0.66521180  0.03457677  0.41139249  1
  Na  Na18  1  0.99215229  0.98941411  0.49733766  1
  Na  Na19  1  0.48320135  0.97321178  0.49612419  1
  Na  Na20  1  0.00077883  0.97765938  0.99504152  1
  Na  Na21  1  0.48333929  0.99385284  0.99674564  1
  Na  Na22  1  0.32834892  0.33429884  0.83074927  1
  Na  Na23  1  0.82744739  0.34316588  0.82717071  1
  Na  Na24  1  0.32032370  0.32203686  0.32725601  1
  Na  Na25  1  0.82285499  0.33739638  0.32982252  1
  Na  Na26  1  0.17290123  0.69017612  0.16553062  1
  Na  Na27  1  0.65963127  0.66047054  0.16297232  1
  Na  Na28  1  0.16518303  0.64604940  0.66078079  1
  Na  Na29  1  0.66743200  0.67001467  0.66620666  1
  Nb  Nb30  1  0.00425172  0.02021844  0.64599599  1
  Nb  Nb31  1  0.50134948  0.01029381  0.64704771  1
  Nb  Nb32  1  0.00716078  0.99539484  0.14601410  1
  Nb  Nb33  1  0.49866084  0.98713193  0.14858778  1
  Zn  Zn34  1  0.00743784  0.00238538  0.34579508  1
  Zn  Zn35  1  0.50110905  0.00109284  0.34518936  1
  Zn  Zn36  1  0.00627342  0.99852222  0.84546950  1
  Zn  Zn37  1  0.50450421  0.00658310  0.84385968  1
  Zn  Zn38  1  0.33367986  0.34810087  0.67930210  1
  Zn  Zn39  1  0.83157405  0.33709485  0.68198457  1
  Zn  Zn40  1  0.33036855  0.32042145  0.18202591  1
  Zn  Zn41  1  0.82995656  0.31735896  0.17845558  1
  Zn  Zn42  1  0.33880085  0.33245315  0.99210286  1
  Zn  Zn43  1  0.84957211  0.34641384  0.99376776  1
  Zn  Zn44  1  0.33787391  0.34117061  0.49259202  1
  Zn  Zn45  1  0.84230661  0.34550907  0.49165233  1
  Zn  Zn46  1  0.16635343  0.68367612  0.01770449  1
  Zn  Zn47  1  0.66051540  0.66806169  0.02116528  1
  Zn  Zn48  1  0.16091353  0.65114237  0.51975930  1
  Zn  Zn49  1  0.66046620  0.66074638  0.51820925  1
  Zn  Zn50  1  0.17112621  0.68572582  0.31359852  1
  Zn  Zn51  1  0.66562992  0.67176484  0.31456422  1
  Zn  Zn52  1  0.16924006  0.65378198  0.81486836  1
  Zn  Zn53  1  0.67004022  0.65256889  0.81113564  1
  Si  Si54  1  0.15616568  0.00660102  0.25454396  1
  Si  Si55  1  0.65182414  0.00731521  0.25470310  1
  Si  Si56  1  0.15462382  0.30467209  0.75322079  1
  Si  Si57  1  0.65459528  0.30144879  0.75312398  1
  Si  Si58  1  0.48009777  0.34536620  0.58411673  1
  Si  Si59  1  0.98024965  0.34843811  0.58424831  1
  Si  Si60  1  0.47615945  0.61160554  0.08462338  1
  Si  Si61  1  0.98137554  0.61985664  0.08598642  1
  Si  Si62  1  0.83284064  0.03157736  0.08257529  1
  S  S63  1  0.35140257  0.70612954  0.25301315  1
  S  S64  1  0.85359540  0.70862630  0.25141110  1
  S  S65  1  0.00241116  0.29281440  0.25258761  1
  S  S66  1  0.50078773  0.29232709  0.25261824  1
  S  S67  1  0.99948637  0.70948982  0.75127916  1
  S  S68  1  0.50011736  0.70911910  0.75266313  1
  S  S69  1  0.35257154  0.99558758  0.75195920  1
  S  S70  1  0.85339861  0.99650223  0.75291537  1
  S  S71  1  0.18572664  0.03507359  0.58339315  1
  S  S72  1  0.68631692  0.03607325  0.58227938  1
  S  S73  1  0.33302678  0.63111464  0.58342709  1
  S  S74  1  0.83487761  0.63317778  0.58301824  1
  S  S75  1  0.33330524  0.03607562  0.08371470  1
  S  S76  1  0.18918614  0.33919175  0.08222177  1
  S  S77  1  0.68364119  0.32973457  0.08231704  1
  S  S78  1  0.31348343  0.66926743  0.91668259  1
  S  S79  1  0.81435897  0.66610136  0.91653357  1
  S  S80  1  0.01783239  0.37130624  0.91594943  1
  S  S81  1  0.51860364  0.37168915  0.91635003  1
  S  S82  1  0.16818090  0.96401089  0.91518591  1
  S  S83  1  0.66587180  0.95920583  0.91545082  1
  S  S84  1  0.31318036  0.95752824  0.41718972  1
  S  S85  1  0.81332201  0.95792264  0.41557533  1
  S  S86  1  0.16846963  0.37663278  0.41613492  1
  S  S87  1  0.66832402  0.37508592  0.41738647  1
  S  S88  1  0.01768283  0.66552541  0.41606393  1
  S  S89  1  0.51722206  0.66530028  0.41632537  1
  O  O90  1  0.11315311  0.02781841  0.31528588  1
  O  O91  1  0.60661336  0.02359096  0.31471855  1
  O  O92  1  0.40505765  0.79259388  0.30496916  1
  O  O93  1  0.90728120  0.79456021  0.30355464  1
  O  O94  1  0.48959007  0.19532425  0.30862109  1
  O  O95  1  0.98752385  0.18494870  0.30647423  1
  O  O96  1  0.11231298  0.18508452  0.81213495  1
  O  O97  1  0.61060000  0.19363935  0.81370946  1
  O  O98  1  0.48817394  0.78346289  0.80848874  1
  O  O99  1  0.98587473  0.78397998  0.80583256  1
  O  O100  1  0.40493683  0.01614121  0.80467804  1
  O  O101  1  0.90452418  0.01681199  0.80728875  1
  O  O102  1  0.39692043  0.97432583  0.69663104  1
  O  O103  1  0.90035815  0.97600910  0.69857938  1
  O  O104  1  0.08430049  0.18757603  0.69638656  1
  O  O105  1  0.58368672  0.18287991  0.69549735  1
  O  O106  1  0.00836734  0.81833661  0.69754935  1
  O  O107  1  0.50516175  0.81726950  0.69944329  1
  O  O108  1  0.39789696  0.81997433  0.19715215  1
  O  O109  1  0.89680630  0.81979974  0.19502844  1
  O  O110  1  0.00777692  0.20180572  0.19731261  1
  O  O111  1  0.50658454  0.19484502  0.19949870  1
  O  O112  1  0.08485806  0.98505858  0.19853663  1
  O  O113  1  0.58386383  0.98226534  0.19605176  1
  O  O114  1  0.43630953  0.35777073  0.64551487  1
  O  O115  1  0.93430781  0.35617030  0.64533852  1
  O  O116  1  0.23402795  0.11644347  0.63783184  1
  O  O117  1  0.73602116  0.11909846  0.63516197  1
  O  O118  1  0.31832681  0.52766158  0.63744474  1
  O  O119  1  0.81682649  0.52158290  0.63554480  1
  O  O120  1  0.43287992  0.51205742  0.14583030  1
  O  O121  1  0.93914641  0.51351552  0.14709404  1
  O  O122  1  0.31909779  0.11125548  0.13690400  1
  O  O123  1  0.80952369  0.10559167  0.14083957  1
  O  O124  1  0.23901868  0.35688046  0.13443840  1
  O  O125  1  0.73711219  0.35744400  0.13495756  1
  O  O126  1  0.22027607  0.30025156  0.02608515  1
  O  O127  1  0.71708107  0.28953663  0.02739482  1
  O  O128  1  0.42471418  0.55360571  0.02247843  1
  O  O129  1  0.91598004  0.56352420  0.03016092  1
  O  O130  1  0.34989876  0.13806509  0.02831930  1
  O  O131  1  0.85614410  0.14924604  0.02236733  1
  O  O132  1  0.21978023  0.14243247  0.52871695  1
  O  O133  1  0.71850441  0.14446588  0.52721880  1
  O  O134  1  0.35040322  0.56043617  0.52911901  1
  O  O135  1  0.84984386  0.56077004  0.52795272  1
  O  O136  1  0.42770316  0.30163093  0.52245912  1
  O  O137  1  0.92694761  0.29730077  0.52246037  1
  O  O138  1  0.27190918  0.68769916  0.97117091  1
  O  O139  1  0.77515734  0.69119525  0.97209641  1
  O  O140  1  0.07050427  0.45187519  0.96980886  1
  O  O141  1  0.57519864  0.45769992  0.96806229  1
  O  O142  1  0.15869168  0.85975583  0.96830073  1
  O  O143  1  0.65584027  0.86225649  0.97185535  1
  O  O144  1  0.27243422  0.85533648  0.47153465  1
  O  O145  1  0.77004561  0.85247481  0.46904715  1
  O  O146  1  0.15641871  0.45763604  0.46987805  1
  O  O147  1  0.65815662  0.45418406  0.47309114  1
  O  O148  1  0.07391855  0.69282783  0.46777334  1
  O  O149  1  0.57440521  0.69375895  0.46785314  1
  O  O150  1  0.05598682  0.63853234  0.36014452  1
  O  O151  1  0.55610838  0.63926613  0.36036503  1
  O  O152  1  0.26205289  0.87701459  0.36292945  1
  O  O153  1  0.76341918  0.87858303  0.35992721  1
  O  O154  1  0.17839461  0.47620082  0.36126774  1
  O  O155  1  0.67807620  0.47910047  0.36378746  1
  O  O156  1  0.06006295  0.47119968  0.86077604  1
  O  O157  1  0.55691100  0.47479032  0.86031220  1
  O  O158  1  0.17766764  0.88685953  0.85890455  1
  O  O159  1  0.67745558  0.87235232  0.86329892  1
  O  O160  1  0.26210808  0.64850132  0.86257499  1
  O  O161  1  0.75949658  0.64370448  0.86398651  1
  O  O162  1  0.00876493  0.82169611  0.41272115  1
  O  O163  1  0.50924349  0.82201520  0.41306876  1
  O  O164  1  0.40399395  0.98716921  0.41190913  1
  O  O165  1  0.90351173  0.98719169  0.41144031  1
  O  O166  1  0.08607399  0.20007372  0.41448639  1
  O  O167  1  0.58627105  0.20058747  0.41526962  1
  O  O168  1  0.00819123  0.19455044  0.91327174  1
  O  O169  1  0.51025880  0.19829173  0.91313095  1
  O  O170  1  0.08874905  0.98252243  0.91444127  1
  O  O171  1  0.58458530  0.97118959  0.91302515  1
  O  O172  1  0.40361390  0.82084575  0.91181071  1
  O  O173  1  0.90147075  0.82675280  0.91046121  1
  O  O174  1  0.49094743  0.16076065  0.59386496  1
  O  O175  1  0.98891037  0.16197883  0.59417382  1
  O  O176  1  0.09374359  0.01226923  0.59087111  1
  O  O177  1  0.59469777  0.01616654  0.59014079  1
  O  O178  1  0.41583685  0.80629347  0.59167433  1
  O  O179  1  0.91520860  0.80660361  0.59132338  1
  O  O180  1  0.48915821  0.82045476  0.09415057  1
  O  O181  1  0.99408701  0.81907965  0.09488357  1
  O  O182  1  0.41553289  0.02459696  0.09152655  1
  O  O183  1  0.92406112  0.02369053  0.09405691  1
  O  O184  1  0.09632950  0.17979570  0.09007820  1
  O  O185  1  0.59393140  0.16949812  0.09137260  1
  O  O186  1  0.34661211  0.15260494  0.74612628  1
  O  O187  1  0.84960773  0.15477219  0.74660427  1
  O  O188  1  0.24467049  0.30678000  0.74154338  1
  O  O189  1  0.74680182  0.31737864  0.74140641  1
  O  O190  1  0.42458444  0.53322096  0.74827264  1
  O  O191  1  0.92668261  0.53258877  0.74677115  1
  O  O192  1  0.34847413  0.54233755  0.24600241  1
  O  O193  1  0.84705695  0.54078162  0.24518830  1
  O  O194  1  0.42615249  0.31846839  0.24800446  1
  O  O195  1  0.92501154  0.31352126  0.24915588  1
  O  O196  1  0.24765126  0.17614781  0.24267224  1
  O  O197  1  0.74694891  0.17362283  0.24617891  1
  O  O198  1  0.32021573  0.50894134  0.91911633  1
  O  O199  1  0.82014130  0.50738786  0.92005166  1
  O  O200  1  0.43142214  0.35607068  0.92201006  1
  O  O201  1  0.92931029  0.34915447  0.91851498  1
  O  O202  1  0.24537170  0.14246060  0.91988591  1
  O  O203  1  0.74286689  0.13684880  0.91827199  1
  O  O204  1  0.32034739  0.13189569  0.42004949  1
  O  O205  1  0.81916953  0.13089772  0.41878075  1
  O  O206  1  0.24360339  0.34703559  0.42130180  1
  O  O207  1  0.74372923  0.34661792  0.42098453  1
  O  O208  1  0.43084966  0.50685834  0.42228127  1
  O  O209  1  0.93028909  0.50640930  0.42153454  1
  O  O210  1  0.17339167  0.48369774  0.07630926  1
  O  O211  1  0.67273573  0.47971882  0.07564808  1
  O  O212  1  0.07518122  0.63643909  0.07777431  1
  O  O213  1  0.57694594  0.66494509  0.08107244  1
  O  O214  1  0.26044036  0.85846852  0.07767463  1
  O  O215  1  0.75470659  0.83469013  0.07645532  1
  O  O216  1  0.17439482  0.86416558  0.57710453  1
  O  O217  1  0.67396390  0.86410883  0.57577277  1
  O  O218  1  0.26125102  0.66421979  0.57707473  1
  O  O219  1  0.75922088  0.65798198  0.57679533  1
  O  O220  1  0.07894537  0.50282482  0.58071726  1
  O  O221  1  0.58171924  0.49389444  0.58028031  1
  O  O222  1  0.14992720  0.81955887  0.25090636  1
  O  O223  1  0.65371841  0.82596718  0.25121947  1
  O  O224  1  0.26623414  0.69135381  0.25311158  1
  O  O225  1  0.76816146  0.69766429  0.25360217  1
  O  O226  1  0.08171875  0.46269836  0.25404050  1
  O  O227  1  0.58219716  0.46314625  0.25222215  1
  O  O228  1  0.15028136  0.48002570  0.75179033  1
  O  O229  1  0.64841034  0.47652201  0.74908955  1
  O  O230  1  0.08282757  0.70702022  0.75289705  1
  O  O231  1  0.58083693  0.70050325  0.75225370  1
  O  O232  1  0.26468232  0.84386585  0.75331530  1
  O  O233  1  0.76714790  0.84155910  0.75357615  1
