# generated using pymatgen
data_NaNbZnP2SO12
_symmetry_space_group_name_H-M   'P 1'
_cell_length_a   8.75425756
_cell_length_b   8.75425727
_cell_length_c   22.71304238
_cell_angle_alpha   89.90647654
_cell_angle_beta   90.09352345
_cell_angle_gamma   119.80871298
_symmetry_Int_Tables_number   1
_chemical_formula_structural   NaNbZnP2SO12
_chemical_formula_sum   'Na6 Nb6 Zn6 P12 S6 O72'
_cell_volume   1510.35031315
_cell_formula_units_Z   6
loop_
 _symmetry_equiv_pos_site_id
 _symmetry_equiv_pos_as_xyz
  1  'x, y, z'
loop_
 _atom_site_type_symbol
 _atom_site_label
 _atom_site_symmetry_multiplicity
 _atom_site_fract_x
 _atom_site_fract_y
 _atom_site_fract_z
 _atom_site_occupancy
  Na  Na0  1  0.99365892  0.98992987  0.49272733  1
  Na  Na1  1  0.01007013  0.00634108  0.99272733  1
  Na  Na2  1  0.66032592  0.32326287  0.82606033  1
  Na  Na3  1  0.67673713  0.33967408  0.32606033  1
  Na  Na4  1  0.32699192  0.65659687  0.15939433  1
  Na  Na5  1  0.34340313  0.67300808  0.65939433  1
  Nb  Nb6  1  0.99842119  0.00257205  0.64558486  1
  Nb  Nb7  1  0.99742795  0.00157881  0.14558486  1
  Nb  Nb8  1  0.66508819  0.33590505  0.97891786  1
  Nb  Nb9  1  0.66409495  0.33491181  0.47891786  1
  Nb  Nb10  1  0.33175419  0.66923905  0.31225186  1
  Nb  Nb11  1  0.33076095  0.66824581  0.81225186  1
  Zn  Zn12  1  0.98324479  0.99072515  0.35158936  1
  Zn  Zn13  1  0.00927485  0.01675521  0.85158936  1
  Zn  Zn14  1  0.64991179  0.32405815  0.68492236  1
  Zn  Zn15  1  0.67594185  0.35008821  0.18492236  1
  Zn  Zn16  1  0.31657779  0.65739215  0.01825636  1
  Zn  Zn17  1  0.34260785  0.68342221  0.51825636  1
  P  P18  1  0.71076729  0.70631058  0.25202697  1
  P  P19  1  0.99401125  0.28681817  0.25249424  1
  P  P20  1  0.29368942  0.28923271  0.75202697  1
  P  P21  1  0.71318183  0.00598875  0.75249424  1
  P  P22  1  0.37743429  0.03964358  0.58535997  1
  P  P23  1  0.66067825  0.62015117  0.58582724  1
  P  P24  1  0.96035642  0.62256571  0.08535997  1
  P  P25  1  0.37984883  0.33932175  0.08582724  1
  P  P26  1  0.04410029  0.37297758  0.91869397  1
  P  P27  1  0.32734425  0.95348517  0.91916124  1
  P  P28  1  0.62702242  0.95589971  0.41869397  1
  P  P29  1  0.04651483  0.67265575  0.41916124  1
  S  S30  1  0.29134850  0.00469533  0.25127038  1
  S  S31  1  0.99530467  0.70865150  0.75127038  1
  S  S32  1  0.95801550  0.33802833  0.58460338  1
  S  S33  1  0.66197167  0.04198450  0.08460338  1
  S  S34  1  0.62468150  0.67136233  0.91793738  1
  S  S35  1  0.32863767  0.37531850  0.41793738  1
  O  O36  1  0.21117599  0.02544491  0.30385305  1
  O  O37  1  0.81929277  0.78866704  0.30559389  1
  O  O38  1  0.97992301  0.18275666  0.30648054  1
  O  O39  1  0.21133296  0.18070723  0.80559389  1
  O  O40  1  0.97455509  0.78882401  0.80385305  1
  O  O41  1  0.81724334  0.02007699  0.80648054  1
  O  O42  1  0.80099506  0.97175502  0.69553295  1
  O  O43  1  0.17122997  0.19838795  0.69567285  1
  O  O44  1  0.02892647  0.82218246  0.69699011  1
  O  O45  1  0.80161205  0.82877003  0.19567285  1
  O  O46  1  0.02824498  0.19900494  0.19553295  1
  O  O47  1  0.17781754  0.97107353  0.19699011  1
  O  O48  1  0.87784299  0.35877791  0.63718605  1
  O  O49  1  0.48595977  0.12200004  0.63892689  1
  O  O50  1  0.64659001  0.51608966  0.63981354  1
  O  O51  1  0.87799996  0.51404023  0.13892689  1
  O  O52  1  0.64122209  0.12215701  0.13718605  1
  O  O53  1  0.48391034  0.35340999  0.13981354  1
  O  O54  1  0.46766206  0.30508802  0.02886595  1
  O  O55  1  0.83789697  0.53172095  0.02900585  1
  O  O56  1  0.69559347  0.15551546  0.03032311  1
  O  O57  1  0.46827905  0.16210303  0.52900585  1
  O  O58  1  0.69491198  0.53233794  0.52886595  1
  O  O59  1  0.84448454  0.30440653  0.53032311  1
  O  O60  1  0.54450899  0.69211191  0.97052005  1
  O  O61  1  0.15262577  0.45533404  0.97226089  1
  O  O62  1  0.31325601  0.84942366  0.97314754  1
  O  O63  1  0.54466596  0.84737423  0.47226089  1
  O  O64  1  0.30788809  0.45549101  0.47052005  1
  O  O65  1  0.15057634  0.68674399  0.47314754  1
  O  O66  1  0.13432806  0.63842202  0.36219995  1
  O  O67  1  0.50456297  0.86505495  0.36233985  1
  O  O68  1  0.36225947  0.48884946  0.36365711  1
  O  O69  1  0.13494505  0.49543703  0.86233985  1
  O  O70  1  0.36157798  0.86567194  0.86219995  1
  O  O71  1  0.51115054  0.63774053  0.86365711  1
  O  O72  1  0.02153781  0.82930138  0.40969674  1
  O  O73  1  0.81286931  0.99111826  0.41089353  1
  O  O74  1  0.18317813  0.19825270  0.40922793  1
  O  O75  1  0.00888174  0.18713069  0.91089353  1
  O  O76  1  0.17069862  0.97846219  0.90969674  1
  O  O77  1  0.80174730  0.81682187  0.90922793  1
  O  O78  1  0.96762407  0.16750405  0.58826146  1
  O  O79  1  0.19169515  0.03219618  0.59090604  1
  O  O80  1  0.83676517  0.80804710  0.59119777  1
  O  O81  1  0.96780382  0.80830485  0.09090604  1
  O  O82  1  0.83249595  0.03237593  0.08826146  1
  O  O83  1  0.19195290  0.16323483  0.09119777  1
  O  O84  1  0.68820481  0.16263438  0.74302974  1
  O  O85  1  0.47953631  0.32445126  0.74422653  1
  O  O86  1  0.84984513  0.53158570  0.74256093  1
  O  O87  1  0.67554874  0.52046369  0.24422653  1
  O  O88  1  0.83736562  0.31179519  0.24302974  1
  O  O89  1  0.46841430  0.15015487  0.24256093  1
  O  O90  1  0.63429107  0.50083705  0.92159446  1
  O  O91  1  0.85836215  0.36552918  0.92423904  1
  O  O92  1  0.50343217  0.14138010  0.92453077  1
  O  O93  1  0.63447082  0.14163785  0.42423904  1
  O  O94  1  0.49916295  0.36570893  0.42159446  1
  O  O95  1  0.85861990  0.49656783  0.42453077  1
  O  O96  1  0.35487081  0.49596838  0.07636374  1
  O  O97  1  0.14620231  0.65778526  0.07756053  1
  O  O98  1  0.51651113  0.86491970  0.07589493  1
  O  O99  1  0.34221474  0.85379769  0.57756053  1
  O  O100  1  0.50403162  0.64512919  0.57636374  1
  O  O101  1  0.13508030  0.48348887  0.57589493  1
  O  O102  1  0.30095707  0.83417105  0.25492846  1
  O  O103  1  0.52502815  0.69886318  0.25757304  1
  O  O104  1  0.17009817  0.47471410  0.25786477  1
  O  O105  1  0.30113682  0.47497185  0.75757304  1
  O  O106  1  0.16582895  0.69904293  0.75492846  1
  O  O107  1  0.52528590  0.82990183  0.75786477  1
