# generated using pymatgen
data_Ta3In(PO4)6
_symmetry_space_group_name_H-M   'P 1'
_cell_length_a   8.81131541
_cell_length_b   8.81131512
_cell_length_c   22.71464126
_cell_angle_alpha   90.00000000
_cell_angle_beta   90.00000000
_cell_angle_gamma   120.00000106
_symmetry_Int_Tables_number   1
_chemical_formula_structural   Ta3In(PO4)6
_chemical_formula_sum   'Ta9 In3 P18 O72'
_cell_volume   1527.27762716
_cell_formula_units_Z   3
loop_
 _symmetry_equiv_pos_site_id
 _symmetry_equiv_pos_as_xyz
  1  'x, y, z'
loop_
 _atom_site_type_symbol
 _atom_site_label
 _atom_site_symmetry_multiplicity
 _atom_site_fract_x
 _atom_site_fract_y
 _atom_site_fract_z
 _atom_site_occupancy
  Ta  Ta0  1  -0.00000000  -0.00000000  0.85644044  1
  Ta  Ta1  1  -0.00000000  -0.00000000  0.64035720  1
  Ta  Ta2  1  -0.00000000  -0.00000000  0.14755567  1
  Ta  Ta3  1  0.66666700  0.33333300  0.97856595  1
  Ta  Ta4  1  0.66666700  0.33333300  0.47467401  1
  Ta  Ta5  1  0.33333300  0.66666700  0.02335967  1
  Ta  Ta6  1  0.33333300  0.66666700  0.52114315  1
  Ta  Ta7  1  0.33333300  0.66666700  0.30744422  1
  Ta  Ta8  1  0.33333300  0.66666700  0.80785705  1
  In  In9  1  -0.00000000  -0.00000000  0.35819349  1
  In  In10  1  0.66666700  0.33333300  0.68877034  1
  In  In11  1  0.66666700  0.33333300  0.18790975  1
  P  P12  1  0.28745439  0.00005532  0.25158071  1
  P  P13  1  0.71260093  0.71254561  0.25158071  1
  P  P14  1  -0.00005532  0.28739907  0.25158071  1
  P  P15  1  0.28207722  0.28227471  0.75004391  1
  P  P16  1  0.00019750  0.71792278  0.75004391  1
  P  P17  1  0.71772529  -0.00019750  0.75004391  1
  P  P18  1  0.95390394  0.33562124  0.58270887  1
  P  P19  1  0.38171831  0.04609606  0.58270887  1
  P  P20  1  0.66437876  0.61828169  0.58270887  1
  P  P21  1  0.95410477  0.62384352  0.08300923  1
  P  P22  1  0.66973975  0.04589523  0.08300923  1
  P  P23  1  0.37615648  0.33026025  0.08300923  1
  P  P24  1  0.61631021  0.66532911  0.91623860  1
  P  P25  1  0.04901790  0.38368979  0.91623860  1
  P  P26  1  0.33467089  0.95098210  0.91623860  1
  P  P27  1  0.61568282  0.95036603  0.41639806  1
  P  P28  1  0.33468220  0.38431718  0.41639806  1
  P  P29  1  0.04963397  0.66531780  0.41639806  1
  O  O30  1  0.20798370  0.02787783  0.30591535  1
  O  O31  1  0.81989413  0.79201630  0.30591535  1
  O  O32  1  0.97212217  0.18010587  0.30591535  1
  O  O33  1  0.18632822  0.16980174  0.80549885  1
  O  O34  1  0.98347352  0.81367178  0.80549885  1
  O  O35  1  0.83019826  0.01652648  0.80549885  1
  O  O36  1  0.80235007  0.96621351  0.69574338  1
  O  O37  1  0.16386344  0.19764993  0.69574338  1
  O  O38  1  0.03378649  0.83613656  0.69574338  1
  O  O39  1  0.80214912  0.83534352  0.19510334  1
  O  O40  1  0.03319440  0.19785088  0.19510334  1
  O  O41  1  0.16465648  0.96680560  0.19510334  1
  O  O42  1  0.88839941  0.37521752  0.63904072  1
  O  O43  1  0.48681911  0.11160059  0.63904072  1
  O  O44  1  0.62478248  0.51318089  0.63904072  1
  O  O45  1  0.88774621  0.51068173  0.13634348  1
  O  O46  1  0.62293652  0.11225379  0.13634348  1
  O  O47  1  0.48931827  0.37706348  0.13634348  1
  O  O48  1  0.46908303  0.30483211  0.02737300  1
  O  O49  1  0.83575007  0.53091697  0.02737300  1
  O  O50  1  0.69516789  0.16424993  0.02737300  1
  O  O51  1  0.46713596  0.16550606  0.52881769  1
  O  O52  1  0.69837110  0.53286404  0.52881769  1
  O  O53  1  0.83449394  0.30162890  0.52881769  1
  O  O54  1  0.53132695  0.69612147  0.97037471  1
  O  O55  1  0.16479352  0.46867305  0.97037471  1
  O  O56  1  0.30387853  0.83520648  0.97037471  1
  O  O57  1  0.52038999  0.83799924  0.47134749  1
  O  O58  1  0.31760825  0.47961001  0.47134749  1
  O  O59  1  0.16200076  0.68239175  0.47134749  1
  O  O60  1  0.13465122  0.63169421  0.36219623  1
  O  O61  1  0.49704199  0.86534878  0.36219623  1
  O  O62  1  0.36830579  0.50295801  0.36219623  1
  O  O63  1  0.13602429  0.50000853  0.86180073  1
  O  O64  1  0.36398325  0.86397571  0.86180073  1
  O  O65  1  0.49999147  0.63601675  0.86180073  1
  O  O66  1  0.02700477  0.82230266  0.41379158  1
  O  O67  1  0.79529790  0.97299523  0.41379158  1
  O  O68  1  0.17769733  0.20470210  0.41379158  1
  O  O69  1  0.02633039  0.19967799  0.90587889  1
  O  O70  1  0.17334760  0.97366961  0.90587889  1
  O  O71  1  0.80032201  0.82665240  0.90587889  1
  O  O72  1  0.97466688  0.16950466  0.59259123  1
  O  O73  1  0.19483778  0.02533312  0.59259123  1
  O  O74  1  0.83049534  0.80516222  0.59259123  1
  O  O75  1  0.97572064  0.80701796  0.09032947  1
  O  O76  1  0.83129732  0.02427936  0.09032947  1
  O  O77  1  0.19298204  0.16870268  0.09032947  1
  O  O78  1  0.69507014  0.15693069  0.74646138  1
  O  O79  1  0.46186156  0.30492986  0.74646138  1
  O  O80  1  0.84306931  0.53813845  0.74646138  1
  O  O81  1  0.68203181  0.53217496  0.24074438  1
  O  O82  1  0.85014414  0.31796819  0.24074438  1
  O  O83  1  0.46782504  0.14985586  0.24074438  1
  O  O84  1  0.63870750  0.50450006  0.92736338  1
  O  O85  1  0.86579355  0.36129250  0.92736338  1
  O  O86  1  0.49549994  0.13420645  0.92736338  1
  O  O87  1  0.62750182  0.13195567  0.42822220  1
  O  O88  1  0.50445485  0.37249818  0.42822220  1
  O  O89  1  0.86804433  0.49554515  0.42822220  1
  O  O90  1  0.35096845  0.49008482  0.06755963  1
  O  O91  1  0.13911537  0.64903155  0.06755963  1
  O  O92  1  0.50991518  0.86088463  0.06755963  1
  O  O93  1  0.34873777  0.86029949  0.56960622  1
  O  O94  1  0.51156072  0.65126223  0.56960622  1
  O  O95  1  0.13970051  0.48843928  0.56960622  1
  O  O96  1  0.29631602  0.82652735  0.25870295  1
  O  O97  1  0.53021033  0.70368398  0.25870295  1
  O  O98  1  0.17347265  0.46978967  0.25870295  1
  O  O99  1  0.29422746  0.46426952  0.76179068  1
  O  O100  1  0.17004106  0.70577254  0.76179068  1
  O  O101  1  0.53573048  0.82995894  0.76179068  1
