# generated using pymatgen
data_Na3HfTa(SiO4)3
_symmetry_space_group_name_H-M   'P 1'
_cell_length_a   9.10858867
_cell_length_b   9.11075894
_cell_length_c   22.65992993
_cell_angle_alpha   90.00000000
_cell_angle_beta   90.10198866
_cell_angle_gamma   120.00788444
_symmetry_Int_Tables_number   1
_chemical_formula_structural   Na3HfTa(SiO4)3
_chemical_formula_sum   'Na18 Hf6 Ta6 Si18 O72'
_cell_volume   1628.39369950
_cell_formula_units_Z   6
loop_
 _symmetry_equiv_pos_site_id
 _symmetry_equiv_pos_as_xyz
  1  'x, y, z'
loop_
 _atom_site_type_symbol
 _atom_site_label
 _atom_site_symmetry_multiplicity
 _atom_site_fract_x
 _atom_site_fract_y
 _atom_site_fract_z
 _atom_site_occupancy
  Na  Na0  1  0.99172995  0.98176578  0.49789480  1
  Na  Na1  1  0.99172995  0.00996417  0.99789480  1
  Na  Na2  1  0.66647020  0.33457880  0.83123218  1
  Na  Na3  1  0.66647020  0.33189041  0.33123218  1
  Na  Na4  1  0.33144699  0.66531888  0.16459873  1
  Na  Na5  1  0.33144699  0.66612911  0.66459873  1
  Na  Na6  1  0.36791638  0.36424828  0.24950160  1
  Na  Na7  1  0.99322786  0.63212351  0.24899359  1
  Na  Na8  1  0.99322786  0.36110436  0.74899359  1
  Na  Na9  1  0.36791638  0.00366810  0.74950160  1
  Na  Na10  1  0.30430850  0.33978126  0.58267061  1
  Na  Na11  1  0.66335094  0.96655420  0.58228418  1
  Na  Na12  1  0.30430850  0.96452624  0.08267061  1
  Na  Na13  1  0.66335094  0.69679574  0.08228418  1
  Na  Na14  1  0.97149189  0.67390657  0.91558947  1
  Na  Na15  1  0.32966175  0.29872449  0.91607875  1
  Na  Na16  1  0.97149189  0.29758632  0.41558947  1
  Na  Na17  1  0.32966175  0.03093826  0.41607875  1
  Hf  Hf18  1  0.99446396  0.99589861  0.35321316  1
  Hf  Hf19  1  0.99446396  0.99856535  0.85321316  1
  Hf  Hf20  1  0.66737551  0.33919003  0.68659770  1
  Hf  Hf21  1  0.66737551  0.32818448  0.18659770  1
  Hf  Hf22  1  0.32974520  0.66180060  0.02002022  1
  Hf  Hf23  1  0.32974520  0.66794559  0.52002022  1
  Ta  Ta24  1  0.99892760  0.99612266  0.64624333  1
  Ta  Ta25  1  0.99892760  0.00280494  0.14624333  1
  Ta  Ta26  1  0.66784920  0.32900377  0.97948097  1
  Ta  Ta27  1  0.66784920  0.33884443  0.47948097  1
  Ta  Ta28  1  0.33760064  0.67018716  0.31290013  1
  Ta  Ta29  1  0.33760064  0.66741448  0.81290013  1
  Si  Si30  1  0.29049405  0.99869593  0.25069241  1
  Si  Si31  1  0.70708089  0.71139763  0.24892280  1
  Si  Si32  1  0.00022896  0.29190019  0.25158942  1
  Si  Si33  1  0.29049405  0.29179812  0.75069241  1
  Si  Si34  1  0.00022896  0.70832877  0.75158942  1
  Si  Si35  1  0.70708089  0.99568326  0.74892280  1
  Si  Si36  1  0.95790307  0.33338520  0.58419836  1
  Si  Si37  1  0.37480580  0.04293841  0.58406738  1
  Si  Si38  1  0.67087159  0.62675550  0.58301584  1
  Si  Si39  1  0.95790307  0.62451687  0.08419836  1
  Si  Si40  1  0.67087159  0.04411509  0.08301584  1
  Si  Si41  1  0.37480580  0.33186639  0.08406738  1
  Si  Si42  1  0.62489444  0.66712700  0.91866128  1
  Si  Si43  1  0.04057001  0.37586874  0.91556781  1
  Si  Si44  1  0.33766637  0.95923663  0.91692066  1
  Si  Si45  1  0.62489444  0.95776845  0.41866128  1
  Si  Si46  1  0.33766637  0.37843074  0.41692066  1
  Si  Si47  1  0.04057001  0.66470227  0.41556781  1
  O  O48  1  0.20456726  0.02938865  0.30863681  1
  O  O49  1  0.83209802  0.79982629  0.30440252  1
  O  O50  1  0.97753394  0.18343764  0.31076381  1
  O  O51  1  0.20456726  0.17517860  0.80863681  1
  O  O52  1  0.97753394  0.79409630  0.81076381  1
  O  O53  1  0.83209802  0.03227174  0.80440252  1
  O  O54  1  0.80031643  0.97166064  0.68976560  1
  O  O55  1  0.16515917  0.19865365  0.69222318  1
  O  O56  1  0.02972338  0.83822255  0.69511459  1
  O  O57  1  0.80031643  0.82865579  0.18976560  1
  O  O58  1  0.02972338  0.19150083  0.19511459  1
  O  O59  1  0.16515917  0.96650552  0.19222318  1
  O  O60  1  0.86983625  0.35548321  0.64271732  1
  O  O61  1  0.49101675  0.12890018  0.64215245  1
  O  O62  1  0.63338116  0.50283748  0.63896207  1
  O  O63  1  0.86983625  0.51435205  0.14271732  1
  O  O64  1  0.63338116  0.13054268  0.13896207  1
  O  O65  1  0.49101675  0.36211557  0.14215245  1
  O  O66  1  0.46916552  0.30143841  0.02580062  1
  O  O67  1  0.83295599  0.53076242  0.02585642  1
  O  O68  1  0.69530405  0.16672177  0.02535342  1
  O  O69  1  0.46916552  0.16772610  0.52580062  1
  O  O70  1  0.69530405  0.52858128  0.52535342  1
  O  O71  1  0.83295599  0.30219256  0.52585642  1
  O  O72  1  0.53974514  0.69127648  0.97762889  1
  O  O73  1  0.16373758  0.46736365  0.97154892  1
  O  O74  1  0.30461113  0.84236650  0.97468905  1
  O  O75  1  0.53974514  0.84846966  0.47762889  1
  O  O76  1  0.30461113  0.46224563  0.47468905  1
  O  O77  1  0.16373758  0.69637493  0.47154892  1
  O  O78  1  0.13143228  0.63256257  0.35684496  1
  O  O79  1  0.49485688  0.85865278  0.36190722  1
  O  O80  1  0.36015742  0.49747229  0.35825683  1
  O  O81  1  0.13143228  0.49887072  0.85684496  1
  O  O82  1  0.36015742  0.86268613  0.85825683  1
  O  O83  1  0.49485688  0.63620510  0.86190722  1
  O  O84  1  0.02707431  0.83490986  0.41060487  1
  O  O85  1  0.81653151  0.99196572  0.41210799  1
  O  O86  1  0.17159689  0.18866235  0.41121179  1
  O  O87  1  0.02707431  0.19216445  0.91060487  1
  O  O88  1  0.17159689  0.98293453  0.91121179  1
  O  O89  1  0.81653151  0.82456579  0.91210799  1
  O  O90  1  0.96980422  0.15658769  0.58891735  1
  O  O91  1  0.19003865  0.03595864  0.59002367  1
  O  O92  1  0.83963059  0.81618884  0.58935534  1
  O  O93  1  0.96980422  0.81321652  0.08891735  1
  O  O94  1  0.83963059  0.02344175  0.08935534  1
  O  O95  1  0.19003865  0.15408001  0.09002367  1
  O  O96  1  0.68275099  0.16135685  0.74410540  1
  O  O97  1  0.47364277  0.30484937  0.74439818  1
  O  O98  1  0.84269114  0.51645920  0.74547078  1
  O  O99  1  0.68275099  0.52139314  0.24410540  1
  O  O100  1  0.84269114  0.32623094  0.24547078  1
  O  O101  1  0.47364277  0.16879241  0.24439818  1
  O  O102  1  0.63508521  0.48998072  0.92282468  1
  O  O103  1  0.85697133  0.36980805  0.92282931  1
  O  O104  1  0.50596464  0.15115611  0.92239200  1
  O  O105  1  0.63508521  0.14510349  0.42282468  1
  O  O106  1  0.50596464  0.35480753  0.42239200  1
  O  O107  1  0.85697133  0.48716228  0.42282931  1
  O  O108  1  0.36008778  0.50111032  0.07820883  1
  O  O109  1  0.15053951  0.65952161  0.07865848  1
  O  O110  1  0.50459020  0.85565477  0.07719125  1
  O  O111  1  0.36008778  0.85897846  0.57820883  1
  O  O112  1  0.50459020  0.64893643  0.57719125  1
  O  O113  1  0.15053951  0.49101891  0.57865848  1
  O  O114  1  0.29789847  0.82135503  0.25665473  1
  O  O115  1  0.51669680  0.68978062  0.25623272  1
  O  O116  1  0.17742487  0.47931558  0.25525259  1
  O  O117  1  0.29789847  0.47654444  0.75665473  1
  O  O118  1  0.17742487  0.69811029  0.75525259  1
  O  O119  1  0.51669680  0.82691719  0.75623272  1
