# generated using pymatgen
data_Ta2Bi4O11
_symmetry_space_group_name_H-M   'P 1'
_cell_length_a   6.59081605
_cell_length_b   7.66759566
_cell_length_c   9.91047152
_cell_angle_alpha   101.10094777
_cell_angle_beta   90.24294083
_cell_angle_gamma   89.92176409
_symmetry_Int_Tables_number   1
_chemical_formula_structural   Ta2Bi4O11
_chemical_formula_sum   'Ta4 Bi8 O22'
_cell_volume   491.45740378
_cell_formula_units_Z   2
loop_
 _symmetry_equiv_pos_site_id
 _symmetry_equiv_pos_as_xyz
  1  'x, y, z'
loop_
 _atom_site_type_symbol
 _atom_site_label
 _atom_site_symmetry_multiplicity
 _atom_site_fract_x
 _atom_site_fract_y
 _atom_site_fract_z
 _atom_site_occupancy
  Ta  Ta0  1  0.91321460  0.70334685  0.81225045  1
  Ta  Ta1  1  0.08678540  0.29665315  0.18774955  1
  Ta  Ta2  1  0.90929656  0.20227280  0.80947749  1
  Ta  Ta3  1  0.09070344  0.79772720  0.19052251  1
  Bi  Bi4  1  0.75921364  0.37254062  0.47910144  1
  Bi  Bi5  1  0.24078636  0.62745938  0.52089856  1
  Bi  Bi6  1  0.75198145  0.87195927  0.47878904  1
  Bi  Bi7  1  0.24801855  0.12804073  0.52121096  1
  Bi  Bi8  1  0.43543326  0.95284358  0.81820831  1
  Bi  Bi9  1  0.56456674  0.04715642  0.18179169  1
  Bi  Bi10  1  0.38417030  0.45522581  0.83282487  1
  Bi  Bi11  1  0.61582970  0.54477419  0.16717513  1
  O  O12  1  0.21724482  0.72937344  0.76193339  1
  O  O13  1  0.78275518  0.27062656  0.23806661  1
  O  O14  1  0.62898345  0.65945670  0.83312193  1
  O  O15  1  0.37101655  0.34054330  0.16687807  1
  O  O16  1  0.62828955  0.25719760  0.84885459  1
  O  O17  1  0.37171045  0.74280240  0.15114541  1
  O  O18  1  0.88790993  0.16845364  0.60336274  1
  O  O19  1  0.11209007  0.83154636  0.39663726  1
  O  O20  1  0.21414057  0.14853865  0.76343829  1
  O  O21  1  0.78585943  0.85146135  0.23656171  1
  O  O22  1  0.90821000  0.63762712  0.59831994  1
  O  O23  1  0.09179000  0.36237288  0.40168006  1
  O  O24  1  0.02029455  0.54712997  0.18783425  1
  O  O25  1  0.97970545  0.45287003  0.81216575  1
  O  O26  1  0.99751467  0.78239638  0.99965511  1
  O  O27  1  0.00248533  0.21760362  0.00034489  1
  O  O28  1  0.59104109  0.60789648  0.38325839  1
  O  O29  1  0.40895891  0.39210352  0.61674161  1
  O  O30  1  0.16370204  0.05345138  0.21219831  1
  O  O31  1  0.83629796  0.94654862  0.78780169  1
  O  O32  1  0.54309909  0.09231533  0.39636945  1
  O  O33  1  0.45690091  0.90768467  0.60363055  1
