# generated using pymatgen
data_Na9Mg5NbP6(SO12)3
_symmetry_space_group_name_H-M   'P 1'
_cell_length_a   8.96330816
_cell_length_b   8.96330786
_cell_length_c   22.14061842
_cell_angle_alpha   90.22103142
_cell_angle_beta   89.77896857
_cell_angle_gamma   120.24137801
_symmetry_Int_Tables_number   1
_chemical_formula_structural   Na9Mg5NbP6(SO12)3
_chemical_formula_sum   'Na18 Mg10 Nb2 P12 S6 O72'
_cell_volume   1536.70762849
_cell_formula_units_Z   2
loop_
 _symmetry_equiv_pos_site_id
 _symmetry_equiv_pos_as_xyz
  1  'x, y, z'
loop_
 _atom_site_type_symbol
 _atom_site_label
 _atom_site_symmetry_multiplicity
 _atom_site_fract_x
 _atom_site_fract_y
 _atom_site_fract_z
 _atom_site_occupancy
  Na  Na0  1  0.36175947  0.35212137  0.24913263  1
  Na  Na1  1  0.64787863  0.63824053  0.74913263  1
  Na  Na2  1  0.03180460  0.70046041  0.58595055  1
  Na  Na3  1  0.66596203  0.96739733  0.58551745  1
  Na  Na4  1  0.29953959  0.96819540  0.08595055  1
  Na  Na5  1  0.03260267  0.33403797  0.08551745  1
  Na  Na6  1  0.96357633  0.66961919  0.91309682  1
  Na  Na7  1  0.70375159  0.03275890  0.91278722  1
  Na  Na8  1  0.33044700  0.29512250  0.91173323  1
  Na  Na9  1  0.96724110  0.29624841  0.41278722  1
  Na  Na10  1  0.33038081  0.03642367  0.41309682  1
  Na  Na11  1  0.70487750  0.66955300  0.41173323  1
  Na  Na12  1  0.01198145  0.01317550  0.49724860  1
  Na  Na13  1  0.98682450  0.98801855  0.99724860  1
  Na  Na14  1  0.66616306  0.32231643  0.82679942  1
  Na  Na15  1  0.67768357  0.33383694  0.32679942  1
  Na  Na16  1  0.34729585  0.67898809  0.16584478  1
  Na  Na17  1  0.32101191  0.65270415  0.66584478  1
  Mg  Mg18  1  0.99770054  0.99808943  0.34713773  1
  Mg  Mg19  1  0.00191057  0.00229946  0.84713773  1
  Mg  Mg20  1  0.00831243  0.00871377  0.65760024  1
  Mg  Mg21  1  0.99128623  0.99168757  0.15760024  1
  Mg  Mg22  1  0.66377999  0.32550883  0.68902231  1
  Mg  Mg23  1  0.67449117  0.33622001  0.18902231  1
  Mg  Mg24  1  0.66723723  0.33621561  0.98012467  1
  Mg  Mg25  1  0.66378439  0.33276277  0.48012467  1
  Mg  Mg26  1  0.33897643  0.66824783  0.01395125  1
  Mg  Mg27  1  0.33175217  0.66102357  0.51395125  1
  Nb  Nb28  1  0.33322213  0.67113909  0.31224721  1
  Nb  Nb29  1  0.32886091  0.66677787  0.81224721  1
  P  P30  1  0.29528164  0.00285319  0.24920414  1
  P  P31  1  0.70709854  0.70341012  0.25200741  1
  P  P32  1  0.99585070  0.29216271  0.25050552  1
  P  P33  1  0.29658988  0.29290146  0.75200741  1
  P  P34  1  0.99714681  0.70471836  0.74920414  1
  P  P35  1  0.70783729  0.00414930  0.75050552  1
  P  P36  1  0.62845269  0.66879101  0.91736694  1
  P  P37  1  0.03944429  0.37089399  0.92015043  1
  P  P38  1  0.33111940  0.96006814  0.92011081  1
  P  P39  1  0.62910601  0.96055571  0.42015043  1
  P  P40  1  0.33120899  0.37154731  0.41736694  1
  P  P41  1  0.03993186  0.66888060  0.42011081  1
  S  S42  1  0.96007650  0.33276367  0.58256143  1
  S  S43  1  0.37095676  0.03981067  0.58230550  1
  S  S44  1  0.66568331  0.62831467  0.58327173  1
  S  S45  1  0.96018933  0.62904324  0.08230550  1
  S  S46  1  0.66723633  0.03992350  0.08256143  1
  S  S47  1  0.37168533  0.33431669  0.08327173  1
  O  O48  1  0.21222960  0.02802325  0.30593235  1
  O  O49  1  0.80545911  0.78005987  0.31043984  1
  O  O50  1  0.97972105  0.19080892  0.30776374  1
  O  O51  1  0.21994013  0.19454089  0.81043984  1
  O  O52  1  0.97197675  0.78777040  0.80593235  1
  O  O53  1  0.80919108  0.02027895  0.80776374  1
  O  O54  1  0.77711086  0.95868964  0.69327862  1
  O  O55  1  0.18481245  0.21868789  0.69626429  1
  O  O56  1  0.03278715  0.81170678  0.69134970  1
  O  O57  1  0.78131211  0.81518755  0.19626429  1
  O  O58  1  0.04131036  0.22288914  0.19327862  1
  O  O59  1  0.18829322  0.96721285  0.19134970  1
  O  O60  1  0.87233219  0.35782351  0.63502522  1
  O  O61  1  0.48307687  0.12830124  0.63458643  1
  O  O62  1  0.64822966  0.52673699  0.63788251  1
  O  O63  1  0.87169876  0.51692313  0.13458643  1
  O  O64  1  0.64217649  0.12766781  0.13502522  1
  O  O65  1  0.47326301  0.35177034  0.13788251  1
  O  O66  1  0.45492132  0.31174159  0.02839926  1
  O  O67  1  0.86333908  0.54971619  0.02576130  1
  O  O68  1  0.69228370  0.14288991  0.02642534  1
  O  O69  1  0.45028381  0.13666092  0.52576130  1
  O  O70  1  0.68825841  0.54507868  0.52839926  1
  O  O71  1  0.85711009  0.30771630  0.52642534  1
  O  O72  1  0.54258009  0.70031603  0.97131011  1
  O  O73  1  0.14846549  0.45212254  0.97687664  1
  O  O74  1  0.30162604  0.85065724  0.97675155  1
  O  O75  1  0.54787746  0.85153451  0.47687664  1
  O  O76  1  0.29968397  0.45741991  0.47131011  1
  O  O77  1  0.14934276  0.69837396  0.47675155  1
  O  O78  1  0.13989678  0.64391957  0.36499250  1
  O  O79  1  0.50429524  0.85973107  0.36520190  1
  O  O80  1  0.35759073  0.48852034  0.35981896  1
  O  O81  1  0.14026893  0.49570476  0.86520190  1
  O  O82  1  0.35608043  0.86010322  0.86499250  1
  O  O83  1  0.51147966  0.64240927  0.85981896  1
  O  O84  1  0.02180394  0.82880363  0.41128036  1
  O  O85  1  0.80818801  0.98032060  0.41143413  1
  O  O86  1  0.17171795  0.18994304  0.41024690  1
  O  O87  1  0.01967940  0.19181199  0.91143413  1
  O  O88  1  0.17119637  0.97819606  0.91128036  1
  O  O89  1  0.81005696  0.82828205  0.91024690  1
  O  O90  1  0.97396259  0.17471354  0.58847133  1
  O  O91  1  0.19438116  0.01451204  0.58750196  1
  O  O92  1  0.82573490  0.80496317  0.58643635  1
  O  O93  1  0.98548796  0.80561884  0.08750196  1
  O  O94  1  0.82528646  0.02603741  0.08847133  1
  O  O95  1  0.19503683  0.17426510  0.08643635  1
  O  O96  1  0.67788443  0.15516989  0.74393893  1
  O  O97  1  0.48496695  0.33477690  0.74500531  1
  O  O98  1  0.83740330  0.52367608  0.74320284  1
  O  O99  1  0.66522310  0.51503305  0.24500531  1
  O  O100  1  0.84483011  0.32211557  0.24393893  1
  O  O101  1  0.47632392  0.16259670  0.24320284  1
  O  O102  1  0.63913890  0.50160161  0.92025146  1
  O  O103  1  0.86191855  0.36037646  0.92070819  1
  O  O104  1  0.49896392  0.13804382  0.92102521  1
  O  O105  1  0.63962354  0.13808145  0.42070819  1
  O  O106  1  0.49839839  0.36086110  0.42025146  1
  O  O107  1  0.86195618  0.50103608  0.42102521  1
  O  O108  1  0.34772412  0.48704124  0.07929759  1
  O  O109  1  0.13708963  0.64569056  0.07975148  1
  O  O110  1  0.50776655  0.86626952  0.07828169  1
  O  O111  1  0.35430944  0.86291037  0.57975148  1
  O  O112  1  0.51295876  0.65227588  0.57929759  1
  O  O113  1  0.13373048  0.49223345  0.57828169  1
  O  O114  1  0.31507452  0.83645776  0.25833273  1
  O  O115  1  0.51663673  0.68340591  0.25921696  1
  O  O116  1  0.16966022  0.47958094  0.25854529  1
  O  O117  1  0.31659409  0.48336327  0.75921696  1
  O  O118  1  0.16354224  0.68492548  0.75833273  1
  O  O119  1  0.52041906  0.83033978  0.75854529  1
