# generated using pymatgen
data_Na5La2Nb2Si3(PO8)3
_symmetry_space_group_name_H-M   'P 1'
_cell_length_a   9.35387462
_cell_length_b   9.39494884
_cell_length_c   22.67987324
_cell_angle_alpha   90.56421197
_cell_angle_beta   89.54563713
_cell_angle_gamma   119.11399475
_symmetry_Int_Tables_number   1
_chemical_formula_structural   Na5La2Nb2Si3(PO8)3
_chemical_formula_sum   'Na15 La6 Nb6 Si9 P9 O72'
_cell_volume   1741.17290878
_cell_formula_units_Z   3
loop_
 _symmetry_equiv_pos_site_id
 _symmetry_equiv_pos_as_xyz
  1  'x, y, z'
loop_
 _atom_site_type_symbol
 _atom_site_label
 _atom_site_symmetry_multiplicity
 _atom_site_fract_x
 _atom_site_fract_y
 _atom_site_fract_z
 _atom_site_occupancy
  Na  Na0  1  0.98838045  0.63943839  0.23768547  1
  Na  Na1  1  0.35364132  0.01650164  0.73886331  1
  Na  Na2  1  0.03552722  0.68634232  0.57680656  1
  Na  Na3  1  0.64545339  0.98139070  0.58100302  1
  Na  Na4  1  0.30756878  0.96162940  0.07662951  1
  Na  Na5  1  0.01549725  0.35919550  0.08207517  1
  Na  Na6  1  0.00067420  0.68768956  0.91117541  1
  Na  Na7  1  0.98202108  0.31465121  0.41045019  1
  Na  Na8  1  0.31628516  0.00804193  0.41199043  1
  Na  Na9  1  0.97624587  0.98370074  0.49828709  1
  Na  Na10  1  0.99461723  0.00633826  0.00119455  1
  Na  Na11  1  0.67578743  0.31233613  0.83693664  1
  Na  Na12  1  0.66921667  0.33066455  0.33523527  1
  Na  Na13  1  0.35666829  0.64991708  0.16898661  1
  Na  Na14  1  0.34319054  0.63343541  0.66779025  1
  La  La15  1  0.98504003  0.99511362  0.34747357  1
  La  La16  1  0.99640757  0.01211972  0.85353904  1
  La  La17  1  0.67475687  0.34182362  0.68881398  1
  La  La18  1  0.65939784  0.32471218  0.18657282  1
  La  La19  1  0.34138756  0.66121001  0.01395228  1
  La  La20  1  0.34519345  0.66484951  0.51443174  1
  Nb  Nb21  1  0.99766376  0.99985331  0.64716507  1
  Nb  Nb22  1  0.99995335  0.00222887  0.14901717  1
  Nb  Nb23  1  0.65380226  0.33222808  0.98180242  1
  Nb  Nb24  1  0.66239204  0.33988057  0.48085268  1
  Nb  Nb25  1  0.33360832  0.66416523  0.31680907  1
  Nb  Nb26  1  0.34634454  0.67302981  0.81556234  1
  Si  Si27  1  0.02395229  0.31685137  0.25427796  1
  Si  Si28  1  0.68694510  0.97848023  0.75003650  1
  Si  Si29  1  0.36256680  0.04807316  0.58435650  1
  Si  Si30  1  0.68633777  0.64579437  0.58572882  1
  Si  Si31  1  0.95181048  0.63714305  0.08368005  1
  Si  Si32  1  0.35049245  0.31386536  0.08583871  1
  Si  Si33  1  0.35415179  0.97532505  0.92077404  1
  Si  Si34  1  0.62699202  0.98211073  0.41943733  1
  Si  Si35  1  0.02398880  0.65233123  0.42055491  1
  P  P36  1  0.28526498  0.97158456  0.25197591  1
  P  P37  1  0.69021317  0.71729289  0.24777397  1
  P  P38  1  0.27530861  0.30441783  0.74906430  1
  P  P39  1  0.03116347  0.72004939  0.75207145  1
  P  P40  1  0.95305121  0.31085345  0.57883825  1
  P  P41  1  0.69002113  0.04853388  0.08012883  1
  P  P42  1  0.62480219  0.63784901  0.91419395  1
  P  P43  1  0.02196271  0.38568916  0.91855530  1
  P  P44  1  0.35355319  0.37522732  0.41235382  1
  O  O45  1  0.21528806  0.98535074  0.31090676  1
  O  O46  1  0.78158141  0.77078647  0.30586794  1
  O  O47  1  0.00798175  0.23190237  0.31640208  1
  O  O48  1  0.21644316  0.20820080  0.80541524  1
  O  O49  1  0.01936664  0.79403233  0.80991396  1
  O  O50  1  0.78554347  0.99823708  0.80844848  1
  O  O51  1  0.80019878  0.97005410  0.69126308  1
  O  O52  1  0.15328255  0.19748695  0.69715232  1
  O  O53  1  0.04131888  0.83941231  0.69885318  1
  O  O54  1  0.80245121  0.84187721  0.19764388  1
  O  O55  1  0.02700769  0.19068914  0.19790801  1
  O  O56  1  0.16213100  0.95951913  0.19986837  1
  O  O57  1  0.87809618  0.33393483  0.63500876  1
  O  O58  1  0.47308288  0.11277169  0.64206246  1
  O  O59  1  0.67496564  0.54781007  0.64327406  1
  O  O60  1  0.89061724  0.52607007  0.14150174  1
  O  O61  1  0.66177888  0.11201595  0.13811929  1
  O  O62  1  0.45260905  0.33397361  0.14320644  1
  O  O63  1  0.46679153  0.29969106  0.02799924  1
  O  O64  1  0.82126320  0.52399932  0.02742024  1
  O  O65  1  0.70477111  0.17242421  0.02932931  1
  O  O66  1  0.47617772  0.17812729  0.52766537  1
  O  O67  1  0.69761432  0.52990589  0.52777917  1
  O  O68  1  0.83635957  0.29783919  0.52485340  1
  O  O69  1  0.56845015  0.67109434  0.97256894  1
  O  O70  1  0.09450806  0.45215205  0.97928649  1
  O  O71  1  0.33358087  0.88333716  0.98178756  1
  O  O72  1  0.55815584  0.89851078  0.48193253  1
  O  O73  1  0.29893049  0.42600038  0.46799544  1
  O  O74  1  0.11453838  0.66223647  0.48123757  1
  O  O75  1  0.14626052  0.63435457  0.36468589  1
  O  O76  1  0.49431974  0.85317802  0.36599194  1
  O  O77  1  0.37031934  0.49780815  0.36118660  1
  O  O78  1  0.14158996  0.50524703  0.86908923  1
  O  O79  1  0.36763741  0.85121190  0.86482537  1
  O  O80  1  0.50359719  0.62903528  0.86308384  1
  O  O81  1  0.01476180  0.81811265  0.41406535  1
  O  O82  1  0.81777736  0.03018110  0.41541738  1
  O  O83  1  0.22898640  0.19855943  0.39989386  1
  O  O84  1  0.99029385  0.21153365  0.91428565  1
  O  O85  1  0.19003292  0.98817174  0.91287731  1
  O  O86  1  0.80175568  0.76569884  0.90386566  1
  O  O87  1  0.94796129  0.14036850  0.58174313  1
  O  O88  1  0.18379477  0.04641322  0.59302354  1
  O  O89  1  0.86927279  0.81896235  0.58780321  1
  O  O90  1  0.95493555  0.81609937  0.09386047  1
  O  O91  1  0.86209112  0.05547878  0.08320776  1
  O  O92  1  0.17957142  0.13017084  0.08966024  1
  O  O93  1  0.63047042  0.11538535  0.74813005  1
  O  O94  1  0.44648291  0.32952489  0.73728333  1
  O  O95  1  0.89284032  0.54651378  0.74515621  1
  O  O96  1  0.66608721  0.54799626  0.23563968  1
  O  O97  1  0.87855405  0.36225443  0.24953867  1
  O  O98  1  0.45762775  0.10960321  0.24448177  1
  O  O99  1  0.61639250  0.46654032  0.91706907  1
  O  O100  1  0.85771296  0.39317382  0.91460560  1
  O  O101  1  0.52745122  0.15199252  0.92327672  1
  O  O102  1  0.61483951  0.15486076  0.41788461  1
  O  O103  1  0.52522971  0.38654720  0.41962842  1
  O  O104  1  0.84935048  0.47659986  0.41994787  1
  O  O105  1  0.29560442  0.45069223  0.08010012  1
  O  O106  1  0.14041716  0.67988341  0.07438754  1
  O  O107  1  0.55059474  0.87662510  0.07109168  1
  O  O108  1  0.31868603  0.86037061  0.57472819  1
  O  O109  1  0.54449150  0.69546167  0.58313451  1
  O  O110  1  0.12546161  0.45236587  0.57297069  1
  O  O111  1  0.28062058  0.80102403  0.25142081  1
  O  O112  1  0.52515001  0.71887672  0.25187833  1
  O  O113  1  0.20243095  0.49279769  0.25581763  1
  O  O114  1  0.27809429  0.47177096  0.75468635  1
  O  O115  1  0.20178015  0.72205940  0.75171226  1
  O  O116  1  0.51115101  0.79582513  0.75678290  1
