# generated using pymatgen
data_Na2MgCu2TeO6
_symmetry_space_group_name_H-M   'P 1'
_cell_length_a   6.57512757
_cell_length_b   5.56216074
_cell_length_c   6.05720555
_cell_angle_alpha   111.60222840
_cell_angle_beta   107.20452859
_cell_angle_gamma   112.24266628
_symmetry_Int_Tables_number   1
_chemical_formula_structural   Na2MgCu2TeO6
_chemical_formula_sum   'Na2 Mg1 Cu2 Te1 O6'
_cell_volume   164.47199115
_cell_formula_units_Z   1
loop_
 _symmetry_equiv_pos_site_id
 _symmetry_equiv_pos_as_xyz
  1  'x, y, z'
loop_
 _atom_site_type_symbol
 _atom_site_label
 _atom_site_symmetry_multiplicity
 _atom_site_fract_x
 _atom_site_fract_y
 _atom_site_fract_z
 _atom_site_occupancy
  Na  Na0  1  0.83879866  0.15723529  0.48535669  1
  Na  Na1  1  0.15248142  0.83396902  0.52344920  1
  Mg  Mg2  1  0.49588077  0.49593184  0.50400426  1
  Cu  Cu3  1  0.27028557  0.64177953  0.05775649  1
  Cu  Cu4  1  0.72124513  0.34984921  0.95059001  1
  Te  Te5  1  0.99593188  0.99601190  0.00452064  1
  O  O6  1  0.81024805  0.75406570  0.12868604  1
  O  O7  1  0.13307666  0.37296484  0.34784864  1
  O  O8  1  0.18154800  0.23773435  0.88028860  1
  O  O9  1  0.31653929  0.02766753  0.22102226  1
  O  O10  1  0.85860261  0.61859569  0.66111324  1
  O  O11  1  0.67536196  0.96419410  0.78744793  1
