# generated using pymatgen
data_Na10La4Ta4Si9(SO16)3
_symmetry_space_group_name_H-M   'P 1'
_cell_length_a   18.95297792
_cell_length_b   9.37819123
_cell_length_c   22.97242015
_cell_angle_alpha   90.24317042
_cell_angle_beta   88.45853387
_cell_angle_gamma   119.84458013
_symmetry_Int_Tables_number   1
_chemical_formula_structural   Na10La4Ta4Si9(SO16)3
_chemical_formula_sum   'Na30 La12 Ta12 Si27 S9 O144'
_cell_volume   3540.22294171
_cell_formula_units_Z   3
loop_
 _symmetry_equiv_pos_site_id
 _symmetry_equiv_pos_as_xyz
  1  'x, y, z'
loop_
 _atom_site_type_symbol
 _atom_site_label
 _atom_site_symmetry_multiplicity
 _atom_site_fract_x
 _atom_site_fract_y
 _atom_site_fract_z
 _atom_site_occupancy
  Na  Na0  1  0.18036226  0.35115648  0.24087793  1
  Na  Na1  1  0.68038374  0.35206604  0.24020005  1
  Na  Na2  1  0.18000062  0.01068875  0.73993780  1
  Na  Na3  1  0.67811643  0.00696826  0.74024766  1
  Na  Na4  1  0.65556737  0.34863519  0.58099820  1
  Na  Na5  1  0.01925098  0.69954759  0.57374450  1
  Na  Na6  1  0.51391833  0.67363133  0.58088738  1
  Na  Na7  1  0.32296002  0.98295036  0.58689040  1
  Na  Na8  1  0.15562606  0.96891161  0.08153826  1
  Na  Na9  1  0.65565425  0.96879376  0.08107614  1
  Na  Na10  1  0.32254168  0.66838201  0.08498449  1
  Na  Na11  1  0.82291791  0.66954990  0.08467207  1
  Na  Na12  1  0.01921802  0.35920192  0.08092947  1
  Na  Na13  1  0.51914548  0.35953552  0.08074940  1
  Na  Na14  1  0.49316372  0.68429520  0.91158497  1
  Na  Na15  1  0.99307760  0.68408336  0.91297183  1
  Na  Na16  1  0.34814590  0.65907122  0.40783205  1
  Na  Na17  1  0.84757064  0.67324127  0.40641597  1
  Na  Na18  1  0.02348041  0.03842110  0.49633905  1
  Na  Na19  1  0.52034905  0.01621317  0.49426736  1
  Na  Na20  1  0.01650935  0.03982868  0.99189250  1
  Na  Na21  1  0.51684794  0.04039560  0.99122708  1
  Na  Na22  1  0.34816051  0.33500663  0.83140184  1
  Na  Na23  1  0.84620073  0.33157174  0.83420959  1
  Na  Na24  1  0.35198281  0.33978885  0.33457995  1
  Na  Na25  1  0.85492208  0.33889843  0.32968025  1
  Na  Na26  1  0.16718168  0.68270019  0.16411063  1
  Na  Na27  1  0.66738203  0.68297996  0.16282849  1
  Na  Na28  1  0.17974086  0.65233451  0.66639360  1
  Na  Na29  1  0.67501004  0.67030135  0.66026078  1
  La  La30  1  0.00363170  0.99739347  0.35255045  1
  La  La31  1  0.50134010  0.99581609  0.35224039  1
  La  La32  1  0.99570356  0.01285975  0.85073171  1
  La  La33  1  0.49649267  0.01447094  0.85037571  1
  La  La34  1  0.33969566  0.34253769  0.68516070  1
  La  La35  1  0.83782354  0.33390634  0.68728072  1
  La  La36  1  0.34091915  0.34259831  0.18665568  1
  La  La37  1  0.84074339  0.34247469  0.18589096  1
  La  La38  1  0.16747993  0.66516247  0.00921334  1
  La  La39  1  0.66757461  0.66520523  0.00870310  1
  La  La40  1  0.16504305  0.66379419  0.51376151  1
  La  La41  1  0.66564540  0.67621859  0.51465887  1
  Ta  Ta42  1  0.99306427  0.97711017  0.64811837  1
  Ta  Ta43  1  0.48955556  0.97937653  0.64284938  1
  Ta  Ta44  1  0.99058593  0.99982288  0.14451434  1
  Ta  Ta45  1  0.49003900  0.99979936  0.14403813  1
  Ta  Ta46  1  0.33423732  0.32280879  0.98319582  1
  Ta  Ta47  1  0.83406838  0.32263977  0.98329044  1
  Ta  Ta48  1  0.33477250  0.34065466  0.48451925  1
  Ta  Ta49  1  0.82711545  0.34338928  0.47847146  1
  Ta  Ta50  1  0.15948070  0.63570900  0.31485402  1
  Ta  Ta51  1  0.65834118  0.64059200  0.31370503  1
  Ta  Ta52  1  0.16141889  0.68313800  0.81513398  1
  Ta  Ta53  1  0.65970258  0.68245666  0.81356818  1
  Si  Si54  1  0.34309262  0.71333024  0.25423784  1
  Si  Si55  1  0.84369446  0.71332173  0.25481213  1
  Si  Si56  1  0.00538552  0.30008487  0.25036441  1
  Si  Si57  1  0.50520338  0.29989122  0.25044963  1
  Si  Si58  1  0.00505651  0.70619540  0.75514007  1
  Si  Si59  1  0.50365868  0.71122239  0.75347963  1
  Si  Si60  1  0.34248589  0.97569499  0.74963331  1
  Si  Si61  1  0.84275573  0.97453402  0.75060574  1
  Si  Si62  1  0.47855466  0.31576762  0.57978944  1
  Si  Si63  1  0.18031552  0.04823598  0.58662995  1
  Si  Si64  1  0.67965820  0.04672427  0.58779924  1
  Si  Si65  1  0.33591846  0.63675932  0.58334315  1
  Si  Si66  1  0.83790067  0.63701032  0.58298603  1
  Si  Si67  1  0.47990251  0.64163091  0.07825373  1
  Si  Si68  1  0.97988906  0.64197007  0.07822104  1
  Si  Si69  1  0.33649351  0.03748236  0.08302454  1
  Si  Si70  1  0.83667595  0.03721913  0.08310579  1
  Si  Si71  1  0.18141734  0.31658274  0.08703850  1
  Si  Si72  1  0.68132400  0.31677605  0.08710888  1
  Si  Si73  1  0.01058782  0.37646572  0.92111273  1
  Si  Si74  1  0.51080639  0.37720217  0.92101982  1
  Si  Si75  1  0.17477470  0.98585353  0.92006474  1
  Si  Si76  1  0.67467159  0.98512600  0.91975902  1
  Si  Si77  1  0.17709225  0.36264838  0.41811705  1
  Si  Si78  1  0.67149194  0.36927941  0.41953281  1
  Si  Si79  1  0.01170239  0.64310459  0.42061372  1
  Si  Si80  1  0.51066314  0.64374336  0.42029990  1
  S  S81  1  0.14298289  0.97310002  0.24437164  1
  S  S82  1  0.64347823  0.97342094  0.24540331  1
  S  S83  1  0.14117099  0.30770198  0.74624290  1
  S  S84  1  0.64482169  0.31542737  0.74625144  1
  S  S85  1  0.97752479  0.30743348  0.58024073  1
  S  S86  1  0.31287785  0.64037440  0.91520316  1
  S  S87  1  0.81320468  0.64017794  0.91558931  1
  S  S88  1  0.30955145  0.97603682  0.41558640  1
  S  S89  1  0.81157534  0.98107118  0.41372496  1
  O  O90  1  0.10651203  0.99402914  0.29875371  1
  O  O91  1  0.60662587  0.99415381  0.29948377  1
  O  O92  1  0.39041046  0.77978562  0.31319976  1
  O  O93  1  0.89071096  0.78058504  0.31382311  1
  O  O94  1  0.50924687  0.20800005  0.30639781  1
  O  O95  1  0.00770106  0.20537986  0.30611045  1
  O  O96  1  0.10932074  0.21810384  0.80169603  1
  O  O97  1  0.60917654  0.21590486  0.79949963  1
  O  O98  1  0.50724791  0.79877605  0.81356213  1
  O  O99  1  0.00343602  0.79079411  0.81453501  1
  O  O100  1  0.39594978  0.00728579  0.80469737  1
  O  O101  1  0.89486117  0.00975208  0.80673343  1
  O  O102  1  0.39848590  0.96494793  0.69039496  1
  O  O103  1  0.90355649  0.96948861  0.69355368  1
  O  O104  1  0.08716901  0.21143238  0.69715982  1
  O  O105  1  0.59475761  0.22985648  0.69445538  1
  O  O106  1  0.01391625  0.83529139  0.69734835  1
  O  O107  1  0.51304016  0.83884783  0.69593131  1
  O  O108  1  0.40299765  0.83971778  0.19617206  1
  O  O109  1  0.90340195  0.83919852  0.19670651  1
  O  O110  1  0.01470189  0.19748549  0.19133767  1
  O  O111  1  0.51494495  0.19744820  0.19152553  1
  O  O112  1  0.09276158  0.96245052  0.19322720  1
  O  O113  1  0.59383851  0.96070130  0.19389062  1
  O  O114  1  0.44595305  0.36579195  0.63637946  1
  O  O115  1  0.94335080  0.32883732  0.63591586  1
  O  O116  1  0.23012790  0.10513032  0.64544812  1
  O  O117  1  0.72458493  0.11831923  0.64741907  1
  O  O118  1  0.31942237  0.53359034  0.64111598  1
  O  O119  1  0.82984628  0.52617666  0.63710498  1
  O  O120  1  0.44510898  0.52049984  0.13317982  1
  O  O121  1  0.94513715  0.52065743  0.13310366  1
  O  O122  1  0.31071839  0.10547061  0.13784306  1
  O  O123  1  0.81060207  0.10514847  0.13783737  1
  O  O124  1  0.22981907  0.35266467  0.14619607  1
  O  O125  1  0.72952631  0.35252622  0.14638948  1
  O  O126  1  0.24161189  0.30129442  0.03262424  1
  O  O127  1  0.74163386  0.30138529  0.03284126  1
  O  O128  1  0.41606752  0.53791408  0.02298558  1
  O  O129  1  0.91613664  0.53776369  0.02294938  1
  O  O130  1  0.35227505  0.17011214  0.02647101  1
  O  O131  1  0.85228979  0.17011889  0.02660868  1
  O  O132  1  0.24016291  0.17671340  0.53136340  1
  O  O133  1  0.74107686  0.17894101  0.53141242  1
  O  O134  1  0.34891810  0.53355693  0.52615077  1
  O  O135  1  0.85051649  0.53496454  0.52368410  1
  O  O136  1  0.41261232  0.29830183  0.52702531  1
  O  O137  1  0.92570271  0.29567755  0.53076956  1
  O  O138  1  0.28567870  0.66085459  0.97397100  1
  O  O139  1  0.78594111  0.66038773  0.97441722  1
  O  O140  1  0.05127607  0.44507594  0.98284575  1
  O  O141  1  0.55134825  0.44449172  0.98292617  1
  O  O142  1  0.16352842  0.88778013  0.97943200  1
  O  O143  1  0.66416274  0.88834818  0.97939006  1
  O  O144  1  0.27834176  0.89753840  0.47318564  1
  O  O145  1  0.78076268  0.89297255  0.46977084  1
  O  O146  1  0.17152936  0.46056638  0.47282728  1
  O  O147  1  0.67205866  0.45568098  0.47910693  1
  O  O148  1  0.05500726  0.67205831  0.48162052  1
  O  O149  1  0.55480350  0.67433322  0.48120366  1
  O  O150  1  0.07452285  0.63757697  0.36579551  1
  O  O151  1  0.57437303  0.64187463  0.36462653  1
  O  O152  1  0.25478405  0.87319467  0.36827396  1
  O  O153  1  0.75734077  0.88716245  0.36533252  1
  O  O154  1  0.18111023  0.49039574  0.35866509  1
  O  O155  1  0.67994449  0.49905175  0.36250963  1
  O  O156  1  0.07512950  0.51380870  0.86677480  1
  O  O157  1  0.57488545  0.51439722  0.86674103  1
  O  O158  1  0.18148041  0.86528861  0.86243133  1
  O  O159  1  0.68087683  0.86529811  0.86201096  1
  O  O160  1  0.25918365  0.64141782  0.86927994  1
  O  O161  1  0.76041442  0.64112492  0.86956448  1
  O  O162  1  0.98375396  0.77832590  0.41296921  1
  O  O163  1  0.48536089  0.78371224  0.41337435  1
  O  O164  1  0.39109709  0.99452745  0.40909341  1
  O  O165  1  0.89380180  0.00631584  0.40627303  1
  O  O166  1  0.10254409  0.17947032  0.41517991  1
  O  O167  1  0.60080774  0.18369039  0.41541818  1
  O  O168  1  0.99165626  0.19082166  0.91663055  1
  O  O169  1  0.49172609  0.19149633  0.91642913  1
  O  O170  1  0.09368044  0.99676536  0.91185871  1
  O  O171  1  0.59369918  0.99731472  0.91247036  1
  O  O172  1  0.39800536  0.77461264  0.90818310  1
  O  O173  1  0.89876184  0.77485488  0.90911691  1
  O  O174  1  0.47349188  0.13270774  0.58825952  1
  O  O175  1  0.98292173  0.15255330  0.58386755  1
  O  O176  1  0.08908895  0.03975252  0.59489057  1
  O  O177  1  0.59203086  0.05586983  0.59142222  1
  O  O178  1  0.43166941  0.80696681  0.58904529  1
  O  O179  1  0.92895072  0.81376076  0.59099904  1
  O  O180  1  0.47501737  0.81516240  0.09031600  1
  O  O181  1  0.97477490  0.81502321  0.09022523  1
  O  O182  1  0.42900821  0.05193251  0.09094618  1
  O  O183  1  0.92895945  0.05133166  0.09123161  1
  O  O184  1  0.09257506  0.13607763  0.09237656  1
  O  O185  1  0.59263350  0.13600587  0.09253123  1
  O  O186  1  0.31502412  0.11241906  0.74489448  1
  O  O187  1  0.81444560  0.10981733  0.74466267  1
  O  O188  1  0.22279337  0.32836551  0.73885547  1
  O  O189  1  0.72713629  0.33823550  0.74101481  1
  O  O190  1  0.43135940  0.52603459  0.75188258  1
  O  O191  1  0.93455679  0.52059790  0.74950407  1
  O  O192  1  0.31678996  0.52272821  0.24581810  1
  O  O193  1  0.81726937  0.52207112  0.24681051  1
  O  O194  1  0.43261209  0.33899207  0.25116253  1
  O  O195  1  0.93272991  0.33922113  0.25058200  1
  O  O196  1  0.22460002  0.11917701  0.24015120  1
  O  O197  1  0.72534063  0.11822254  0.24113229  1
  O  O198  1  0.31226571  0.47936023  0.91422716  1
  O  O199  1  0.81300867  0.47928866  0.91488590  1
  O  O200  1  0.42497992  0.38807747  0.92135058  1
  O  O201  1  0.92502958  0.38788206  0.92122660  1
  O  O202  1  0.26227213  0.16206058  0.92451801  1
  O  O203  1  0.76230197  0.16208350  0.92444368  1
  O  O204  1  0.31425575  0.14026510  0.41598577  1
  O  O205  1  0.81458864  0.14492973  0.41840359  1
  O  O206  1  0.26725359  0.37185473  0.42128121  1
  O  O207  1  0.76423095  0.37580520  0.42120300  1
  O  O208  1  0.42303608  0.46511916  0.42366989  1
  O  O209  1  0.92286465  0.46109815  0.42618546  1
  O  O210  1  0.16201041  0.46451619  0.07676601  1
  O  O211  1  0.66207264  0.46490183  0.07694558  1
  O  O212  1  0.07499550  0.69101484  0.07396519  1
  O  O213  1  0.57503665  0.69072475  0.07392852  1
  O  O214  1  0.27210391  0.84540310  0.07467044  1
  O  O215  1  0.77187584  0.84525493  0.07475113  1
  O  O216  1  0.15922084  0.85926409  0.57676317  1
  O  O217  1  0.65315831  0.85533301  0.58173288  1
  O  O218  1  0.27461550  0.70747632  0.57668996  1
  O  O219  1  0.76225250  0.66628369  0.57860720  1
  O  O220  1  0.05963156  0.45164372  0.57535746  1
  O  O221  1  0.57281250  0.45722746  0.57319410  1
  O  O222  1  0.14715898  0.81829947  0.24850657  1
  O  O223  1  0.64780839  0.81772340  0.25002529  1
  O  O224  1  0.25421373  0.71550219  0.26109581  1
  O  O225  1  0.75441805  0.71414429  0.26167876  1
  O  O226  1  0.09634849  0.48378014  0.25522756  1
  O  O227  1  0.59663586  0.48428481  0.25526070  1
  O  O228  1  0.14477367  0.47109992  0.75010195  1
  O  O229  1  0.64824608  0.47796293  0.75288299  1
  O  O230  1  0.09765152  0.71238267  0.75692501  1
  O  O231  1  0.59619761  0.71132844  0.75587260  1
  O  O232  1  0.25413565  0.79360486  0.75999179  1
  O  O233  1  0.75443107  0.79464344  0.76001316  1
