# generated using pymatgen
data_XeF4
_symmetry_space_group_name_H-M   'P 1'
_cell_length_a   4.97062656
_cell_length_b   5.89319329
_cell_length_c   5.68857209
_cell_angle_alpha   90.00000000
_cell_angle_beta   90.00000000
_cell_angle_gamma   100.84394067
_symmetry_Int_Tables_number   1
_chemical_formula_structural   XeF4
_chemical_formula_sum   'Xe2 F8'
_cell_volume   163.65901264
_cell_formula_units_Z   2
loop_
 _symmetry_equiv_pos_site_id
 _symmetry_equiv_pos_as_xyz
  1  'x, y, z'
loop_
 _atom_site_type_symbol
 _atom_site_label
 _atom_site_symmetry_multiplicity
 _atom_site_fract_x
 _atom_site_fract_y
 _atom_site_fract_z
 _atom_site_occupancy
  Xe  Xe0  1  0.50000000  0.50000000  0.50000000  1
  Xe  Xe1  1  -0.00000000  0.00000000  0.00000000  1
  F  F2  1  0.21458474  0.65114185  0.65554950  1
  F  F3  1  0.28541526  0.84885815  0.15554950  1
  F  F4  1  0.25046389  0.31227405  0.02036454  1
  F  F5  1  0.24953611  0.18772595  0.52036454  1
  F  F6  1  0.74953611  0.68772595  0.97963546  1
  F  F7  1  0.75046389  0.81227405  0.47963546  1
  F  F8  1  0.71458474  0.15114185  0.84445050  1
  F  F9  1  0.78541526  0.34885815  0.34445050  1
