# generated using pymatgen
data_Cs4Mn(SbCl6)2
_symmetry_space_group_name_H-M   'P 1'
_cell_length_a   13.31004244
_cell_length_b   7.67737600
_cell_length_c   13.18899932
_cell_angle_alpha   90.00000000
_cell_angle_beta   109.44069646
_cell_angle_gamma   90.00000000
_symmetry_Int_Tables_number   1
_chemical_formula_structural   Cs4Mn(SbCl6)2
_chemical_formula_sum   'Cs8 Mn2 Sb4 Cl24'
_cell_volume   1270.89469713
_cell_formula_units_Z   2
loop_
 _symmetry_equiv_pos_site_id
 _symmetry_equiv_pos_as_xyz
  1  'x, y, z'
loop_
 _atom_site_type_symbol
 _atom_site_label
 _atom_site_symmetry_multiplicity
 _atom_site_fract_x
 _atom_site_fract_y
 _atom_site_fract_z
 _atom_site_occupancy
  Cs  Cs0  1  0.62270000  0.00000000  0.86918000  1
  Cs  Cs1  1  0.37730000  0.00000000  0.13082000  1
  Cs  Cs2  1  0.12270000  0.50000000  0.86918000  1
  Cs  Cs3  1  0.87730000  0.50000000  0.13082000  1
  Cs  Cs4  1  0.37301200  0.50000000  0.61938600  1
  Cs  Cs5  1  0.62698800  0.50000000  0.38061400  1
  Cs  Cs6  1  0.87301200  0.00000000  0.61938600  1
  Cs  Cs7  1  0.12698800  0.00000000  0.38061400  1
  Mn  Mn8  1  0.50000000  0.00000000  0.50000000  1
  Mn  Mn9  1  0.00000000  0.50000000  0.50000000  1
  Sb  Sb10  1  0.25049400  0.00000000  0.75279200  1
  Sb  Sb11  1  0.74950600  0.00000000  0.24720800  1
  Sb  Sb12  1  0.75049400  0.50000000  0.75279200  1
  Sb  Sb13  1  0.24950600  0.50000000  0.24720800  1
  Cl  Cl14  1  0.61757800  0.23317300  0.61759400  1
  Cl  Cl15  1  0.38242200  0.23317300  0.38240600  1
  Cl  Cl16  1  0.11757800  0.73317300  0.61759400  1
  Cl  Cl17  1  0.88242200  0.73317300  0.38240600  1
  Cl  Cl18  1  0.38242200  0.76682700  0.38240600  1
  Cl  Cl19  1  0.61757800  0.76682700  0.61759400  1
  Cl  Cl20  1  0.88242200  0.26682700  0.38240600  1
  Cl  Cl21  1  0.11757800  0.26682700  0.61759400  1
  Cl  Cl22  1  0.38486100  0.00000000  0.61893600  1
  Cl  Cl23  1  0.61513900  0.00000000  0.38106400  1
  Cl  Cl24  1  0.88486100  0.50000000  0.61893600  1
  Cl  Cl25  1  0.11513900  0.50000000  0.38106400  1
  Cl  Cl26  1  0.36575500  0.23333200  0.86759700  1
  Cl  Cl27  1  0.63424500  0.23333200  0.13240300  1
  Cl  Cl28  1  0.86575500  0.73333200  0.86759700  1
  Cl  Cl29  1  0.13424500  0.73333200  0.13240300  1
  Cl  Cl30  1  0.63424500  0.76666800  0.13240300  1
  Cl  Cl31  1  0.36575500  0.76666800  0.86759700  1
  Cl  Cl32  1  0.13424500  0.26666800  0.13240300  1
  Cl  Cl33  1  0.86575500  0.26666800  0.86759700  1
  Cl  Cl34  1  0.13289100  0.00000000  0.86704800  1
  Cl  Cl35  1  0.86710900  0.00000000  0.13295200  1
  Cl  Cl36  1  0.63289100  0.50000000  0.86704800  1
  Cl  Cl37  1  0.36710900  0.50000000  0.13295200  1
