# generated using pymatgen
data_MgFe4(CoO4)2
_symmetry_space_group_name_H-M   'P 1'
_cell_length_a   6.15186101
_cell_length_b   6.63926502
_cell_length_c   6.15186205
_cell_angle_alpha   57.01335609
_cell_angle_beta   58.90072791
_cell_angle_gamma   57.01335969
_symmetry_Int_Tables_number   1
_chemical_formula_structural   MgFe4(CoO4)2
_chemical_formula_sum   'Mg1 Fe4 Co2 O8'
_cell_volume   167.91257187
_cell_formula_units_Z   1
loop_
 _symmetry_equiv_pos_site_id
 _symmetry_equiv_pos_as_xyz
  1  'x, y, z'
loop_
 _atom_site_type_symbol
 _atom_site_label
 _atom_site_symmetry_multiplicity
 _atom_site_fract_x
 _atom_site_fract_y
 _atom_site_fract_z
 _atom_site_occupancy
  Mg  Mg0  1  0.05291912  0.44205966  0.05291912  1
  Fe  Fe1  1  0.91980785  0.07587603  0.91980785  1
  Fe  Fe2  1  0.38069310  0.11775684  0.38069311  1
  Fe  Fe3  1  0.08274115  0.69322809  0.53311541  1
  Fe  Fe4  1  0.53311541  0.69322809  0.08274115  1
  Co  Co5  1  0.62710461  0.15869633  0.62710461  1
  Co  Co6  1  0.63086323  0.59242417  0.63086323  1
  O  O7  1  0.38627541  0.41063521  0.38627541  1
  O  O8  1  0.45901537  0.29266772  0.94554483  1
  O  O9  1  0.39304142  0.80607159  0.39304143  1
  O  O10  1  0.94554483  0.29266772  0.45901537  1
  O  O11  1  0.33098271  0.93332670  0.79362335  1
  O  O12  1  0.87011468  0.42293751  0.87011467  1
  O  O13  1  0.79362335  0.93332670  0.33098271  1
  O  O14  1  0.87019977  0.82780566  0.87019977  1
