# generated using pymatgen
data_MgMo2(PO5)2
_symmetry_space_group_name_H-M   'P 1'
_cell_length_a   5.58908674
_cell_length_b   5.36617111
_cell_length_c   7.62537065
_cell_angle_alpha   70.81988386
_cell_angle_beta   69.43975956
_cell_angle_gamma   96.05449206
_symmetry_Int_Tables_number   1
_chemical_formula_structural   MgMo2(PO5)2
_chemical_formula_sum   'Mg1 Mo2 P2 O10'
_cell_volume   195.83756160
_cell_formula_units_Z   1
loop_
 _symmetry_equiv_pos_site_id
 _symmetry_equiv_pos_as_xyz
  1  'x, y, z'
loop_
 _atom_site_type_symbol
 _atom_site_label
 _atom_site_symmetry_multiplicity
 _atom_site_fract_x
 _atom_site_fract_y
 _atom_site_fract_z
 _atom_site_occupancy
  Mg  Mg0  1  0.38528585  0.25155326  0.25623392  1
  Mo  Mo1  1  0.21881425  0.74701588  0.01452521  1
  Mo  Mo2  1  0.73872369  0.23841528  0.52745527  1
  P  P3  1  0.61732250  0.82399167  0.26412857  1
  P  P4  1  0.83873820  0.64749366  0.78150653  1
  O  O5  1  0.42283426  0.05255647  0.76999989  1
  O  O6  1  0.07345240  0.39717534  0.27156269  1
  O  O7  1  0.90707514  0.90949157  0.11339946  1
  O  O8  1  0.92708146  0.95763583  0.65251399  1
  O  O9  1  0.57957782  0.99112629  0.40117591  1
  O  O10  1  0.02440715  0.56218889  0.88616500  1
  O  O11  1  0.42463904  0.92144055  0.16361566  1
  O  O12  1  0.85132120  0.50179547  0.63728023  1
  O  O13  1  0.53214044  0.50837913  0.37925027  1
  O  O14  1  0.54968761  0.55584170  0.95584638  1
