# generated using pymatgen
data_Na5ZrZn3P3(SO8)3
_symmetry_space_group_name_H-M   'P 1'
_cell_length_a   8.95991721
_cell_length_b   8.97547728
_cell_length_c   22.52351002
_cell_angle_alpha   90.15850277
_cell_angle_beta   89.64202563
_cell_angle_gamma   119.91045111
_symmetry_Int_Tables_number   1
_chemical_formula_structural   Na5ZrZn3P3(SO8)3
_chemical_formula_sum   'Na15 Zr3 Zn9 P9 S9 O72'
_cell_volume   1570.04073351
_cell_formula_units_Z   3
loop_
 _symmetry_equiv_pos_site_id
 _symmetry_equiv_pos_as_xyz
  1  'x, y, z'
loop_
 _atom_site_type_symbol
 _atom_site_label
 _atom_site_symmetry_multiplicity
 _atom_site_fract_x
 _atom_site_fract_y
 _atom_site_fract_z
 _atom_site_occupancy
  Na  Na0  1  0.00213972  0.63408062  0.25398143  1
  Na  Na1  1  0.29993085  0.33959710  0.58787389  1
  Na  Na2  1  0.02917886  0.69477200  0.58225354  1
  Na  Na3  1  0.67026593  0.96146567  0.58108608  1
  Na  Na4  1  0.66833307  0.70111032  0.08269327  1
  Na  Na5  1  0.03608064  0.34004790  0.08563411  1
  Na  Na6  1  0.97784072  0.68068419  0.91202758  1
  Na  Na7  1  0.32354865  0.29429428  0.90786901  1
  Na  Na8  1  0.70242460  0.67816606  0.41601280  1
  Na  Na9  1  0.99867770  0.00341763  0.49531475  1
  Na  Na10  1  0.00017209  0.99481051  0.99590176  1
  Na  Na11  1  0.65822117  0.32107754  0.82152906  1
  Na  Na12  1  0.65633536  0.30731738  0.33024460  1
  Na  Na13  1  0.33610204  0.67759065  0.17103395  1
  Na  Na14  1  0.33202105  0.65459681  0.66409971  1
  Zr  Zr15  1  0.66893179  0.33253365  0.97970088  1
  Zr  Zr16  1  0.67923589  0.33349448  0.47944010  1
  Zr  Zr17  1  0.33584602  0.66394484  0.81261263  1
  Zn  Zn18  1  0.00053499  0.00380389  0.35176463  1
  Zn  Zn19  1  0.00173206  0.00870953  0.84677207  1
  Zn  Zn20  1  0.99882434  0.00902673  0.65463533  1
  Zn  Zn21  1  0.00468079  0.99209510  0.15568143  1
  Zn  Zn22  1  0.66523837  0.34488122  0.68366767  1
  Zn  Zn23  1  0.66783156  0.33175289  0.18449220  1
  Zn  Zn24  1  0.32549625  0.67243076  0.01090965  1
  Zn  Zn25  1  0.33199067  0.66742615  0.50958131  1
  Zn  Zn26  1  0.33567646  0.67631993  0.32290362  1
  P  P27  1  0.29857761  0.28944419  0.74956485  1
  P  P28  1  0.96335824  0.33475906  0.58729088  1
  P  P29  1  0.66525410  0.62958227  0.58429516  1
  P  P30  1  0.96620369  0.63193544  0.08625886  1
  P  P31  1  0.62988181  0.67484021  0.92053364  1
  P  P32  1  0.04268790  0.36903137  0.91925589  1
  P  P33  1  0.32943039  0.95825022  0.91742738  1
  P  P34  1  0.62806957  0.95682722  0.41610786  1
  P  P35  1  0.04440424  0.67446794  0.41531952  1
  S  S36  1  0.29631108  0.00230840  0.24997479  1
  S  S37  1  0.69935597  0.70234065  0.24928083  1
  S  S38  1  0.00157320  0.29367332  0.24856826  1
  S  S39  1  0.99733922  0.70590302  0.75018635  1
  S  S40  1  0.70836195  0.00433513  0.74951917  1
  S  S41  1  0.37317439  0.03913874  0.58511347  1
  S  S42  1  0.66421646  0.03561160  0.08589421  1
  S  S43  1  0.36897422  0.33093589  0.08520080  1
  S  S44  1  0.32985067  0.37073010  0.41657859  1
  O  O45  1  0.21322228  0.02518992  0.30296009  1
  O  O46  1  0.81110532  0.78532307  0.30167341  1
  O  O47  1  0.98083824  0.18677340  0.30025642  1
  O  O48  1  0.21514888  0.19011768  0.80723701  1
  O  O49  1  0.97887453  0.78661181  0.80501459  1
  O  O50  1  0.80932612  0.02051565  0.80221233  1
  O  O51  1  0.77702983  0.97299239  0.69379941  1
  O  O52  1  0.19180727  0.21392074  0.69270655  1
  O  O53  1  0.02180092  0.80715006  0.69586580  1
  O  O54  1  0.77844384  0.80420565  0.19368498  1
  O  O55  1  0.02001636  0.21629663  0.19175356  1
  O  O56  1  0.19103860  0.97335244  0.19554752  1
  O  O57  1  0.87409433  0.36319664  0.64008068  1
  O  O58  1  0.48077464  0.11858278  0.63715765  1
  O  O59  1  0.63004417  0.51002263  0.63667881  1
  O  O60  1  0.87702501  0.51527474  0.14062046  1
  O  O61  1  0.64099231  0.11991148  0.13852018  1
  O  O62  1  0.48140134  0.35455242  0.13620179  1
  O  O63  1  0.45167578  0.30923978  0.02922128  1
  O  O64  1  0.84697334  0.53744225  0.02983936  1
  O  O65  1  0.68747747  0.14641275  0.03173261  1
  O  O66  1  0.45690478  0.14873602  0.53107226  1
  O  O67  1  0.69129140  0.54231335  0.52671847  1
  O  O68  1  0.84672470  0.30600376  0.53063148  1
  O  O69  1  0.54963852  0.69290813  0.97817848  1
  O  O70  1  0.14660016  0.44523554  0.97618289  1
  O  O71  1  0.29836349  0.85050778  0.97268251  1
  O  O72  1  0.55317930  0.85240538  0.47430900  1
  O  O73  1  0.30744705  0.44422016  0.47290724  1
  O  O74  1  0.14238028  0.69116099  0.47302384  1
  O  O75  1  0.11645660  0.63961634  0.35844297  1
  O  O76  1  0.51878095  0.87632152  0.36175017  1
  O  O77  1  0.36422398  0.48255601  0.36493747  1
  O  O78  1  0.13026537  0.49346980  0.86583524  1
  O  O79  1  0.35927402  0.87315648  0.86217155  1
  O  O80  1  0.50789384  0.63804872  0.86662222  1
  O  O81  1  0.01195306  0.82837993  0.41088939  1
  O  O82  1  0.81062785  0.97808410  0.41066182  1
  O  O83  1  0.17994166  0.19644025  0.41023807  1
  O  O84  1  0.02183601  0.19170545  0.91030590  1
  O  O85  1  0.17161760  0.98272006  0.91049453  1
  O  O86  1  0.81357666  0.82215550  0.91092106  1
  O  O87  1  0.97924964  0.16990287  0.58851786  1
  O  O88  1  0.19935657  0.02217706  0.58837214  1
  O  O89  1  0.83316609  0.80761426  0.58836939  1
  O  O90  1  0.97045861  0.80647170  0.08893380  1
  O  O91  1  0.82706461  0.02851291  0.08774208  1
  O  O92  1  0.19483667  0.18020298  0.08868705  1
  O  O93  1  0.68598549  0.15628152  0.74496443  1
  O  O94  1  0.48091193  0.31313306  0.74535854  1
  O  O95  1  0.84693645  0.53046474  0.74678501  1
  O  O96  1  0.69078568  0.53018218  0.24445264  1
  O  O97  1  0.84493038  0.31641229  0.24594349  1
  O  O98  1  0.47129658  0.15741821  0.24362117  1
  O  O99  1  0.64077199  0.50174022  0.92355814  1
  O  O100  1  0.86285471  0.36094984  0.92348185  1
  O  O101  1  0.49201273  0.14367678  0.92297739  1
  O  O102  1  0.64591454  0.14043953  0.42312457  1
  O  O103  1  0.49204523  0.35692670  0.42224181  1
  O  O104  1  0.85386170  0.50985007  0.42112651  1
  O  O105  1  0.35764498  0.49029707  0.08010523  1
  O  O106  1  0.14174809  0.64189559  0.07852371  1
  O  O107  1  0.51682640  0.86214591  0.07953274  1
  O  O108  1  0.35358308  0.86510829  0.57791364  1
  O  O109  1  0.50487967  0.65186055  0.57751949  1
  O  O110  1  0.14334977  0.49666401  0.57840973  1
  O  O111  1  0.30960005  0.84246334  0.25409515  1
  O  O112  1  0.52587308  0.68052545  0.25506727  1
  O  O113  1  0.15517216  0.47046720  0.25241037  1
  O  O114  1  0.31638243  0.47588878  0.75630097  1
  O  O115  1  0.15838863  0.68967616  0.75511150  1
  O  O116  1  0.53034187  0.84522394  0.75558971  1
