# generated using pymatgen
data_Na10Zr4Ta4Si11SO48
_symmetry_space_group_name_H-M   'P 1'
_cell_length_a   18.16842089
_cell_length_b   9.09374784
_cell_length_c   22.74016906
_cell_angle_alpha   90.00214382
_cell_angle_beta   89.94428546
_cell_angle_gamma   119.98268289
_symmetry_Int_Tables_number   1
_chemical_formula_structural   Na10Zr4Ta4Si11SO48
_chemical_formula_sum   'Na30 Zr12 Ta12 Si33 S3 O144'
_cell_volume   3254.31736944
_cell_formula_units_Z   3
loop_
 _symmetry_equiv_pos_site_id
 _symmetry_equiv_pos_as_xyz
  1  'x, y, z'
loop_
 _atom_site_type_symbol
 _atom_site_label
 _atom_site_symmetry_multiplicity
 _atom_site_fract_x
 _atom_site_fract_y
 _atom_site_fract_z
 _atom_site_occupancy
  Na  Na0  1  0.32147783  0.99979828  0.24960817  1
  Na  Na1  1  0.82136417  0.00026166  0.25032703  1
  Na  Na2  1  0.81942938  0.63933669  0.74887148  1
  Na  Na3  1  0.49834885  0.36523206  0.74917044  1
  Na  Na4  1  0.01656163  0.70169054  0.58402698  1
  Na  Na5  1  0.33351598  0.97088884  0.58742772  1
  Na  Na6  1  0.83346984  0.96306077  0.58270593  1
  Na  Na7  1  0.33215468  0.69638858  0.08607453  1
  Na  Na8  1  0.83156139  0.69598131  0.08710382  1
  Na  Na9  1  0.01658499  0.33521515  0.08532022  1
  Na  Na10  1  0.51279167  0.33141077  0.08519602  1
  Na  Na11  1  0.98541817  0.66112411  0.91248607  1
  Na  Na12  1  0.34989209  0.03441738  0.91472288  1
  Na  Na13  1  0.85162782  0.03267822  0.91660736  1
  Na  Na14  1  0.48351320  0.30405839  0.41340373  1
  Na  Na15  1  0.98400651  0.30535794  0.41263610  1
  Na  Na16  1  0.34908675  0.66705011  0.41464435  1
  Na  Na17  1  0.84841409  0.66671228  0.41457113  1
  Na  Na18  1  0.01627845  0.01690741  0.49903925  1
  Na  Na19  1  0.51542013  0.00261315  0.50176123  1
  Na  Na20  1  0.01775719  0.01715025  0.00006982  1
  Na  Na21  1  0.51299279  0.99635188  0.99887959  1
  Na  Na22  1  0.33062221  0.34993995  0.83280561  1
  Na  Na23  1  0.82929127  0.31987878  0.82984925  1
  Na  Na24  1  0.33433627  0.34651932  0.32940584  1
  Na  Na25  1  0.83404691  0.34720020  0.32871227  1
  Na  Na26  1  0.16103967  0.65438613  0.17038492  1
  Na  Na27  1  0.66007219  0.65287975  0.17128502  1
  Na  Na28  1  0.16880711  0.66563033  0.67303660  1
  Na  Na29  1  0.65828877  0.66754351  0.66400515  1
  Zr  Zr30  1  0.99692548  0.99680268  0.35588738  1
  Zr  Zr31  1  0.49685381  0.99770657  0.35629100  1
  Zr  Zr32  1  0.99702453  0.99582027  0.85480118  1
  Zr  Zr33  1  0.99824713  0.99360409  0.64472412  1
  Zr  Zr34  1  0.99845718  0.00235044  0.14366381  1
  Zr  Zr35  1  0.49774897  0.00235936  0.14407778  1
  Zr  Zr36  1  0.33661873  0.33434653  0.68611614  1
  Zr  Zr37  1  0.33885400  0.34712790  0.18506440  1
  Zr  Zr38  1  0.83822881  0.34660154  0.18465497  1
  Zr  Zr39  1  0.16523233  0.65295996  0.31525084  1
  Zr  Zr40  1  0.66513740  0.65305065  0.31505288  1
  Zr  Zr41  1  0.16943803  0.67821463  0.81398810  1
  Ta  Ta42  1  0.50174720  0.00060019  0.85492516  1
  Ta  Ta43  1  0.50121930  0.99846541  0.64553711  1
  Ta  Ta44  1  0.83214381  0.33047929  0.68815134  1
  Ta  Ta45  1  0.33498233  0.34083820  0.97779026  1
  Ta  Ta46  1  0.82988439  0.33042553  0.97760631  1
  Ta  Ta47  1  0.33385448  0.33301477  0.48202998  1
  Ta  Ta48  1  0.83023442  0.32645351  0.48043333  1
  Ta  Ta49  1  0.16873385  0.67038168  0.01890417  1
  Ta  Ta50  1  0.66541165  0.66838840  0.01874824  1
  Ta  Ta51  1  0.16677607  0.66360887  0.52199130  1
  Ta  Ta52  1  0.66424837  0.66489610  0.52233143  1
  Ta  Ta53  1  0.66473329  0.66942323  0.81153752  1
  Si  Si54  1  0.35114562  0.70258842  0.25046202  1
  Si  Si55  1  0.85120921  0.70307278  0.24998732  1
  Si  Si56  1  0.99969982  0.29683406  0.24981542  1
  Si  Si57  1  0.49970731  0.29715999  0.24994937  1
  Si  Si58  1  0.64315806  0.28671156  0.74992012  1
  Si  Si59  1  0.00074494  0.70081585  0.74864898  1
  Si  Si60  1  0.49894426  0.71350321  0.75140620  1
  Si  Si61  1  0.35550151  0.99578705  0.74971518  1
  Si  Si62  1  0.85165478  0.00071060  0.75021913  1
  Si  Si63  1  0.48241827  0.33512697  0.58462419  1
  Si  Si64  1  0.97831736  0.33717156  0.58361650  1
  Si  Si65  1  0.18877957  0.04292733  0.58313504  1
  Si  Si66  1  0.68770069  0.04354387  0.58454848  1
  Si  Si67  1  0.33437816  0.62455396  0.58356600  1
  Si  Si68  1  0.82872157  0.61589644  0.58398556  1
  Si  Si69  1  0.48157549  0.62604086  0.08109226  1
  Si  Si70  1  0.98115505  0.62521710  0.07860994  1
  Si  Si71  1  0.32882768  0.04223847  0.08299987  1
  Si  Si72  1  0.82819626  0.04020298  0.08344965  1
  Si  Si73  1  0.18971635  0.33516021  0.08060580  1
  Si  Si74  1  0.68771424  0.33499076  0.08073600  1
  Si  Si75  1  0.31327292  0.66549513  0.91536274  1
  Si  Si76  1  0.80695804  0.65556260  0.91462702  1
  Si  Si77  1  0.02217461  0.37702447  0.91808293  1
  Si  Si78  1  0.52223759  0.37732856  0.91557749  1
  Si  Si79  1  0.16921835  0.96359605  0.91743223  1
  Si  Si80  1  0.66494769  0.95499700  0.91607843  1
  Si  Si81  1  0.30795277  0.96125280  0.41591243  1
  Si  Si82  1  0.80792214  0.95755347  0.41695182  1
  Si  Si83  1  0.16898032  0.37410040  0.41974042  1
  Si  Si84  1  0.66815943  0.37595411  0.41985725  1
  Si  Si85  1  0.02086158  0.66492534  0.42062485  1
  Si  Si86  1  0.52187838  0.66691681  0.41970397  1
  S  S87  1  0.14522255  0.99969785  0.24998547  1
  S  S88  1  0.64546685  0.00014144  0.24995729  1
  S  S89  1  0.14537489  0.28822276  0.75011017  1
  O  O90  1  0.10190546  0.01094189  0.30336906  1
  O  O91  1  0.60210962  0.01133982  0.30340111  1
  O  O92  1  0.40622727  0.79789348  0.31005301  1
  O  O93  1  0.90602393  0.79725162  0.30975542  1
  O  O94  1  0.49453035  0.18426985  0.30835245  1
  O  O95  1  0.99403384  0.18376606  0.30829317  1
  O  O96  1  0.10117722  0.18762102  0.80303845  1
  O  O97  1  0.59675641  0.17249682  0.80832725  1
  O  O98  1  0.49280090  0.81463559  0.80898451  1
  O  O99  1  0.98637336  0.79347521  0.80659875  1
  O  O100  1  0.41583962  0.01815197  0.80788714  1
  O  O101  1  0.90695061  0.02594822  0.80969065  1
  O  O102  1  0.40630682  0.98635678  0.69030466  1
  O  O103  1  0.89574358  0.96808588  0.69281304  1
  O  O104  1  0.09545488  0.20129107  0.69695712  1
  O  O105  1  0.58232740  0.19408937  0.69288800  1
  O  O106  1  0.00866199  0.81351026  0.69016065  1
  O  O107  1  0.51045289  0.83099905  0.69314493  1
  O  O108  1  0.40207878  0.81587799  0.19203743  1
  O  O109  1  0.90238001  0.81595521  0.19150519  1
  O  O110  1  0.00719783  0.20145262  0.19026830  1
  O  O111  1  0.50744634  0.20282728  0.19023003  1
  O  O112  1  0.09634135  0.98870697  0.19667372  1
  O  O113  1  0.59656356  0.98909932  0.19657955  1
  O  O114  1  0.44196106  0.36333790  0.64445644  1
  O  O115  1  0.92841193  0.36579892  0.63924380  1
  O  O116  1  0.24993467  0.12545279  0.63961571  1
  O  O117  1  0.75087596  0.14110437  0.64011875  1
  O  O118  1  0.31919874  0.50579842  0.63995868  1
  O  O119  1  0.81819041  0.50437479  0.64312295  1
  O  O120  1  0.44222001  0.50450904  0.13872485  1
  O  O121  1  0.93880937  0.49965960  0.13517581  1
  O  O122  1  0.31667367  0.12199532  0.14347739  1
  O  O123  1  0.81545296  0.12003597  0.14345374  1
  O  O124  1  0.25137153  0.37537038  0.13698655  1
  O  O125  1  0.75068673  0.37629950  0.13630586  1
  O  O126  1  0.23984928  0.31727649  0.02346018  1
  O  O127  1  0.73779426  0.31661692  0.02278230  1
  O  O128  1  0.41997791  0.52370946  0.02536244  1
  O  O129  1  0.91967435  0.52671500  0.02101480  1
  O  O130  1  0.34487231  0.16676848  0.02609755  1
  O  O131  1  0.84066034  0.16346758  0.02614829  1
  O  O132  1  0.23980775  0.16431052  0.52649786  1
  O  O133  1  0.73606934  0.16032467  0.52651434  1
  O  O134  1  0.34679204  0.53332864  0.52466085  1
  O  O135  1  0.84337158  0.52247144  0.52705391  1
  O  O136  1  0.41998295  0.31004955  0.52813050  1
  O  O137  1  0.91951945  0.31128464  0.52507613  1
  O  O138  1  0.26669734  0.69381396  0.97386432  1
  O  O139  1  0.76134959  0.68496330  0.97210291  1
  O  O140  1  0.07960064  0.47024109  0.97702337  1
  O  O141  1  0.58020557  0.47151059  0.97372800  1
  O  O142  1  0.15644082  0.83526906  0.97291952  1
  O  O143  1  0.65527607  0.83679213  0.97326397  1
  O  O144  1  0.25756204  0.83513570  0.47237092  1
  O  O145  1  0.76160323  0.83754517  0.47492038  1
  O  O146  1  0.15575331  0.47579377  0.47557048  1
  O  O147  1  0.65813396  0.48154193  0.47523256  1
  O  O148  1  0.07660221  0.68236980  0.48006304  1
  O  O149  1  0.58132162  0.68827417  0.47735485  1
  O  O150  1  0.06433120  0.62409293  0.36539714  1
  O  O151  1  0.56396545  0.62547318  0.36388445  1
  O  O152  1  0.25582221  0.88089495  0.35571385  1
  O  O153  1  0.75553779  0.87780446  0.35684329  1
  O  O154  1  0.18995376  0.49694855  0.36247424  1
  O  O155  1  0.69003122  0.49709399  0.36203931  1
  O  O156  1  0.06443674  0.50536922  0.86328780  1
  O  O157  1  0.56898020  0.49499937  0.85726042  1
  O  O158  1  0.18961032  0.88284003  0.86024933  1
  O  O159  1  0.67983737  0.85760007  0.85997004  1
  O  O160  1  0.25355757  0.63364319  0.85912298  1
  O  O161  1  0.75164175  0.63951403  0.85551138  1
  O  O162  1  0.00629505  0.82682848  0.41600919  1
  O  O163  1  0.50716675  0.82830722  0.41563745  1
  O  O164  1  0.40211704  0.97488221  0.41493402  1
  O  O165  1  0.90311345  0.97630947  0.41487480  1
  O  O166  1  0.08197357  0.19373618  0.41515497  1
  O  O167  1  0.58120144  0.19536679  0.41594800  1
  O  O168  1  0.00649318  0.18452845  0.91415725  1
  O  O169  1  0.50989683  0.18652087  0.90964945  1
  O  O170  1  0.08080511  0.96662447  0.91314725  1
  O  O171  1  0.58272303  0.97848819  0.91058023  1
  O  O172  1  0.40551516  0.84397582  0.91042164  1
  O  O173  1  0.90135757  0.82647019  0.91192869  1
  O  O174  1  0.48639381  0.15870600  0.58794418  1
  O  O175  1  0.98255234  0.16430715  0.58917756  1
  O  O176  1  0.09311639  0.01455806  0.58525056  1
  O  O177  1  0.59450220  0.02419251  0.59130107  1
  O  O178  1  0.41726001  0.81735727  0.58999653  1
  O  O179  1  0.91508991  0.80441396  0.58629449  1
  O  O180  1  0.48535541  0.80682854  0.08502590  1
  O  O181  1  0.98422719  0.80580271  0.08369935  1
  O  O182  1  0.41456552  0.02260214  0.08544934  1
  O  O183  1  0.91523735  0.02577670  0.08470302  1
  O  O184  1  0.09399793  0.17352451  0.08471009  1
  O  O185  1  0.59271631  0.17269611  0.08427292  1
  O  O186  1  0.35160484  0.17174510  0.74831162  1
  O  O187  1  0.83981350  0.16675578  0.74227046  1
  O  O188  1  0.22963956  0.30169951  0.74846937  1
  O  O189  1  0.73956644  0.31790930  0.74289388  1
  O  O190  1  0.41753125  0.52255558  0.74878821  1
  O  O191  1  0.90963832  0.51697358  0.74334096  1
  O  O192  1  0.33777842  0.51223087  0.24825401  1
  O  O193  1  0.83805918  0.51280367  0.24754912  1
  O  O194  1  0.40839847  0.29382934  0.24932546  1
  O  O195  1  0.90857012  0.29449434  0.24863569  1
  O  O196  1  0.23093636  0.15262914  0.24829758  1
  O  O197  1  0.73102399  0.15306351  0.24817275  1
  O  O198  1  0.32788930  0.50344785  0.92379832  1
  O  O199  1  0.82182921  0.49219060  0.91940138  1
  O  O200  1  0.42604054  0.34900833  0.92192431  1
  O  O201  1  0.92512667  0.35346645  0.92437024  1
  O  O202  1  0.25410652  0.14885968  0.92579858  1
  O  O203  1  0.75438046  0.13737634  0.92179760  1
  O  O204  1  0.32749123  0.15670638  0.42507786  1
  O  O205  1  0.82519924  0.15219921  0.42491536  1
  O  O206  1  0.25506439  0.36174739  0.42736682  1
  O  O207  1  0.75397841  0.36156259  0.42719127  1
  O  O208  1  0.42731961  0.49459467  0.42668914  1
  O  O209  1  0.92475119  0.49373042  0.42613996  1
  O  O210  1  0.18056591  0.50706753  0.07370686  1
  O  O211  1  0.67878315  0.50659307  0.07335804  1
  O  O212  1  0.07442307  0.63994446  0.07347132  1
  O  O213  1  0.57438596  0.63947039  0.07381899  1
  O  O214  1  0.24913732  0.84710852  0.07515270  1
  O  O215  1  0.74937642  0.84573969  0.07377391  1
  O  O216  1  0.17997977  0.85358460  0.57534532  1
  O  O217  1  0.68415775  0.86016232  0.57821674  1
  O  O218  1  0.25234348  0.65568092  0.57531531  1
  O  O219  1  0.74936016  0.65129759  0.57827484  1
  O  O220  1  0.07157930  0.50973840  0.57910728  1
  O  O221  1  0.57629961  0.50261194  0.57687455  1
  O  O222  1  0.15394790  0.84615978  0.25177931  1
  O  O223  1  0.65457683  0.84710959  0.25171487  1
  O  O224  1  0.26136339  0.70558959  0.25128360  1
  O  O225  1  0.76152286  0.70624362  0.25081919  1
  O  O226  1  0.08144433  0.48752916  0.25239933  1
  O  O227  1  0.58167177  0.48755106  0.25222214  1
  O  O228  1  0.15229080  0.45734789  0.75242354  1
  O  O229  1  0.65070858  0.47595334  0.75571869  1
  O  O230  1  0.08229608  0.67527165  0.75177454  1
  O  O231  1  0.58418166  0.69059366  0.75696466  1
  O  O232  1  0.26331893  0.82541489  0.75117731  1
  O  O233  1  0.75862867  0.82291789  0.75654246  1
