# generated using pymatgen
data_Na3In4P3(SO8)3
_symmetry_space_group_name_H-M   'P 1'
_cell_length_a   8.95796394
_cell_length_b   8.95911166
_cell_length_c   23.35295145
_cell_angle_alpha   89.05842435
_cell_angle_beta   90.84429191
_cell_angle_gamma   120.09709281
_symmetry_Int_Tables_number   1
_chemical_formula_structural   Na3In4P3(SO8)3
_chemical_formula_sum   'Na9 In12 P9 S9 O72'
_cell_volume   1621.25022109
_cell_formula_units_Z   3
loop_
 _symmetry_equiv_pos_site_id
 _symmetry_equiv_pos_as_xyz
  1  'x, y, z'
loop_
 _atom_site_type_symbol
 _atom_site_label
 _atom_site_symmetry_multiplicity
 _atom_site_fract_x
 _atom_site_fract_y
 _atom_site_fract_z
 _atom_site_occupancy
  Na  Na0  1  0.35842085  0.35878127  0.25169377  1
  Na  Na1  1  0.69227152  0.02552756  0.91672238  1
  Na  Na2  1  0.97420946  0.30743555  0.41674408  1
  Na  Na3  1  0.00529092  0.99806269  0.50006378  1
  Na  Na4  1  0.00115713  0.99393898  0.00039671  1
  Na  Na5  1  0.66101576  0.33494217  0.83313397  1
  Na  Na6  1  0.66688208  0.33338362  0.33335510  1
  Na  Na7  1  0.33207942  0.67932534  0.16639272  1
  Na  Na8  1  0.33334053  0.66661084  0.66672526  1
  In  In9  1  0.01094650  0.99966399  0.35015026  1
  In  In10  1  0.99956891  0.99353127  0.85026447  1
  In  In11  1  0.99345780  0.00587008  0.64938648  1
  In  In12  1  0.99768574  0.00350818  0.14950053  1
  In  In13  1  0.67347652  0.32755717  0.68404537  1
  In  In14  1  0.67135122  0.31995838  0.18373097  1
  In  In15  1  0.66106797  0.33269762  0.98301331  1
  In  In16  1  0.66593606  0.33916352  0.48321775  1
  In  In17  1  0.34257917  0.67808591  0.01715928  1
  In  In18  1  0.32255561  0.65749974  0.51738870  1
  In  In19  1  0.32236198  0.66743971  0.31647658  1
  In  In20  1  0.34459785  0.67652973  0.81619527  1
  P  P21  1  0.29376309  0.99874240  0.24841051  1
  P  P22  1  0.99936071  0.29318219  0.25123002  1
  P  P23  1  0.70537935  0.99951188  0.75071187  1
  P  P24  1  0.96127740  0.33371369  0.58264229  1
  P  P25  1  0.66805291  0.03725622  0.08225194  1
  P  P26  1  0.62696360  0.66316105  0.91692691  1
  P  P27  1  0.33008811  0.96072066  0.91632230  1
  P  P28  1  0.33659005  0.37425537  0.41595771  1
  P  P29  1  0.03754890  0.66886342  0.41729186  1
  S  S30  1  0.70473239  0.70460257  0.24987378  1
  S  S31  1  0.29612656  0.29591844  0.74978449  1
  S  S32  1  0.00027441  0.70532549  0.74905066  1
  S  S33  1  0.37060923  0.03753393  0.58361672  1
  S  S34  1  0.66639585  0.62791874  0.58433356  1
  S  S35  1  0.96107820  0.62762890  0.08335622  1
  S  S36  1  0.37158837  0.33461522  0.08407805  1
  S  S37  1  0.04274713  0.37594331  0.91659071  1
  S  S38  1  0.62611992  0.95836140  0.41723091  1
  O  O39  1  0.21967972  0.03634337  0.30205766  1
  O  O40  1  0.80938874  0.78022738  0.30204247  1
  O  O41  1  0.96884530  0.18552267  0.30701728  1
  O  O42  1  0.21970995  0.18854746  0.80192006  1
  O  O43  1  0.97378572  0.78127709  0.80109501  1
  O  O44  1  0.81298306  0.02956768  0.80670260  1
  O  O45  1  0.78732951  0.97024853  0.69789691  1
  O  O46  1  0.19153556  0.21761529  0.69760724  1
  O  O47  1  0.02956765  0.81325296  0.69712050  1
  O  O48  1  0.78005520  0.80873115  0.19772478  1
  O  O49  1  0.03422679  0.21367374  0.19861217  1
  O  O50  1  0.18192943  0.96864122  0.19454276  1
  O  O51  1  0.87946707  0.36313595  0.63542617  1
  O  O52  1  0.47522493  0.11589442  0.63565710  1
  O  O53  1  0.63708614  0.52001513  0.63617322  1
  O  O54  1  0.88217914  0.52357841  0.13580542  1
  O  O55  1  0.63725804  0.11793436  0.13497568  1
  O  O56  1  0.47630555  0.36326952  0.13715907  1
  O  O57  1  0.45117426  0.30909922  0.03300382  1
  O  O58  1  0.85481886  0.55066884  0.03130170  1
  O  O59  1  0.69757228  0.14506799  0.02631721  1
  O  O60  1  0.44682043  0.14481261  0.53134546  1
  O  O61  1  0.69277241  0.55191646  0.53218244  1
  O  O62  1  0.85367659  0.30373382  0.52665518  1
  O  O63  1  0.54933584  0.69939489  0.96987685  1
  O  O64  1  0.14627244  0.45163836  0.96900172  1
  O  O65  1  0.29684710  0.85051274  0.97079628  1
  O  O66  1  0.54951284  0.85452530  0.46935488  1
  O  O67  1  0.30281120  0.45493909  0.46840404  1
  O  O68  1  0.14922047  0.70208957  0.47112952  1
  O  O69  1  0.11288812  0.63017426  0.36420379  1
  O  O70  1  0.52278913  0.88311908  0.36472673  1
  O  O71  1  0.36639147  0.48052210  0.35985291  1
  O  O72  1  0.11848858  0.47957627  0.86425616  1
  O  O73  1  0.36658807  0.88340766  0.86343391  1
  O  O74  1  0.51710191  0.63053687  0.86254869  1
  O  O75  1  0.01301250  0.82661823  0.41098374  1
  O  O76  1  0.80239014  0.98166423  0.41199503  1
  O  O77  1  0.16536746  0.19670881  0.41182132  1
  O  O78  1  0.01936282  0.19911797  0.91188091  1
  O  O79  1  0.17174087  0.98480241  0.90979230  1
  O  O80  1  0.80482517  0.83427050  0.91147181  1
  O  O81  1  0.97926430  0.16996893  0.58747396  1
  O  O82  1  0.19636656  0.01802372  0.58937359  1
  O  O83  1  0.82513312  0.79955657  0.58945553  1
  O  O84  1  0.97987905  0.80139882  0.08827864  1
  O  O85  1  0.83205764  0.02030872  0.08799719  1
  O  O86  1  0.19978836  0.17673227  0.08860014  1
  O  O87  1  0.68752986  0.16327581  0.74589912  1
  O  O88  1  0.47037615  0.31542345  0.74392550  1
  O  O89  1  0.84154537  0.53374100  0.74384659  1
  O  O90  1  0.68168323  0.52825206  0.24403313  1
  O  O91  1  0.84127873  0.31762976  0.24581025  1
  O  O92  1  0.47102705  0.17124149  0.24336528  1
  O  O93  1  0.65113248  0.50491101  0.92347698  1
  O  O94  1  0.86592301  0.35257669  0.92135696  1
  O  O95  1  0.50105662  0.13842760  0.92183392  1
  O  O96  1  0.64841605  0.13491683  0.42179656  1
  O  O97  1  0.49534657  0.35073150  0.42271525  1
  O  O98  1  0.86003242  0.49778240  0.42250056  1
  O  O99  1  0.35155706  0.48862255  0.07776677  1
  O  O100  1  0.13246574  0.64076182  0.07822625  1
  O  O101  1  0.50400082  0.85622004  0.07894004  1
  O  O102  1  0.35804319  0.86682780  0.57814533  1
  O  O103  1  0.51284649  0.64889491  0.57801978  1
  O  O104  1  0.14301700  0.49691555  0.57926655  1
  O  O105  1  0.31914073  0.84144978  0.25491751  1
  O  O106  1  0.52924343  0.68285648  0.25521623  1
  O  O107  1  0.17017125  0.47080353  0.25523425  1
  O  O108  1  0.30876298  0.46671121  0.75519375  1
  O  O109  1  0.15379235  0.68428779  0.75531593  1
  O  O110  1  0.52380071  0.83622208  0.75406275  1
