# generated using pymatgen
data_Na2Mg(FeO2)4
_symmetry_space_group_name_H-M   'P 1'
_cell_length_a   6.43298096
_cell_length_b   6.44542750
_cell_length_c   6.43013242
_cell_angle_alpha   55.98066562
_cell_angle_beta   56.06904786
_cell_angle_gamma   55.95355889
_symmetry_Int_Tables_number   1
_chemical_formula_structural   Na2Mg(FeO2)4
_chemical_formula_sum   'Na2 Mg1 Fe4 O8'
_cell_volume   171.05912105
_cell_formula_units_Z   1
loop_
 _symmetry_equiv_pos_site_id
 _symmetry_equiv_pos_as_xyz
  1  'x, y, z'
loop_
 _atom_site_type_symbol
 _atom_site_label
 _atom_site_symmetry_multiplicity
 _atom_site_fract_x
 _atom_site_fract_y
 _atom_site_fract_z
 _atom_site_occupancy
  Na  Na0  1  0.15608400  0.15414100  0.15608800  1
  Na  Na1  1  0.84388800  0.84590800  0.84388800  1
  Mg  Mg2  1  0.00000400  0.99999300  0.99999400  1
  Fe  Fe3  1  0.49999900  0.49997200  0.00001800  1
  Fe  Fe4  1  0.49999200  0.00001600  0.49997800  1
  Fe  Fe5  1  0.00001300  0.49997700  0.50000300  1
  Fe  Fe6  1  0.49999000  0.50001900  0.49997900  1
  O  O7  1  0.27908800  0.28018800  0.27872800  1
  O  O8  1  0.72402000  0.25192700  0.25281200  1
  O  O9  1  0.25266900  0.72342600  0.25292200  1
  O  O10  1  0.25241900  0.25177900  0.72424800  1
  O  O11  1  0.74759500  0.74820500  0.27575400  1
  O  O12  1  0.74735500  0.27656800  0.74710900  1
  O  O13  1  0.72090900  0.71981900  0.72128500  1
  O  O14  1  0.27597700  0.74806200  0.74719500  1
