# generated using pymatgen
data_Na6Ta4Zn2Si6(SO12)3
_symmetry_space_group_name_H-M   'P 1'
_cell_length_a   9.01032706
_cell_length_b   9.01032675
_cell_length_c   22.42074539
_cell_angle_alpha   90.00000000
_cell_angle_beta   90.00000000
_cell_angle_gamma   120.00000115
_symmetry_Int_Tables_number   1
_chemical_formula_structural   Na6Ta4Zn2Si6(SO12)3
_chemical_formula_sum   'Na12 Ta8 Zn4 Si12 S6 O72'
_cell_volume   1576.38309679
_cell_formula_units_Z   2
loop_
 _symmetry_equiv_pos_site_id
 _symmetry_equiv_pos_as_xyz
  1  'x, y, z'
loop_
 _atom_site_type_symbol
 _atom_site_label
 _atom_site_symmetry_multiplicity
 _atom_site_fract_x
 _atom_site_fract_y
 _atom_site_fract_z
 _atom_site_occupancy
  Na  Na0  1  0.96755779  0.68008627  0.91578659  1
  Na  Na1  1  0.71252748  0.03244221  0.91578659  1
  Na  Na2  1  0.31991373  0.28747252  0.91578659  1
  Na  Na3  1  0.96755779  0.28747252  0.41578659  1
  Na  Na4  1  0.31991373  0.03244221  0.41578659  1
  Na  Na5  1  0.71252748  0.68008627  0.41578659  1
  Na  Na6  1  -0.00000000  0.00000000  0.49406564  1
  Na  Na7  1  -0.00000000  0.00000000  0.99406564  1
  Na  Na8  1  0.66666700  0.33333300  0.82309383  1
  Na  Na9  1  0.66666700  0.33333300  0.32309383  1
  Na  Na10  1  0.33333300  0.66666700  0.16142077  1
  Na  Na11  1  0.33333300  0.66666700  0.66142077  1
  Ta  Ta12  1  -0.00000000  0.00000000  0.64049177  1
  Ta  Ta13  1  -0.00000000  0.00000000  0.14049177  1
  Ta  Ta14  1  0.66666700  0.33333300  0.98299394  1
  Ta  Ta15  1  0.66666700  0.33333300  0.48299394  1
  Ta  Ta16  1  0.33333300  0.66666700  0.02242005  1
  Ta  Ta17  1  0.33333300  0.66666700  0.52242005  1
  Ta  Ta18  1  0.33333300  0.66666700  0.31306151  1
  Ta  Ta19  1  0.33333300  0.66666700  0.81306151  1
  Zn  Zn20  1  -0.00000000  0.00000000  0.35518669  1
  Zn  Zn21  1  -0.00000000  0.00000000  0.85518669  1
  Zn  Zn22  1  0.66666700  0.33333300  0.66936753  1
  Zn  Zn23  1  0.66666700  0.33333300  0.16936753  1
  Si  Si24  1  0.95790759  0.33828500  0.58697148  1
  Si  Si25  1  0.38037842  0.04209241  0.58697148  1
  Si  Si26  1  0.66171500  0.61962158  0.58697148  1
  Si  Si27  1  0.95790759  0.61962158  0.08697148  1
  Si  Si28  1  0.66171500  0.04209241  0.08697148  1
  Si  Si29  1  0.38037842  0.33828500  0.08697148  1
  Si  Si30  1  0.62194642  0.66257570  0.91606842  1
  Si  Si31  1  0.04062828  0.37805358  0.91606842  1
  Si  Si32  1  0.33742430  0.95937172  0.91606842  1
  Si  Si33  1  0.62194642  0.95937172  0.41606842  1
  Si  Si34  1  0.33742430  0.37805358  0.41606842  1
  Si  Si35  1  0.04062828  0.66257570  0.41606842  1
  S  S36  1  0.28946568  0.99667509  0.25237359  1
  S  S37  1  0.70720941  0.71053432  0.25237359  1
  S  S38  1  0.00332491  0.29279059  0.25237359  1
  S  S39  1  0.28946568  0.29279059  0.75237359  1
  S  S40  1  0.00332491  0.71053432  0.75237359  1
  S  S41  1  0.70720941  0.99667509  0.75237359  1
  O  O42  1  0.20817406  0.00498064  0.30837435  1
  O  O43  1  0.79680657  0.79182594  0.30837435  1
  O  O44  1  0.99501936  0.20319343  0.30837435  1
  O  O45  1  0.20817406  0.20319343  0.80837435  1
  O  O46  1  0.99501936  0.79182594  0.80837435  1
  O  O47  1  0.79680657  0.00498064  0.80837435  1
  O  O48  1  0.80160523  0.97947162  0.69978299  1
  O  O49  1  0.17786639  0.19839477  0.69978299  1
  O  O50  1  0.02052838  0.82213361  0.69978299  1
  O  O51  1  0.80160523  0.82213361  0.19978299  1
  O  O52  1  0.02052838  0.19839477  0.19978299  1
  O  O53  1  0.17786639  0.97947162  0.19978299  1
  O  O54  1  0.88698442  0.37597974  0.64561436  1
  O  O55  1  0.48899632  0.11301558  0.64561436  1
  O  O56  1  0.62402026  0.51100368  0.64561436  1
  O  O57  1  0.88698442  0.51100368  0.14561436  1
  O  O58  1  0.62402026  0.11301558  0.14561436  1
  O  O59  1  0.48899632  0.37597974  0.14561436  1
  O  O60  1  0.46714442  0.30247313  0.02621033  1
  O  O61  1  0.83532972  0.53285558  0.02621033  1
  O  O62  1  0.69752687  0.16467028  0.02621033  1
  O  O63  1  0.46714442  0.16467028  0.52621033  1
  O  O64  1  0.69752687  0.53285558  0.52621033  1
  O  O65  1  0.83532972  0.30247313  0.52621033  1
  O  O66  1  0.52470365  0.69146907  0.97156281  1
  O  O67  1  0.16676443  0.47529635  0.97156281  1
  O  O68  1  0.30853093  0.83323557  0.97156281  1
  O  O69  1  0.52470365  0.83323557  0.47156281  1
  O  O70  1  0.30853093  0.47529635  0.47156281  1
  O  O71  1  0.16676443  0.69146907  0.47156281  1
  O  O72  1  0.13682747  0.63143223  0.35648582  1
  O  O73  1  0.49460375  0.86317253  0.35648582  1
  O  O74  1  0.36856777  0.50539625  0.35648582  1
  O  O75  1  0.13682747  0.50539625  0.85648582  1
  O  O76  1  0.36856777  0.86317253  0.85648582  1
  O  O77  1  0.49460375  0.63143223  0.85648582  1
  O  O78  1  0.01653315  0.82704187  0.41130090  1
  O  O79  1  0.81050872  0.98346685  0.41130090  1
  O  O80  1  0.17295813  0.18949128  0.41130090  1
  O  O81  1  0.01653315  0.18949128  0.91130090  1
  O  O82  1  0.17295813  0.98346685  0.91130090  1
  O  O83  1  0.81050872  0.82704187  0.91130090  1
  O  O84  1  0.97466406  0.16048308  0.59369261  1
  O  O85  1  0.18581902  0.02533594  0.59369261  1
  O  O86  1  0.83951692  0.81418098  0.59369261  1
  O  O87  1  0.97466406  0.81418098  0.09369261  1
  O  O88  1  0.83951692  0.02533594  0.09369261  1
  O  O89  1  0.18581902  0.16048308  0.09369261  1
  O  O90  1  0.68236918  0.14359538  0.74824258  1
  O  O91  1  0.46122721  0.31763082  0.74824258  1
  O  O92  1  0.85640462  0.53877279  0.74824258  1
  O  O93  1  0.68236918  0.53877279  0.24824258  1
  O  O94  1  0.85640462  0.31763082  0.24824258  1
  O  O95  1  0.46122721  0.14359538  0.24824258  1
  O  O96  1  0.62883026  0.48435966  0.92155028  1
  O  O97  1  0.85553040  0.37116974  0.92155028  1
  O  O98  1  0.51564034  0.14446960  0.92155028  1
  O  O99  1  0.62883026  0.14446960  0.42155028  1
  O  O100  1  0.51564034  0.37116974  0.42155028  1
  O  O101  1  0.85553040  0.48435966  0.42155028  1
  O  O102  1  0.34362332  0.49471126  0.07320622  1
  O  O103  1  0.15108694  0.65637668  0.07320622  1
  O  O104  1  0.50528874  0.84891306  0.07320622  1
  O  O105  1  0.34362332  0.84891306  0.57320622  1
  O  O106  1  0.50528874  0.65637668  0.57320622  1
  O  O107  1  0.15108694  0.49471126  0.57320622  1
  O  O108  1  0.29767735  0.83001759  0.25207643  1
  O  O109  1  0.53233924  0.70232265  0.25207643  1
  O  O110  1  0.16998241  0.46766076  0.25207643  1
  O  O111  1  0.29767735  0.46766076  0.75207643  1
  O  O112  1  0.16998241  0.70232265  0.75207643  1
  O  O113  1  0.53233924  0.83001759  0.75207643  1
