# generated using pymatgen
data_MgZn2(FeO3)2
_symmetry_space_group_name_H-M   'P 1'
_cell_length_a   5.82108330
_cell_length_b   5.82108279
_cell_length_c   5.82108289
_cell_angle_alpha   53.26131128
_cell_angle_beta   53.26131457
_cell_angle_gamma   53.26131809
_symmetry_Int_Tables_number   1
_chemical_formula_structural   MgZn2(FeO3)2
_chemical_formula_sum   'Mg1 Zn2 Fe2 O6'
_cell_volume   117.46452638
_cell_formula_units_Z   1
loop_
 _symmetry_equiv_pos_site_id
 _symmetry_equiv_pos_as_xyz
  1  'x, y, z'
loop_
 _atom_site_type_symbol
 _atom_site_label
 _atom_site_symmetry_multiplicity
 _atom_site_fract_x
 _atom_site_fract_y
 _atom_site_fract_z
 _atom_site_occupancy
  Mg  Mg0  1  0.29753905  0.29753905  0.29753905  1
  Zn  Zn1  1  0.48508159  0.48508159  0.48508159  1
  Zn  Zn2  1  0.65459137  0.65459137  0.65459137  1
  Fe  Fe3  1  0.02047936  0.02047936  0.02047936  1
  Fe  Fe4  1  0.83206060  0.83206060  0.83206060  1
  O  O5  1  0.07090921  0.73101205  0.42477404  1
  O  O6  1  0.61990140  0.90161623  0.22394010  1
  O  O7  1  0.22394010  0.61990140  0.90161623  1
  O  O8  1  0.73101205  0.42477404  0.07090921  1
  O  O9  1  0.42477404  0.07090921  0.73101205  1
  O  O10  1  0.90161623  0.22394010  0.61990140  1
