# generated using pymatgen
data_Na14La4Zn4Si5S7O48
_symmetry_space_group_name_H-M   'P 1'
_cell_length_a   19.07770936
_cell_length_b   9.43992347
_cell_length_c   22.93926429
_cell_angle_alpha   90.08486607
_cell_angle_beta   90.57596428
_cell_angle_gamma   119.92192924
_symmetry_Int_Tables_number   1
_chemical_formula_structural   Na14La4Zn4Si5S7O48
_chemical_formula_sum   'Na42 La12 Zn12 Si15 S21 O144'
_cell_volume   3580.23716021
_cell_formula_units_Z   3
loop_
 _symmetry_equiv_pos_site_id
 _symmetry_equiv_pos_as_xyz
  1  'x, y, z'
loop_
 _atom_site_type_symbol
 _atom_site_label
 _atom_site_symmetry_multiplicity
 _atom_site_fract_x
 _atom_site_fract_y
 _atom_site_fract_z
 _atom_site_occupancy
  Na  Na0  1  0.80981511  0.98521661  0.25660437  1
  Na  Na1  1  0.18372699  0.34969688  0.25722808  1
  Na  Na2  1  0.69040379  0.36926648  0.25525047  1
  Na  Na3  1  0.99716439  0.64195035  0.24277793  1
  Na  Na4  1  0.51376630  0.65357136  0.24398868  1
  Na  Na5  1  0.31876486  0.62821099  0.75966973  1
  Na  Na6  1  0.01313940  0.37108442  0.74567845  1
  Na  Na7  1  0.49500675  0.36265000  0.74289737  1
  Na  Na8  1  0.19289980  0.02445592  0.75286905  1
  Na  Na9  1  0.67007450  0.99455077  0.75200835  1
  Na  Na10  1  0.14921722  0.33210147  0.58167859  1
  Na  Na11  1  0.65085813  0.32323231  0.57917922  1
  Na  Na12  1  0.33078881  0.98768931  0.59392455  1
  Na  Na13  1  0.83241908  0.99273293  0.58340951  1
  Na  Na14  1  0.15741405  0.99218385  0.06824712  1
  Na  Na15  1  0.64517447  0.96412510  0.07340087  1
  Na  Na16  1  0.33442062  0.67216146  0.07476493  1
  Na  Na17  1  0.82830744  0.67139053  0.08567695  1
  Na  Na18  1  0.47972036  0.67674634  0.91698216  1
  Na  Na19  1  0.99178589  0.68353400  0.91305527  1
  Na  Na20  1  0.34198579  0.03347091  0.90695642  1
  Na  Na21  1  0.84377124  0.03860217  0.90934026  1
  Na  Na22  1  0.17587722  0.28842942  0.91227746  1
  Na  Na23  1  0.65993782  0.28305553  0.91197790  1
  Na  Na24  1  0.49225433  0.29970853  0.41774304  1
  Na  Na25  1  0.98182470  0.28952880  0.43343712  1
  Na  Na26  1  0.16864994  0.04790765  0.42491708  1
  Na  Na27  1  0.67528580  0.06648489  0.42042203  1
  Na  Na28  1  0.34699885  0.64988138  0.41690071  1
  Na  Na29  1  0.83938595  0.64467536  0.41406651  1
  Na  Na30  1  0.01260986  0.01574143  0.50180125  1
  Na  Na31  1  0.51477583  0.00866845  0.49401209  1
  Na  Na32  1  0.01608686  0.02849762  0.98856741  1
  Na  Na33  1  0.50998677  0.00520849  0.99534037  1
  Na  Na34  1  0.32910080  0.33578032  0.82950606  1
  Na  Na35  1  0.81921494  0.32769344  0.83827406  1
  Na  Na36  1  0.32192388  0.30910332  0.33942260  1
  Na  Na37  1  0.81939251  0.31955193  0.33649898  1
  Na  Na38  1  0.16819678  0.66893310  0.16348259  1
  Na  Na39  1  0.65012401  0.64384252  0.16463171  1
  Na  Na40  1  0.15504584  0.65791148  0.67021026  1
  Na  Na41  1  0.65356013  0.66282668  0.67161572  1
  La  La42  1  0.01004667  0.01650408  0.65022730  1
  La  La43  1  0.50659436  0.99433731  0.65034204  1
  La  La44  1  0.00836282  0.01245815  0.14759203  1
  La  La45  1  0.50992507  0.00268504  0.14868006  1
  La  La46  1  0.83122009  0.33623297  0.68432293  1
  La  La47  1  0.33164730  0.32725173  0.18234705  1
  La  La48  1  0.15610583  0.64920189  0.01015770  1
  La  La49  1  0.65609914  0.65070146  0.01739333  1
  La  La50  1  0.15629977  0.66785823  0.52048870  1
  La  La51  1  0.65735133  0.66538177  0.51073136  1
  La  La52  1  0.17093184  0.67641803  0.32285805  1
  La  La53  1  0.66611687  0.66148489  0.82056792  1
  Zn  Zn54  1  0.01896821  0.02844432  0.34882955  1
  Zn  Zn55  1  0.52814581  0.03809884  0.34426343  1
  Zn  Zn56  1  0.02561627  0.01480218  0.84421465  1
  Zn  Zn57  1  0.52839834  0.97942508  0.83710073  1
  Zn  Zn58  1  0.32294059  0.34237677  0.68878546  1
  Zn  Zn59  1  0.80388314  0.28039435  0.18005384  1
  Zn  Zn60  1  0.32766755  0.33394281  0.98998060  1
  Zn  Zn61  1  0.81478652  0.30888009  0.98839726  1
  Zn  Zn62  1  0.31420599  0.32663641  0.49093017  1
  Zn  Zn63  1  0.83068612  0.32246751  0.49671603  1
  Zn  Zn64  1  0.66787076  0.66441035  0.32029341  1
  Zn  Zn65  1  0.17279849  0.67855601  0.81986913  1
  Si  Si66  1  0.15034590  0.99576607  0.25264472  1
  Si  Si67  1  0.65671716  0.98749757  0.25435459  1
  Si  Si68  1  0.15481094  0.32636211  0.75538906  1
  Si  Si69  1  0.65170336  0.30140925  0.75270177  1
  Si  Si70  1  0.49191290  0.67617924  0.75351417  1
  Si  Si71  1  0.98039069  0.32827771  0.58107629  1
  Si  Si72  1  0.19460676  0.05019568  0.58699946  1
  Si  Si73  1  0.68292445  0.03349023  0.57785679  1
  Si  Si74  1  0.47922692  0.62950241  0.08089997  1
  Si  Si75  1  0.18300015  0.33496051  0.08051528  1
  Si  Si76  1  0.69072216  0.34288623  0.08569638  1
  Si  Si77  1  0.16857854  0.97132780  0.91575314  1
  Si  Si78  1  0.67016910  0.98592110  0.91699332  1
  Si  Si79  1  0.16737881  0.35484053  0.41468906  1
  Si  Si80  1  0.66731021  0.36659920  0.41342771  1
  S  S81  1  0.35201305  0.70462518  0.25410534  1
  S  S82  1  0.85006544  0.69952398  0.25344607  1
  S  S83  1  0.99403257  0.30010967  0.25506644  1
  S  S84  1  0.50408830  0.30828134  0.25844727  1
  S  S85  1  0.00493805  0.70062352  0.75891178  1
  S  S86  1  0.34576654  0.99556859  0.75271253  1
  S  S87  1  0.85359684  0.00160409  0.75440790  1
  S  S88  1  0.47596822  0.33235257  0.58177805  1
  S  S89  1  0.33393637  0.62648125  0.57989469  1
  S  S90  1  0.83325027  0.63724473  0.57523217  1
  S  S91  1  0.97559565  0.61495585  0.08480755  1
  S  S92  1  0.33176166  0.02488638  0.07661783  1
  S  S93  1  0.83355866  0.04515362  0.08286302  1
  S  S94  1  0.32050231  0.66995100  0.91457167  1
  S  S95  1  0.82943589  0.67187647  0.92268353  1
  S  S96  1  0.00663353  0.34638266  0.90897073  1
  S  S97  1  0.50235965  0.33926350  0.91373502  1
  S  S98  1  0.32945701  0.98805203  0.42181490  1
  S  S99  1  0.82320446  0.97185785  0.41082378  1
  S  S100  1  0.00440309  0.66834781  0.41096571  1
  S  S101  1  0.50840747  0.66874331  0.40722125  1
  O  O102  1  0.09795780  0.00266117  0.30751851  1
  O  O103  1  0.61640754  0.03213269  0.30896591  1
  O  O104  1  0.39580157  0.80677382  0.30508715  1
  O  O105  1  0.89912267  0.79603057  0.30434570  1
  O  O106  1  0.49765977  0.21275419  0.31171435  1
  O  O107  1  0.98632319  0.20248806  0.30797918  1
  O  O108  1  0.11066303  0.20507501  0.81060091  1
  O  O109  1  0.59864797  0.19446866  0.80907395  1
  O  O110  1  0.47699142  0.75290824  0.81417179  1
  O  O111  1  0.99738093  0.78172555  0.81231445  1
  O  O112  1  0.39450882  0.99932717  0.80338838  1
  O  O113  1  0.89764727  0.98673324  0.80507449  1
  O  O114  1  0.38277764  0.98135223  0.69692644  1
  O  O115  1  0.88950816  0.99188460  0.69839155  1
  O  O116  1  0.09702042  0.25049420  0.69629682  1
  O  O117  1  0.60450495  0.22362973  0.69016393  1
  O  O118  1  0.00408948  0.79026229  0.70619938  1
  O  O119  1  0.51095475  0.80741188  0.70151980  1
  O  O120  1  0.38861582  0.78551917  0.19846705  1
  O  O121  1  0.88767149  0.79059370  0.19816382  1
  O  O122  1  0.00294078  0.21780509  0.20279408  1
  O  O123  1  0.50346422  0.21782664  0.20548577  1
  O  O124  1  0.10229661  0.98067907  0.19055699  1
  O  O125  1  0.60070356  0.95207956  0.19519376  1
  O  O126  1  0.43789392  0.33764291  0.63629687  1
  O  O127  1  0.93774759  0.33373993  0.64181092  1
  O  O128  1  0.24956683  0.15215036  0.64338468  1
  O  O129  1  0.73198650  0.12218971  0.63837270  1
  O  O130  1  0.33729181  0.54234731  0.63244129  1
  O  O131  1  0.82968957  0.54587557  0.62838212  1
  O  O132  1  0.44085585  0.54569486  0.14418103  1
  O  O133  1  0.93762786  0.53040051  0.13939593  1
  O  O134  1  0.32915381  0.10919588  0.13035801  1
  O  O135  1  0.83861974  0.13520020  0.13760086  1
  O  O136  1  0.22715331  0.34167886  0.14340545  1
  O  O137  1  0.74178854  0.36200518  0.14639112  1
  O  O138  1  0.23104855  0.31862151  0.02462388  1
  O  O139  1  0.73626759  0.33983156  0.02647350  1
  O  O140  1  0.42525047  0.52340604  0.02436716  1
  O  O141  1  0.93501173  0.52110831  0.03137870  1
  O  O142  1  0.33534938  0.11696427  0.02389765  1
  O  O143  1  0.84135787  0.14049032  0.02976099  1
  O  O144  1  0.23209826  0.12893701  0.52293258  1
  O  O145  1  0.73010478  0.13752881  0.51947888  1
  O  O146  1  0.34194308  0.55054981  0.52479894  1
  O  O147  1  0.83785655  0.55310380  0.52209368  1
  O  O148  1  0.43574126  0.34854311  0.52848500  1
  O  O149  1  0.93146178  0.33357455  0.52204099  1
  O  O150  1  0.27996393  0.67999113  0.96920265  1
  O  O151  1  0.79182317  0.69167398  0.97663730  1
  O  O152  1  0.05867443  0.41293922  0.96272363  1
  O  O153  1  0.56106189  0.42205316  0.96318581  1
  O  O154  1  0.14988891  0.86782973  0.97762163  1
  O  O155  1  0.66104115  0.87422123  0.97416318  1
  O  O156  1  0.28906131  0.88861358  0.47419265  1
  O  O157  1  0.78439920  0.87524128  0.46471426  1
  O  O158  1  0.15620020  0.45872839  0.46774313  1
  O  O159  1  0.65090991  0.43876639  0.47458330  1
  O  O160  1  0.06444024  0.70635400  0.45962748  1
  O  O161  1  0.56118771  0.70642128  0.46039982  1
  O  O162  1  0.04151346  0.64831252  0.35670856  1
  O  O163  1  0.55050327  0.64950181  0.35651209  1
  O  O164  1  0.27263023  0.91104022  0.37080624  1
  O  O165  1  0.77092254  0.88596974  0.35933968  1
  O  O166  1  0.17933657  0.45406907  0.35301236  1
  O  O167  1  0.67658322  0.49085404  0.35929401  1
  O  O168  1  0.04957800  0.45113713  0.85883858  1
  O  O169  1  0.54070778  0.43685349  0.86029052  1
  O  O170  1  0.17878283  0.86260338  0.86330897  1
  O  O171  1  0.68450803  0.90442534  0.85810522  1
  O  O172  1  0.26789002  0.65167019  0.86340373  1
  O  O173  1  0.77107206  0.63485356  0.87324552  1
  O  O174  1  0.98997454  0.80928895  0.40827710  1
  O  O175  1  0.49286130  0.80873218  0.40188927  1
  O  O176  1  0.40632912  0.98786418  0.41329965  1
  O  O177  1  0.90451788  0.98604652  0.40712242  1
  O  O178  1  0.08366799  0.17203597  0.41544866  1
  O  O179  1  0.58402948  0.18136353  0.41094874  1
  O  O180  1  0.99044790  0.17467277  0.90360834  1
  O  O181  1  0.48858950  0.17133844  0.91025574  1
  O  O182  1  0.08566383  0.98926188  0.91031557  1
  O  O183  1  0.58559106  0.99497014  0.91376932  1
  O  O184  1  0.40016972  0.82086031  0.91267009  1
  O  O185  1  0.90667172  0.82661029  0.91358367  1
  O  O186  1  0.47531574  0.17102685  0.57704001  1
  O  O187  1  0.98167085  0.15344333  0.57640466  1
  O  O188  1  0.10472382  0.03747765  0.58599703  1
  O  O189  1  0.59449220  0.02509159  0.57481577  1
  O  O190  1  0.39873516  0.80189164  0.57899012  1
  O  O191  1  0.90310130  0.80622800  0.57759195  1
  O  O192  1  0.48250450  0.80945069  0.07664012  1
  O  O193  1  0.97400405  0.77496296  0.08155320  1
  O  O194  1  0.40075534  0.99426688  0.07869142  1
  O  O195  1  0.89911266  0.00245471  0.08255606  1
  O  O196  1  0.09289136  0.16566541  0.07584626  1
  O  O197  1  0.60251642  0.17257643  0.08393451  1
  O  O198  1  0.34027955  0.14835376  0.75252098  1
  O  O199  1  0.85654645  0.16373251  0.75868739  1
  O  O200  1  0.24326034  0.33703732  0.75030630  1
  O  O201  1  0.73752271  0.29812937  0.75704737  1
  O  O202  1  0.41176305  0.49528564  0.74369437  1
  O  O203  1  0.93641694  0.52915083  0.75851683  1
  O  O204  1  0.35154852  0.54478375  0.25856132  1
  O  O205  1  0.84630745  0.53731229  0.25324377  1
  O  O206  1  0.43535026  0.34132098  0.25847554  1
  O  O207  1  0.92272163  0.32218753  0.24983442  1
  O  O208  1  0.23863161  0.16559341  0.25641295  1
  O  O209  1  0.74925390  0.15015803  0.24899291  1
  O  O210  1  0.32958685  0.52156765  0.91578867  1
  O  O211  1  0.84567775  0.53301545  0.92593370  1
  O  O212  1  0.42526597  0.33925865  0.92152675  1
  O  O213  1  0.92866242  0.34436264  0.91689374  1
  O  O214  1  0.25171447  0.15287276  0.91799932  1
  O  O215  1  0.75238536  0.17049034  0.92067558  1
  O  O216  1  0.34483865  0.15850104  0.42553681  1
  O  O217  1  0.83216727  0.13782009  0.41420315  1
  O  O218  1  0.25077356  0.34058435  0.42121117  1
  O  O219  1  0.75002948  0.35268157  0.41480829  1
  O  O220  1  0.43022021  0.51451472  0.41527753  1
  O  O221  1  0.92760993  0.51506692  0.41987176  1
  O  O222  1  0.18001949  0.50708640  0.08079853  1
  O  O223  1  0.68479676  0.51205262  0.08740180  1
  O  O224  1  0.06373715  0.66126310  0.08592337  1
  O  O225  1  0.57434873  0.67068280  0.08270628  1
  O  O226  1  0.25458477  0.86189830  0.07760670  1
  O  O227  1  0.75450874  0.88841532  0.08343862  1
  O  O228  1  0.18853310  0.86812989  0.59049014  1
  O  O229  1  0.68048466  0.85568200  0.57980368  1
  O  O230  1  0.25429515  0.62329807  0.57980681  1
  O  O231  1  0.75699980  0.64709380  0.57527690  1
  O  O232  1  0.07578154  0.47742825  0.58442952  1
  O  O233  1  0.56421830  0.46541027  0.58365151  1
  O  O234  1  0.15427032  0.82391780  0.25229184  1
  O  O235  1  0.66411998  0.82020012  0.26290091  1
  O  O236  1  0.26497937  0.66462178  0.25192377  1
  O  O237  1  0.76637514  0.67539894  0.25439163  1
  O  O238  1  0.06936470  0.46513829  0.25697225  1
  O  O239  1  0.58144018  0.46921997  0.25695885  1
  O  O240  1  0.16441975  0.51076079  0.76312433  1
  O  O241  1  0.66261048  0.48508614  0.75276488  1
  O  O242  1  0.08241444  0.69712758  0.75784210  1
  O  O243  1  0.57438772  0.66012433  0.75512951  1
  O  O244  1  0.26167156  0.85019561  0.75342162  1
  O  O245  1  0.76662805  0.87014635  0.75250982  1
