# generated using pymatgen
data_YMgCo(WO4)2
_symmetry_space_group_name_H-M   'P 1'
_cell_length_a   5.35961658
_cell_length_b   6.24995325
_cell_length_c   6.03819838
_cell_angle_alpha   107.43386524
_cell_angle_beta   116.00370947
_cell_angle_gamma   92.19723756
_symmetry_Int_Tables_number   1
_chemical_formula_structural   YMgCo(WO4)2
_chemical_formula_sum   'Y1 Mg1 Co1 W2 O8'
_cell_volume   170.00673442
_cell_formula_units_Z   1
loop_
 _symmetry_equiv_pos_site_id
 _symmetry_equiv_pos_as_xyz
  1  'x, y, z'
loop_
 _atom_site_type_symbol
 _atom_site_label
 _atom_site_symmetry_multiplicity
 _atom_site_fract_x
 _atom_site_fract_y
 _atom_site_fract_z
 _atom_site_occupancy
  Y  Y0  1  0.59557906  0.70683278  0.04367077  1
  Mg  Mg1  1  0.88258309  0.84330387  0.65269540  1
  Co  Co2  1  0.23406158  0.35541307  0.17684160  1
  W  W3  1  0.87134868  0.34585365  0.57625695  1
  W  W4  1  0.36500151  0.06479323  0.59421492  1
  O  O5  1  0.12136010  0.64526608  0.83492879  1
  O  O6  1  0.61299528  0.53053789  0.34884847  1
  O  O7  1  0.15347839  0.16840525  0.81610188  1
  O  O8  1  0.59767922  0.01578943  0.39284065  1
  O  O9  1  0.63073745  0.91808140  0.82147317  1
  O  O10  1  0.06562514  0.81158664  0.37789373  1
  O  O11  1  0.09888531  0.25563016  0.38274378  1
  O  O12  1  0.64166418  0.37117254  0.79216789  1
