# generated using pymatgen
data_Na6In2Ga2Si3(SO8)3
_symmetry_space_group_name_H-M   'P 1'
_cell_length_a   9.10372421
_cell_length_b   8.99315061
_cell_length_c   22.42557390
_cell_angle_alpha   90.85212336
_cell_angle_beta   89.71195199
_cell_angle_gamma   119.94899187
_symmetry_Int_Tables_number   1
_chemical_formula_structural   Na6In2Ga2Si3(SO8)3
_chemical_formula_sum   'Na18 In6 Ga6 Si9 S9 O72'
_cell_volume   1590.66401809
_cell_formula_units_Z   3
loop_
 _symmetry_equiv_pos_site_id
 _symmetry_equiv_pos_as_xyz
  1  'x, y, z'
loop_
 _atom_site_type_symbol
 _atom_site_label
 _atom_site_symmetry_multiplicity
 _atom_site_fract_x
 _atom_site_fract_y
 _atom_site_fract_z
 _atom_site_occupancy
  Na  Na0  1  0.63390167  0.00023119  0.26103448  1
  Na  Na1  1  0.35471560  0.36081298  0.25500123  1
  Na  Na2  1  0.64087142  0.64147365  0.73645907  1
  Na  Na3  1  0.98805204  0.36527506  0.74423266  1
  Na  Na4  1  0.02804805  0.69223179  0.59114839  1
  Na  Na5  1  0.67346334  0.96313728  0.58272887  1
  Na  Na6  1  0.30918994  0.96896496  0.09563300  1
  Na  Na7  1  0.02557136  0.32501713  0.08330209  1
  Na  Na8  1  0.97097708  0.65751203  0.90038734  1
  Na  Na9  1  0.71033670  0.04361638  0.91031722  1
  Na  Na10  1  0.95840438  0.29316394  0.42107227  1
  Na  Na11  1  0.34240748  0.03367650  0.41552632  1
  Na  Na12  1  0.97948554  0.99179213  0.50431202  1
  Na  Na13  1  0.99190823  0.01185643  0.99908551  1
  Na  Na14  1  0.66440529  0.32389015  0.82176478  1
  Na  Na15  1  0.67675394  0.34322502  0.33782255  1
  Na  Na16  1  0.32776610  0.67085518  0.17440746  1
  Na  Na17  1  0.33295141  0.66495761  0.66437029  1
  In  In18  1  0.99655407  0.01592336  0.84086474  1
  In  In19  1  0.99658340  0.00790616  0.15712770  1
  In  In20  1  0.67903898  0.33028165  0.98472936  1
  In  In21  1  0.33728420  0.66242143  0.01748156  1
  In  In22  1  0.35063479  0.65892199  0.52069386  1
  In  In23  1  0.32062077  0.67106094  0.80842455  1
  Ga  Ga24  1  0.99115868  0.01086507  0.34573180  1
  Ga  Ga25  1  0.96766678  0.98016934  0.64726429  1
  Ga  Ga26  1  0.69344955  0.34924261  0.68218602  1
  Ga  Ga27  1  0.66106030  0.30187125  0.19410150  1
  Ga  Ga28  1  0.67817188  0.31446141  0.49302634  1
  Ga  Ga29  1  0.31972278  0.68811951  0.31531954  1
  Si  Si30  1  0.28713934  0.99864846  0.25084488  1
  Si  Si31  1  0.00773076  0.31411608  0.25166859  1
  Si  Si32  1  0.99671415  0.71110310  0.74618852  1
  Si  Si33  1  0.69455347  0.00672357  0.74703501  1
  Si  Si34  1  0.96831199  0.32702264  0.58439431  1
  Si  Si35  1  0.66864439  0.61072915  0.58403893  1
  Si  Si36  1  0.66516700  0.02924431  0.08500507  1
  Si  Si37  1  0.04110267  0.36900694  0.91800344  1
  Si  Si38  1  0.63240288  0.96116302  0.41577537  1
  S  S39  1  0.70340215  0.69835339  0.25090279  1
  S  S40  1  0.29798519  0.28802710  0.74727350  1
  S  S41  1  0.37554009  0.04960859  0.58254218  1
  S  S42  1  0.95595182  0.62982288  0.08563631  1
  S  S43  1  0.38107617  0.33517193  0.08609424  1
  S  S44  1  0.63184256  0.66371102  0.91660852  1
  S  S45  1  0.33103740  0.96869159  0.91964992  1
  S  S46  1  0.33111656  0.36613364  0.41212810  1
  S  S47  1  0.03741908  0.67052914  0.41591791  1
  O  O48  1  0.18678775  0.02677612  0.30670807  1
  O  O49  1  0.81310400  0.78121206  0.30277616  1
  O  O50  1  0.95938544  0.17370268  0.30463001  1
  O  O51  1  0.23301715  0.20180071  0.80547621  1
  O  O52  1  0.97759152  0.79119350  0.81078519  1
  O  O53  1  0.80558113  0.05622126  0.80980783  1
  O  O54  1  0.78868088  0.96815492  0.69206810  1
  O  O55  1  0.18110749  0.19818092  0.69766905  1
  O  O56  1  0.02045433  0.83352033  0.69009988  1
  O  O57  1  0.77100498  0.80257856  0.19622329  1
  O  O58  1  0.05561128  0.24964212  0.18922888  1
  O  O59  1  0.18760823  0.96890465  0.18763262  1
  O  O60  1  0.88309982  0.36757461  0.64193465  1
  O  O61  1  0.48903473  0.13755244  0.63292940  1
  O  O62  1  0.64425491  0.50435997  0.64496298  1
  O  O63  1  0.85866572  0.51874484  0.13475272  1
  O  O64  1  0.63126383  0.12594757  0.14214415  1
  O  O65  1  0.47759239  0.34939460  0.14031340  1
  O  O66  1  0.46551007  0.32514126  0.03087237  1
  O  O67  1  0.87038129  0.56395441  0.02659656  1
  O  O68  1  0.69920561  0.13581561  0.02292252  1
  O  O69  1  0.45088568  0.13882791  0.52420719  1
  O  O70  1  0.69152383  0.51028641  0.52547224  1
  O  O71  1  0.84804236  0.28005912  0.52348582  1
  O  O72  1  0.55598407  0.69527085  0.97062573  1
  O  O73  1  0.13647543  0.44749658  0.98273282  1
  O  O74  1  0.31147119  0.87248026  0.97573903  1
  O  O75  1  0.55200755  0.85723516  0.47656684  1
  O  O76  1  0.29396891  0.43973818  0.46542799  1
  O  O77  1  0.14179510  0.70047821  0.47029032  1
  O  O78  1  0.12013534  0.63574648  0.36333558  1
  O  O79  1  0.50382985  0.87066111  0.35755618  1
  O  O80  1  0.35180248  0.46949619  0.35858775  1
  O  O81  1  0.13315324  0.49564025  0.86246012  1
  O  O82  1  0.36667223  0.88618507  0.86847197  1
  O  O83  1  0.53578928  0.64779420  0.86231032  1
  O  O84  1  0.02784139  0.82905986  0.40741583  1
  O  O85  1  0.82648363  0.99011655  0.40577051  1
  O  O86  1  0.17438646  0.18922134  0.40794560  1
  O  O87  1  0.01145931  0.17396417  0.91432970  1
  O  O88  1  0.17328088  0.97418874  0.91320696  1
  O  O89  1  0.80703655  0.81556736  0.91487948  1
  O  O90  1  0.98221674  0.15292031  0.59239616  1
  O  O91  1  0.20602459  0.03006549  0.58636817  1
  O  O92  1  0.84484735  0.80401436  0.58512605  1
  O  O93  1  0.98805536  0.80824627  0.08913094  1
  O  O94  1  0.83962563  0.01944936  0.09080444  1
  O  O95  1  0.21040144  0.17471900  0.08484242  1
  O  O96  1  0.67443456  0.17514928  0.73703988  1
  O  O97  1  0.46938351  0.31247007  0.74165070  1
  O  O98  1  0.82081723  0.52072381  0.74562415  1
  O  O99  1  0.68165908  0.52349012  0.24309993  1
  O  O100  1  0.83152924  0.32354131  0.24575170  1
  O  O101  1  0.47780441  0.17981140  0.24868496  1
  O  O102  1  0.64611784  0.50629712  0.92208496  1
  O  O103  1  0.85035239  0.35526449  0.91759513  1
  O  O104  1  0.48201590  0.14416135  0.92285106  1
  O  O105  1  0.64772739  0.15786324  0.42261511  1
  O  O106  1  0.48052737  0.34445669  0.41823000  1
  O  O107  1  0.86926855  0.51465283  0.41943685  1
  O  O108  1  0.35264742  0.48517771  0.08553936  1
  O  O109  1  0.12596936  0.63816923  0.08502714  1
  O  O110  1  0.48474665  0.84458523  0.08151146  1
  O  O111  1  0.35681744  0.87310076  0.57980708  1
  O  O112  1  0.51393696  0.65505708  0.58429026  1
  O  O113  1  0.14552080  0.50907093  0.57595772  1
  O  O114  1  0.32932057  0.84178884  0.25602936  1
  O  O115  1  0.53106668  0.67802188  0.25819384  1
  O  O116  1  0.18402057  0.49667339  0.26405510  1
  O  O117  1  0.31361542  0.46351833  0.75052148  1
  O  O118  1  0.15351582  0.67032021  0.74529680  1
  O  O119  1  0.51945293  0.82189205  0.75382136  1
