# generated using pymatgen
data_Cs3HgCl5
_symmetry_space_group_name_H-M   'P 1'
_cell_length_a   8.91171266
_cell_length_b   10.88869760
_cell_length_c   13.61191821
_cell_angle_alpha   90.00000000
_cell_angle_beta   90.00000000
_cell_angle_gamma   90.00000000
_symmetry_Int_Tables_number   1
_chemical_formula_structural   Cs3HgCl5
_chemical_formula_sum   'Cs12 Hg4 Cl20'
_cell_volume   1320.85894852
_cell_formula_units_Z   4
loop_
 _symmetry_equiv_pos_site_id
 _symmetry_equiv_pos_as_xyz
  1  'x, y, z'
loop_
 _atom_site_type_symbol
 _atom_site_label
 _atom_site_symmetry_multiplicity
 _atom_site_fract_x
 _atom_site_fract_y
 _atom_site_fract_z
 _atom_site_occupancy
  Cs  Cs0  1  0.58755045  0.02218369  0.83385837  1
  Cs  Cs1  1  0.08755045  0.47781631  0.66614163  1
  Cs  Cs2  1  0.41244955  0.52218369  0.16614163  1
  Cs  Cs3  1  0.91244955  0.97781631  0.33385837  1
  Cs  Cs4  1  0.41244955  0.97781631  0.16614163  1
  Cs  Cs5  1  0.91244955  0.52218369  0.33385837  1
  Cs  Cs6  1  0.58755045  0.47781631  0.83385837  1
  Cs  Cs7  1  0.08755045  0.02218369  0.66614163  1
  Cs  Cs8  1  0.41158672  0.75000000  0.45104836  1
  Cs  Cs9  1  0.91158672  0.75000000  0.04895164  1
  Cs  Cs10  1  0.58841328  0.25000000  0.54895164  1
  Cs  Cs11  1  0.08841328  0.25000000  0.95104836  1
  Hg  Hg12  1  0.29213559  0.75000000  0.88343173  1
  Hg  Hg13  1  0.79213559  0.75000000  0.61656827  1
  Hg  Hg14  1  0.70786441  0.25000000  0.11656827  1
  Hg  Hg15  1  0.20786441  0.25000000  0.38343173  1
  Cl  Cl16  1  0.16463221  0.75000000  0.23858852  1
  Cl  Cl17  1  0.66463221  0.75000000  0.26141148  1
  Cl  Cl18  1  0.83536779  0.25000000  0.76141148  1
  Cl  Cl19  1  0.33536779  0.25000000  0.73858852  1
  Cl  Cl20  1  0.81234729  0.45218821  0.06861211  1
  Cl  Cl21  1  0.31234729  0.04781179  0.43138789  1
  Cl  Cl22  1  0.18765271  0.95218821  0.93138789  1
  Cl  Cl23  1  0.68765271  0.54781179  0.56861211  1
  Cl  Cl24  1  0.18765271  0.54781179  0.93138789  1
  Cl  Cl25  1  0.68765271  0.95218821  0.56861211  1
  Cl  Cl26  1  0.81234729  0.04781179  0.06861211  1
  Cl  Cl27  1  0.31234729  0.45218821  0.43138789  1
  Cl  Cl28  1  0.37826831  0.75000000  0.70818457  1
  Cl  Cl29  1  0.87826831  0.75000000  0.79181543  1
  Cl  Cl30  1  0.62173169  0.25000000  0.29181543  1
  Cl  Cl31  1  0.12173169  0.25000000  0.20818457  1
  Cl  Cl32  1  0.96498568  0.25000000  0.48803737  1
  Cl  Cl33  1  0.46498568  0.25000000  0.01196263  1
  Cl  Cl34  1  0.03501432  0.75000000  0.51196263  1
  Cl  Cl35  1  0.53501432  0.75000000  0.98803737  1
