# generated using pymatgen
data_Sr5(AuO4)2
_symmetry_space_group_name_H-M   'P 1'
_cell_length_a   6.53891546
_cell_length_b   6.73412319
_cell_length_c   6.73426534
_cell_angle_alpha   76.36644440
_cell_angle_beta   60.95502953
_cell_angle_gamma   60.95436309
_symmetry_Int_Tables_number   1
_chemical_formula_structural   Sr5(AuO4)2
_chemical_formula_sum   'Sr5 Au2 O8'
_cell_volume   226.63890916
_cell_formula_units_Z   1
loop_
 _symmetry_equiv_pos_site_id
 _symmetry_equiv_pos_as_xyz
  1  'x, y, z'
loop_
 _atom_site_type_symbol
 _atom_site_label
 _atom_site_symmetry_multiplicity
 _atom_site_fract_x
 _atom_site_fract_y
 _atom_site_fract_z
 _atom_site_occupancy
  Sr  Sr0  1  0.52734434  0.50000000  0.94531233  1
  Sr  Sr1  1  0.97265566  0.50000000  0.05468767  1
  Sr  Sr2  1  0.97262087  0.05476027  0.50000000  1
  Sr  Sr3  1  0.52737913  0.94523973  0.50000000  1
  Sr  Sr4  1  0.25000000  0.50000000  0.50000000  1
  Au  Au5  1  0.50000000  -0.00000000  -0.00000000  1
  Au  Au6  1  0.00000000  -0.00000000  -0.00000000  1
  O  O7  1  0.75552662  0.75619160  0.75620325  1
  O  O8  1  0.26792147  0.24380840  0.24379675  1
  O  O9  1  0.48828178  0.75619160  0.24379675  1
  O  O10  1  0.48827014  0.24380840  0.75620325  1
  O  O11  1  0.01170407  0.24380770  0.75620234  1
  O  O12  1  0.01171610  0.75619230  0.24379766  1
  O  O13  1  0.74448624  0.24380770  0.24379766  1
  O  O14  1  0.23209160  0.75619230  0.75620234  1
