# generated using pymatgen
data_NaMgNbP2SO12
_symmetry_space_group_name_H-M   'P 1'
_cell_length_a   8.74761501
_cell_length_b   8.74761472
_cell_length_c   22.81222475
_cell_angle_alpha   90.32699217
_cell_angle_beta   89.67300784
_cell_angle_gamma   120.09508284
_symmetry_Int_Tables_number   1
_chemical_formula_structural   NaMgNbP2SO12
_chemical_formula_sum   'Na6 Mg6 Nb6 P12 S6 O72'
_cell_volume   1510.25838963
_cell_formula_units_Z   6
loop_
 _symmetry_equiv_pos_site_id
 _symmetry_equiv_pos_as_xyz
  1  'x, y, z'
loop_
 _atom_site_type_symbol
 _atom_site_label
 _atom_site_symmetry_multiplicity
 _atom_site_fract_x
 _atom_site_fract_y
 _atom_site_fract_z
 _atom_site_occupancy
  Na  Na0  1  0.99417749  0.99059927  0.49428630  1
  Na  Na1  1  0.00940073  0.00582251  0.99428630  1
  Na  Na2  1  0.66084449  0.32393227  0.82761930  1
  Na  Na3  1  0.67606773  0.33915551  0.32761930  1
  Na  Na4  1  0.32751049  0.65726627  0.16095330  1
  Na  Na5  1  0.34273373  0.67248951  0.66095330  1
  Mg  Mg6  1  0.98907524  0.99405892  0.35275487  1
  Mg  Mg7  1  0.00594108  0.01092476  0.85275487  1
  Mg  Mg8  1  0.65574224  0.32739192  0.68608787  1
  Mg  Mg9  1  0.67260808  0.34425776  0.18608787  1
  Mg  Mg10  1  0.32240824  0.66072592  0.01942187  1
  Mg  Mg11  1  0.33927408  0.67759176  0.51942187  1
  Nb  Nb12  1  0.99863416  0.00335912  0.64574069  1
  Nb  Nb13  1  0.99664088  0.00136584  0.14574069  1
  Nb  Nb14  1  0.66530116  0.33669212  0.97907369  1
  Nb  Nb15  1  0.66330788  0.33469884  0.47907369  1
  Nb  Nb16  1  0.33196716  0.67002612  0.31240769  1
  Nb  Nb17  1  0.32997388  0.66803284  0.81240769  1
  P  P18  1  0.71261670  0.70640605  0.25237901  1
  P  P19  1  0.99269940  0.28546745  0.25278030  1
  P  P20  1  0.29359395  0.28738330  0.75237901  1
  P  P21  1  0.71453255  0.00730060  0.75278030  1
  P  P22  1  0.37928370  0.03973905  0.58571201  1
  P  P23  1  0.65936640  0.61880045  0.58611330  1
  P  P24  1  0.96026095  0.62071630  0.08571201  1
  P  P25  1  0.38119955  0.34063360  0.08611330  1
  P  P26  1  0.04594970  0.37307305  0.91904601  1
  P  P27  1  0.32603240  0.95213445  0.91944730  1
  P  P28  1  0.62692695  0.95405030  0.41904601  1
  P  P29  1  0.04786555  0.67396760  0.41944730  1
  S  S30  1  0.29059478  0.00540221  0.25100011  1
  S  S31  1  0.99459779  0.70940522  0.75100011  1
  S  S32  1  0.95726178  0.33873521  0.58433311  1
  S  S33  1  0.66126479  0.04273822  0.08433311  1
  S  S34  1  0.62392778  0.67206921  0.91766711  1
  S  S35  1  0.32793079  0.37607222  0.41766711  1
  O  O36  1  0.20962238  0.02660754  0.30342753  1
  O  O37  1  0.82265696  0.79470175  0.30488622  1
  O  O38  1  0.97901531  0.17984143  0.30553490  1
  O  O39  1  0.20529825  0.17734304  0.80488622  1
  O  O40  1  0.97339246  0.79037762  0.80342753  1
  O  O41  1  0.82015857  0.02098469  0.80553490  1
  O  O42  1  0.80032925  0.97061264  0.69523934  1
  O  O43  1  0.17035114  0.19837458  0.69559725  1
  O  O44  1  0.03017154  0.82210708  0.69696416  1
  O  O45  1  0.80162542  0.82964886  0.19559725  1
  O  O46  1  0.02938736  0.19967075  0.19523934  1
  O  O47  1  0.17789292  0.96982846  0.19696416  1
  O  O48  1  0.87628938  0.35994054  0.63676053  1
  O  O49  1  0.48932396  0.12803475  0.63821922  1
  O  O50  1  0.64568231  0.51317443  0.63886790  1
  O  O51  1  0.87196525  0.51067604  0.13821922  1
  O  O52  1  0.64005946  0.12371062  0.13676053  1
  O  O53  1  0.48682557  0.35431769  0.13886790  1
  O  O54  1  0.46699625  0.30394564  0.02857234  1
  O  O55  1  0.83701814  0.53170758  0.02893025  1
  O  O56  1  0.69683854  0.15544008  0.03029716  1
  O  O57  1  0.46829242  0.16298186  0.52893025  1
  O  O58  1  0.69605436  0.53300375  0.52857234  1
  O  O59  1  0.84455992  0.30316146  0.53029716  1
  O  O60  1  0.54295538  0.69327454  0.97009453  1
  O  O61  1  0.15598996  0.46136875  0.97155322  1
  O  O62  1  0.31234831  0.84650843  0.97220190  1
  O  O63  1  0.53863125  0.84401004  0.47155322  1
  O  O64  1  0.30672546  0.45704462  0.47009453  1
  O  O65  1  0.15349157  0.68765169  0.47220190  1
  O  O66  1  0.13366225  0.63727964  0.36190634  1
  O  O67  1  0.50368414  0.86504158  0.36226425  1
  O  O68  1  0.36350454  0.48877408  0.36363116  1
  O  O69  1  0.13495842  0.49631586  0.86226425  1
  O  O70  1  0.36272036  0.86633775  0.86190634  1
  O  O71  1  0.51122592  0.63649546  0.86363116  1
  O  O72  1  0.02320163  0.83002519  0.40910279  1
  O  O73  1  0.81103778  0.98701169  0.41001527  1
  O  O74  1  0.17966338  0.19880271  0.40891762  1
  O  O75  1  0.01298831  0.18896222  0.91001527  1
  O  O76  1  0.16997481  0.97679837  0.90910279  1
  O  O77  1  0.80119729  0.82033662  0.90891762  1
  O  O78  1  0.96985642  0.16994321  0.58864240  1
  O  O79  1  0.19147852  0.02981371  0.59126760  1
  O  O80  1  0.83627079  0.80831832  0.59146365  1
  O  O81  1  0.97018629  0.80852148  0.09126760  1
  O  O82  1  0.83005679  0.03014358  0.08864240  1
  O  O83  1  0.19168168  0.16372921  0.09146365  1
  O  O84  1  0.68986863  0.16335819  0.74243579  1
  O  O85  1  0.47770478  0.32034469  0.74334827  1
  O  O86  1  0.84633038  0.53213571  0.74225062  1
  O  O87  1  0.67965531  0.52229522  0.24334827  1
  O  O88  1  0.83664181  0.31013137  0.24243579  1
  O  O89  1  0.46786429  0.15366962  0.24225062  1
  O  O90  1  0.63652342  0.50327621  0.92197540  1
  O  O91  1  0.85814552  0.36314671  0.92460060  1
  O  O92  1  0.50293779  0.14165132  0.92479665  1
  O  O93  1  0.63685329  0.14185448  0.42460060  1
  O  O94  1  0.49672379  0.36347658  0.42197540  1
  O  O95  1  0.85834868  0.49706221  0.42479665  1
  O  O96  1  0.35653463  0.49669219  0.07576979  1
  O  O97  1  0.14437078  0.65367869  0.07668227  1
  O  O98  1  0.51299638  0.86546971  0.07558462  1
  O  O99  1  0.34632131  0.85562922  0.57668227  1
  O  O100  1  0.50330781  0.64346537  0.57576979  1
  O  O101  1  0.13453029  0.48700362  0.57558462  1
  O  O102  1  0.30318942  0.83661021  0.25530940  1
  O  O103  1  0.52481152  0.69648071  0.25793460  1
  O  O104  1  0.16960379  0.47498532  0.25813065  1
  O  O105  1  0.30351929  0.47518848  0.75793460  1
  O  O106  1  0.16338979  0.69681058  0.75530940  1
  O  O107  1  0.52501468  0.83039621  0.75813065  1
