# generated using pymatgen
data_Na3Ca4Ta2P3(SO6)6
_symmetry_space_group_name_H-M   'P 1'
_cell_length_a   9.04985591
_cell_length_b   9.04985560
_cell_length_c   23.64037123
_cell_angle_alpha   90.00000000
_cell_angle_beta   90.00000000
_cell_angle_gamma   120.00000116
_symmetry_Int_Tables_number   1
_chemical_formula_structural   Na3Ca4Ta2P3(SO6)6
_chemical_formula_sum   'Na6 Ca8 Ta4 P6 S12 O72'
_cell_volume   1676.74968308
_cell_formula_units_Z   2
loop_
 _symmetry_equiv_pos_site_id
 _symmetry_equiv_pos_as_xyz
  1  'x, y, z'
loop_
 _atom_site_type_symbol
 _atom_site_label
 _atom_site_symmetry_multiplicity
 _atom_site_fract_x
 _atom_site_fract_y
 _atom_site_fract_z
 _atom_site_occupancy
  Na  Na0  1  -0.00000000  0.00000000  0.49356919  1
  Na  Na1  1  -0.00000000  0.00000000  0.99356919  1
  Na  Na2  1  0.66666700  0.33333300  0.82915742  1
  Na  Na3  1  0.66666700  0.33333300  0.32915742  1
  Na  Na4  1  0.33333300  0.66666700  0.16412213  1
  Na  Na5  1  0.33333300  0.66666700  0.66412213  1
  Ca  Ca6  1  -0.00000000  0.00000000  0.35225643  1
  Ca  Ca7  1  -0.00000000  0.00000000  0.85225643  1
  Ca  Ca8  1  -0.00000000  0.00000000  0.64801131  1
  Ca  Ca9  1  -0.00000000  0.00000000  0.14801131  1
  Ca  Ca10  1  0.66666700  0.33333300  0.68757753  1
  Ca  Ca11  1  0.66666700  0.33333300  0.18757753  1
  Ca  Ca12  1  0.33333300  0.66666700  0.01844971  1
  Ca  Ca13  1  0.33333300  0.66666700  0.51844971  1
  Ta  Ta14  1  0.66666700  0.33333300  0.97572902  1
  Ta  Ta15  1  0.66666700  0.33333300  0.47572902  1
  Ta  Ta16  1  0.33333300  0.66666700  0.32500543  1
  Ta  Ta17  1  0.33333300  0.66666700  0.82500543  1
  P  P18  1  0.62348851  0.65683797  0.91958022  1
  P  P19  1  0.03334846  0.37651149  0.91958022  1
  P  P20  1  0.34316203  0.96665154  0.91958022  1
  P  P21  1  0.62348851  0.96665154  0.41958022  1
  P  P22  1  0.34316203  0.37651149  0.41958022  1
  P  P23  1  0.03334846  0.65683797  0.41958022  1
  S  S24  1  0.30206555  0.98419937  0.25423070  1
  S  S25  1  0.68213382  0.69793445  0.25423070  1
  S  S26  1  0.01580063  0.31786618  0.25423070  1
  S  S27  1  0.30206555  0.31786618  0.75423070  1
  S  S28  1  0.01580063  0.69793445  0.75423070  1
  S  S29  1  0.68213382  0.98419937  0.75423070  1
  S  S30  1  0.94822028  0.32773104  0.57925634  1
  S  S31  1  0.37951176  0.05177972  0.57925634  1
  S  S32  1  0.67226896  0.62048824  0.57925634  1
  S  S33  1  0.94822028  0.62048824  0.07925634  1
  S  S34  1  0.67226896  0.05177972  0.07925634  1
  S  S35  1  0.37951176  0.32773104  0.07925634  1
  O  O36  1  0.21758622  0.00836759  0.30261383  1
  O  O37  1  0.79078137  0.78241378  0.30261383  1
  O  O38  1  0.99163241  0.20921863  0.30261383  1
  O  O39  1  0.21758622  0.20921863  0.80261383  1
  O  O40  1  0.99163241  0.78241378  0.80261383  1
  O  O41  1  0.79078137  0.00836759  0.80261383  1
  O  O42  1  0.74850316  0.95327071  0.70110617  1
  O  O43  1  0.20476755  0.25149684  0.70110617  1
  O  O44  1  0.04672929  0.79523245  0.70110617  1
  O  O45  1  0.74850316  0.79523245  0.20110617  1
  O  O46  1  0.04672929  0.25149684  0.20110617  1
  O  O47  1  0.20476755  0.95327071  0.20110617  1
  O  O48  1  0.86403564  0.33442155  0.63106002  1
  O  O49  1  0.47038691  0.13596436  0.63106002  1
  O  O50  1  0.66557845  0.52961309  0.63106002  1
  O  O51  1  0.86403564  0.52961309  0.13106002  1
  O  O52  1  0.66557845  0.13596436  0.13106002  1
  O  O53  1  0.47038691  0.33442155  0.13106002  1
  O  O54  1  0.48491450  0.32767938  0.02755506  1
  O  O55  1  0.84276588  0.51508550  0.02755506  1
  O  O56  1  0.67232062  0.15723412  0.02755506  1
  O  O57  1  0.48491450  0.15723412  0.52755506  1
  O  O58  1  0.67232062  0.51508550  0.52755506  1
  O  O59  1  0.84276588  0.32767938  0.52755506  1
  O  O60  1  0.54694426  0.68122362  0.97201524  1
  O  O61  1  0.13427836  0.45305574  0.97201524  1
  O  O62  1  0.31877638  0.86572164  0.97201524  1
  O  O63  1  0.54694426  0.86572164  0.47201524  1
  O  O64  1  0.31877638  0.45305574  0.47201524  1
  O  O65  1  0.13427836  0.68122362  0.47201524  1
  O  O66  1  0.13273264  0.62945578  0.36667967  1
  O  O67  1  0.49672215  0.86726736  0.36667967  1
  O  O68  1  0.37054422  0.50327785  0.36667967  1
  O  O69  1  0.13273264  0.50327785  0.86667967  1
  O  O70  1  0.37054422  0.86726736  0.86667967  1
  O  O71  1  0.49672215  0.62945578  0.86667967  1
  O  O72  1  0.99426623  0.79589594  0.40707110  1
  O  O73  1  0.80162971  0.00573377  0.40707110  1
  O  O74  1  0.20410406  0.19837029  0.40707110  1
  O  O75  1  0.99426623  0.19837029  0.90707110  1
  O  O76  1  0.20410406  0.00573377  0.90707110  1
  O  O77  1  0.80162971  0.79589594  0.90707110  1
  O  O78  1  0.95349075  0.16747752  0.57537487  1
  O  O79  1  0.21398677  0.04650925  0.57537487  1
  O  O80  1  0.83252248  0.78601323  0.57537487  1
  O  O81  1  0.95349075  0.78601323  0.07537487  1
  O  O82  1  0.83252248  0.04650925  0.07537487  1
  O  O83  1  0.21398677  0.16747752  0.07537487  1
  O  O84  1  0.64927910  0.12840966  0.75002621  1
  O  O85  1  0.47913156  0.35072090  0.75002621  1
  O  O86  1  0.87159034  0.52086844  0.75002621  1
  O  O87  1  0.64927910  0.52086844  0.25002621  1
  O  O88  1  0.87159034  0.35072090  0.25002621  1
  O  O89  1  0.47913156  0.12840966  0.25002621  1
  O  O90  1  0.62459324  0.48032685  0.92431758  1
  O  O91  1  0.85573461  0.37540676  0.92431758  1
  O  O92  1  0.51967315  0.14426539  0.92431758  1
  O  O93  1  0.62459324  0.14426539  0.42431758  1
  O  O94  1  0.51967315  0.37540676  0.42431758  1
  O  O95  1  0.85573461  0.48032685  0.42431758  1
  O  O96  1  0.36192369  0.47986248  0.07678008  1
  O  O97  1  0.11793779  0.63807631  0.07678008  1
  O  O98  1  0.52013752  0.88206221  0.07678008  1
  O  O99  1  0.36192369  0.88206221  0.57678008  1
  O  O100  1  0.52013752  0.63807631  0.57678008  1
  O  O101  1  0.11793779  0.47986248  0.57678008  1
  O  O102  1  0.31602276  0.82364262  0.26437351  1
  O  O103  1  0.50761887  0.68397724  0.26437351  1
  O  O104  1  0.17635738  0.49238113  0.26437351  1
  O  O105  1  0.31602276  0.49238113  0.76437351  1
  O  O106  1  0.17635738  0.68397724  0.76437351  1
  O  O107  1  0.50761887  0.82364262  0.76437351  1
