# generated using pymatgen
data_Na4Nb3GaSi4(PO12)2
_symmetry_space_group_name_H-M   'P 1'
_cell_length_a   8.91074650
_cell_length_b   8.92376023
_cell_length_c   22.56738135
_cell_angle_alpha   89.90312385
_cell_angle_beta   89.80982418
_cell_angle_gamma   119.92658489
_symmetry_Int_Tables_number   1
_chemical_formula_structural   Na4Nb3GaSi4(PO12)2
_chemical_formula_sum   'Na12 Nb9 Ga3 Si12 P6 O72'
_cell_volume   1555.20970398
_cell_formula_units_Z   3
loop_
 _symmetry_equiv_pos_site_id
 _symmetry_equiv_pos_as_xyz
  1  'x, y, z'
loop_
 _atom_site_type_symbol
 _atom_site_label
 _atom_site_symmetry_multiplicity
 _atom_site_fract_x
 _atom_site_fract_y
 _atom_site_fract_z
 _atom_site_occupancy
  Na  Na0  1  0.63572337  0.62476222  0.74522479  1
  Na  Na1  1  0.99405215  0.36737807  0.74642449  1
  Na  Na2  1  0.30866911  0.97400281  0.08442153  1
  Na  Na3  1  0.02825895  0.33973681  0.08452952  1
  Na  Na4  1  0.96743546  0.29569844  0.41203473  1
  Na  Na5  1  0.70665024  0.67736091  0.41388199  1
  Na  Na6  1  0.00849596  0.99756017  0.49814304  1
  Na  Na7  1  0.99034292  0.99021918  0.99584119  1
  Na  Na8  1  0.65467765  0.32025993  0.83194410  1
  Na  Na9  1  0.65690230  0.32378843  0.32312312  1
  Na  Na10  1  0.34359271  0.66542100  0.16601624  1
  Na  Na11  1  0.33435413  0.67353158  0.66549491  1
  Nb  Nb12  1  0.00469370  0.00991882  0.85558200  1
  Nb  Nb13  1  0.99298898  0.00108107  0.64332830  1
  Nb  Nb14  1  0.99510087  0.99630478  0.14624723  1
  Nb  Nb15  1  0.66735655  0.33439879  0.97741625  1
  Nb  Nb16  1  0.66954884  0.33228129  0.48014796  1
  Nb  Nb17  1  0.33854625  0.66767417  0.02099557  1
  Nb  Nb18  1  0.33499350  0.66885046  0.52285301  1
  Nb  Nb19  1  0.33111113  0.67181448  0.30925920  1
  Nb  Nb20  1  0.33650264  0.67005752  0.81298086  1
  Ga  Ga21  1  0.00031589  0.99594654  0.35055305  1
  Ga  Ga22  1  0.65808985  0.32550236  0.68541638  1
  Ga  Ga23  1  0.66640289  0.33312633  0.18365250  1
  Si  Si24  1  0.29738835  0.28764739  0.74789412  1
  Si  Si25  1  0.70647134  0.00585338  0.74910840  1
  Si  Si26  1  0.95271510  0.33605868  0.58723597  1
  Si  Si27  1  0.66691650  0.61722997  0.58638103  1
  Si  Si28  1  0.94735375  0.61558190  0.08618104  1
  Si  Si29  1  0.66430431  0.04908076  0.08653440  1
  Si  Si30  1  0.38741010  0.33844317  0.08736218  1
  Si  Si31  1  0.62572118  0.66648138  0.91540994  1
  Si  Si32  1  0.04357155  0.37942419  0.91680370  1
  Si  Si33  1  0.33279167  0.95705006  0.91756200  1
  Si  Si34  1  0.62471144  0.95739448  0.41460581  1
  Si  Si35  1  0.04817923  0.67766309  0.41563576  1
  P  P36  1  0.29230455  0.01005362  0.25150518  1
  P  P37  1  0.71187497  0.70285648  0.25270627  1
  P  P38  1  0.99307052  0.28545009  0.25254332  1
  P  P39  1  0.00163036  0.71489805  0.74959161  1
  P  P40  1  0.38061385  0.04679991  0.58521814  1
  P  P41  1  0.33047630  0.37711327  0.41526443  1
  O  O42  1  0.19957493  0.02632818  0.30612209  1
  O  O43  1  0.81449733  0.78879508  0.30949646  1
  O  O44  1  0.97602971  0.17991348  0.30899544  1
  O  O45  1  0.19728401  0.16875695  0.80637497  1
  O  O46  1  0.97525777  0.80362078  0.80435742  1
  O  O47  1  0.83371174  0.02991659  0.80547729  1
  O  O48  1  0.79998544  0.96438533  0.69228190  1
  O  O49  1  0.16312274  0.19132635  0.69252915  1
  O  O50  1  0.02885590  0.82759043  0.69387134  1
  O  O51  1  0.80525400  0.82591312  0.19807451  1
  O  O52  1  0.02167361  0.19822860  0.19628145  1
  O  O53  1  0.17949067  0.97752446  0.19445442  1
  O  O54  1  0.87039273  0.36576244  0.64603339  1
  O  O55  1  0.49067112  0.12249517  0.64006092  1
  O  O56  1  0.63289488  0.50494350  0.64564367  1
  O  O57  1  0.87391571  0.49065163  0.14281134  1
  O  O58  1  0.61885626  0.12499352  0.14366238  1
  O  O59  1  0.49933709  0.37049768  0.14546725  1
  O  O60  1  0.46459573  0.29195887  0.02818861  1
  O  O61  1  0.83056699  0.53246437  0.02649748  1
  O  O62  1  0.70819220  0.17180742  0.02738266  1
  O  O63  1  0.46928463  0.15995287  0.52866175  1
  O  O64  1  0.68864433  0.52564670  0.52515071  1
  O  O65  1  0.83511065  0.30538666  0.52609395  1
  O  O66  1  0.52886673  0.69425526  0.97300419  1
  O  O67  1  0.16014227  0.46779555  0.97607119  1
  O  O68  1  0.30555072  0.84054732  0.97716701  1
  O  O69  1  0.53116617  0.82903569  0.47154182  1
  O  O70  1  0.30109897  0.46344312  0.47078373  1
  O  O71  1  0.16723574  0.69331858  0.47282720  1
  O  O72  1  0.13652479  0.63056188  0.35926415  1
  O  O73  1  0.49707819  0.85621778  0.35807502  1
  O  O74  1  0.36718384  0.49853059  0.36078173  1
  O  O75  1  0.13499026  0.49392819  0.85672398  1
  O  O76  1  0.35945525  0.85860102  0.85989209  1
  O  O77  1  0.50577531  0.63933899  0.85636636  1
  O  O78  1  0.01644417  0.83949674  0.40930528  1
  O  O79  1  0.81790898  0.98264455  0.40846763  1
  O  O80  1  0.16677486  0.20051601  0.40919481  1
  O  O81  1  0.02709635  0.18910275  0.91140408  1
  O  O82  1  0.15878607  0.97057798  0.90994874  1
  O  O83  1  0.81377759  0.83823321  0.90908956  1
  O  O84  1  0.97495516  0.16288722  0.58883561  1
  O  O85  1  0.19824960  0.02646145  0.58869339  1
  O  O86  1  0.84275629  0.80938410  0.58855447  1
  O  O87  1  0.98115506  0.81578027  0.09276587  1
  O  O88  1  0.84070459  0.03159528  0.09303907  1
  O  O89  1  0.18769496  0.16387177  0.09387612  1
  O  O90  1  0.70079095  0.18238269  0.74405627  1
  O  O91  1  0.49191241  0.32012988  0.74526009  1
  O  O92  1  0.84042393  0.53414360  0.74663592  1
  O  O93  1  0.69256482  0.52466549  0.24550892  1
  O  O94  1  0.83488519  0.30748955  0.24650403  1
  O  O95  1  0.47419111  0.16447747  0.24627394  1
  O  O96  1  0.63719143  0.49194758  0.92174005  1
  O  O97  1  0.85327664  0.35997220  0.92127752  1
  O  O98  1  0.50595859  0.14473493  0.92223746  1
  O  O99  1  0.64259936  0.14892355  0.42122494  1
  O  O100  1  0.49813094  0.36597604  0.42253408  1
  O  O101  1  0.85516125  0.49838237  0.42279094  1
  O  O102  1  0.34497278  0.49691104  0.07866240  1
  O  O103  1  0.14577911  0.64676752  0.07739388  1
  O  O104  1  0.49506670  0.85561698  0.07782007  1
  O  O105  1  0.36050275  0.86411319  0.57575881  1
  O  O106  1  0.49853101  0.64423064  0.57521623  1
  O  O107  1  0.14638299  0.50397797  0.57566343  1
  O  O108  1  0.30245350  0.83600330  0.25661720  1
  O  O109  1  0.52905476  0.69173767  0.25583959  1
  O  O110  1  0.16565348  0.46756377  0.25669935  1
  O  O111  1  0.30336553  0.47655311  0.75393537  1
  O  O112  1  0.16404494  0.69199916  0.75425869  1
  O  O113  1  0.52092257  0.82395881  0.75339191  1
