# generated using pymatgen
data_Na6Sc4Zn4SiS11O48
_symmetry_space_group_name_H-M   'P 1'
_cell_length_a   17.67739630
_cell_length_b   8.83305385
_cell_length_c   22.83377201
_cell_angle_alpha   89.87956528
_cell_angle_beta   89.86938398
_cell_angle_gamma   120.09490941
_symmetry_Int_Tables_number   1
_chemical_formula_structural   Na6Sc4Zn4SiS11O48
_chemical_formula_sum   'Na18 Sc12 Zn12 Si3 S33 O144'
_cell_volume   3084.72990535
_cell_formula_units_Z   3
loop_
 _symmetry_equiv_pos_site_id
 _symmetry_equiv_pos_as_xyz
  1  'x, y, z'
loop_
 _atom_site_type_symbol
 _atom_site_label
 _atom_site_symmetry_multiplicity
 _atom_site_fract_x
 _atom_site_fract_y
 _atom_site_fract_z
 _atom_site_occupancy
  Na  Na0  1  0.81859341  0.99917981  0.24785745  1
  Na  Na1  1  0.99784001  0.63488112  0.25262803  1
  Na  Na2  1  0.31658540  0.64379170  0.74976760  1
  Na  Na3  1  0.81646189  0.63987547  0.74716568  1
  Na  Na4  1  0.99596005  0.36099405  0.75048029  1
  Na  Na5  1  0.68777320  0.00189743  0.74879339  1
  Na  Na6  1  0.99891498  0.99910610  0.49900142  1
  Na  Na7  1  0.50238175  0.00167686  0.49573238  1
  Na  Na8  1  0.00179567  0.00183199  0.00074812  1
  Na  Na9  1  0.50029742  -0.00003736  0.00055606  1
  Na  Na10  1  0.33429827  0.31613905  0.83684263  1
  Na  Na11  1  0.83383795  0.32626298  0.83663684  1
  Na  Na12  1  0.33417914  0.33490997  0.33014605  1
  Na  Na13  1  0.82846151  0.34250912  0.33584682  1
  Na  Na14  1  0.17380202  0.66893800  0.16859191  1
  Na  Na15  1  0.66469426  0.65639732  0.16837143  1
  Na  Na16  1  0.17069768  0.68334225  0.66441355  1
  Na  Na17  1  0.66815934  0.66846957  0.66292010  1
  Sc  Sc18  1  0.99732658  0.98740427  0.35250732  1
  Sc  Sc19  1  0.99674169  0.00389333  0.85281939  1
  Sc  Sc20  1  0.49497985  0.00658872  0.85298301  1
  Sc  Sc21  1  0.99242250  0.99423026  0.64603346  1
  Sc  Sc22  1  0.49449194  0.99897149  0.64658147  1
  Sc  Sc23  1  0.99624238  0.99424249  0.14879073  1
  Sc  Sc24  1  0.49782643  0.99810591  0.14952906  1
  Sc  Sc25  1  0.33389312  0.31682603  0.68466717  1
  Sc  Sc26  1  0.33307338  0.33251873  0.47898679  1
  Sc  Sc27  1  0.16737513  0.66746709  0.01856523  1
  Sc  Sc28  1  0.66617728  0.66770670  0.01862641  1
  Sc  Sc29  1  0.66587064  0.65520452  0.31557409  1
  Zn  Zn30  1  0.49831857  0.99951337  0.35081583  1
  Zn  Zn31  1  0.83369810  0.32082444  0.67768093  1
  Zn  Zn32  1  0.33376267  0.33663613  0.18300063  1
  Zn  Zn33  1  0.82860877  0.34503125  0.18327584  1
  Zn  Zn34  1  0.33285390  0.33238339  0.98475859  1
  Zn  Zn35  1  0.83292775  0.33272841  0.98427904  1
  Zn  Zn36  1  0.83245550  0.33336938  0.48313772  1
  Zn  Zn37  1  0.16518639  0.66434505  0.51453598  1
  Zn  Zn38  1  0.66837546  0.66878361  0.51525345  1
  Zn  Zn39  1  0.17392489  0.67213512  0.32049480  1
  Zn  Zn40  1  0.17425220  0.69016135  0.81797945  1
  Zn  Zn41  1  0.66944215  0.67123500  0.81860735  1
  Si  Si42  1  0.85063482  0.69831647  0.24959973  1
  Si  Si43  1  0.34993492  0.99712987  0.75058112  1
  Si  Si44  1  0.84982311  0.00013623  0.75053354  1
  S  S45  1  0.14926499  0.00306318  0.25003096  1
  S  S46  1  0.64476658  0.00020164  0.25103787  1
  S  S47  1  0.35257778  0.70443652  0.25127298  1
  S  S48  1  0.00317118  0.29597204  0.25010627  1
  S  S49  1  0.49663973  0.28896658  0.25054640  1
  S  S50  1  0.14565986  0.29003501  0.74987639  1
  S  S51  1  0.64519576  0.29336534  0.74986723  1
  S  S52  1  0.00119999  0.70949167  0.74989188  1
  S  S53  1  0.50025082  0.70777191  0.75023364  1
  S  S54  1  0.48218471  0.33864468  0.58173943  1
  S  S55  1  0.98223500  0.33922620  0.58229919  1
  S  S56  1  0.18605399  0.03607580  0.58212138  1
  S  S57  1  0.68601373  0.03624777  0.58266212  1
  S  S58  1  0.33142479  0.62453613  0.58335552  1
  S  S59  1  0.83123741  0.62121324  0.58322838  1
  S  S60  1  0.47823367  0.62372927  0.08309401  1
  S  S61  1  0.97942361  0.62410438  0.08269766  1
  S  S62  1  0.33345517  0.04418201  0.08330741  1
  S  S63  1  0.83350123  0.04466740  0.08341668  1
  S  S64  1  0.18847214  0.33325334  0.08300546  1
  S  S65  1  0.68664868  0.33204327  0.08221997  1
  S  S66  1  0.31299558  0.66045630  0.91651386  1
  S  S67  1  0.81301562  0.66110340  0.91666167  1
  S  S68  1  0.02010338  0.37743449  0.91568260  1
  S  S69  1  0.52030872  0.37871820  0.91645671  1
  S  S70  1  0.16802877  0.96396649  0.91735230  1
  S  S71  1  0.66793802  0.96393224  0.91626616  1
  S  S72  1  0.31349759  0.95715006  0.41716997  1
  S  S73  1  0.81268754  0.96267022  0.41744098  1
  S  S74  1  0.16625076  0.37550358  0.41706746  1
  S  S75  1  0.66604997  0.36981296  0.41872780  1
  S  S76  1  0.02022471  0.66270381  0.41689146  1
  S  S77  1  0.52124984  0.67061922  0.41757802  1
  O  O78  1  0.10787578  0.02838260  0.30283076  1
  O  O79  1  0.60522434  0.02770480  0.30347174  1
  O  O80  1  0.40621756  0.78605837  0.30355074  1
  O  O81  1  0.91514132  0.79639755  0.30544389  1
  O  O82  1  0.48526314  0.18429238  0.30340445  1
  O  O83  1  0.98963686  0.18554190  0.30233702  1
  O  O84  1  0.10803621  0.18209313  0.80305637  1
  O  O85  1  0.60614108  0.17952598  0.80235666  1
  O  O86  1  0.48585271  0.78902048  0.80268237  1
  O  O87  1  0.98835196  0.79312242  0.80250632  1
  O  O88  1  0.41176021  0.02667916  0.80748386  1
  O  O89  1  0.91573307  0.03662909  0.80610494  1
  O  O90  1  0.39796827  0.96390656  0.69434152  1
  O  O91  1  0.89716497  0.96350233  0.69491083  1
  O  O92  1  0.09188380  0.20582444  0.69758220  1
  O  O93  1  0.59284336  0.20816420  0.69715513  1
  O  O94  1  0.01572753  0.81783997  0.69710086  1
  O  O95  1  0.51683425  0.81988570  0.69765223  1
  O  O96  1  0.39550152  0.81473281  0.19771669  1
  O  O97  1  0.89703545  0.83100867  0.19360710  1
  O  O98  1  0.01696192  0.21631095  0.19702962  1
  O  O99  1  0.51136205  0.20784019  0.19740131  1
  O  O100  1  0.09269309  0.97385544  0.19784792  1
  O  O101  1  0.59207847  0.97659173  0.19742290  1
  O  O102  1  0.43993059  0.36019663  0.63520934  1
  O  O103  1  0.94532760  0.36385155  0.63820527  1
  O  O104  1  0.23966473  0.12111892  0.63533210  1
  O  O105  1  0.73542936  0.11069060  0.63843238  1
  O  O106  1  0.32151086  0.52312674  0.63809191  1
  O  O107  1  0.82053580  0.52266182  0.63909337  1
  O  O108  1  0.44053737  0.51858637  0.13647827  1
  O  O109  1  0.94296938  0.52196083  0.13730076  1
  O  O110  1  0.31893633  0.12002795  0.13638245  1
  O  O111  1  0.82025027  0.11863610  0.13824747  1
  O  O112  1  0.24083771  0.36232807  0.13621171  1
  O  O113  1  0.73849125  0.36135869  0.13555726  1
  O  O114  1  0.22730341  0.30689796  0.02973907  1
  O  O115  1  0.72533655  0.30439755  0.02928950  1
  O  O116  1  0.42633762  0.54811129  0.02995046  1
  O  O117  1  0.92565653  0.54398564  0.03063844  1
  O  O118  1  0.34810037  0.14833336  0.02986086  1
  O  O119  1  0.84554345  0.15058720  0.03089990  1
  O  O120  1  0.22917017  0.14779556  0.53019060  1
  O  O121  1  0.72805320  0.14818093  0.53139718  1
  O  O122  1  0.34323185  0.53547383  0.53205700  1
  O  O123  1  0.84485226  0.53932847  0.53172623  1
  O  O124  1  0.42629025  0.31154548  0.53018389  1
  O  O125  1  0.92616413  0.30912313  0.53141900  1
  O  O126  1  0.26961251  0.68787631  0.96808397  1
  O  O127  1  0.76945917  0.68773572  0.96811388  1
  O  O128  1  0.07533493  0.46446285  0.96767511  1
  O  O129  1  0.57470383  0.46309312  0.96920526  1
  O  O130  1  0.15502529  0.85213821  0.96970442  1
  O  O131  1  0.65569199  0.85057668  0.96800503  1
  O  O132  1  0.27298446  0.85155405  0.47012744  1
  O  O133  1  0.77264348  0.85261436  0.46940018  1
  O  O134  1  0.15333514  0.45337889  0.47010305  1
  O  O135  1  0.65279755  0.45179338  0.47089277  1
  O  O136  1  0.07456852  0.69014048  0.46877184  1
  O  O137  1  0.57325308  0.69357252  0.47028360  1
  O  O138  1  0.05915830  0.64098369  0.36158592  1
  O  O139  1  0.56103097  0.64194940  0.36441445  1
  O  O140  1  0.26056069  0.88466808  0.36371588  1
  O  O141  1  0.76076849  0.88044016  0.36297001  1
  O  O142  1  0.18127821  0.48040958  0.36343574  1
  O  O143  1  0.67848128  0.47950249  0.36507184  1
  O  O144  1  0.06007633  0.47805985  0.86102087  1
  O  O145  1  0.56151167  0.48246694  0.86305130  1
  O  O146  1  0.18009352  0.88496194  0.86392219  1
  O  O147  1  0.67972971  0.88655583  0.86171386  1
  O  O148  1  0.26230863  0.63625902  0.86219328  1
  O  O149  1  0.76297562  0.63721685  0.86207171  1
  O  O150  1  0.01270117  0.82527559  0.41220329  1
  O  O151  1  0.51016916  0.82522471  0.41088656  1
  O  O152  1  0.40211428  0.97909843  0.41119058  1
  O  O153  1  0.90172946  0.98252689  0.41067406  1
  O  O154  1  0.08855788  0.19755010  0.41072761  1
  O  O155  1  0.58693618  0.19450420  0.41141055  1
  O  O156  1  0.01366238  0.20148566  0.91289420  1
  O  O157  1  0.51420667  0.20302916  0.91325995  1
  O  O158  1  0.08769200  0.97854082  0.91252777  1
  O  O159  1  0.58780928  0.97847988  0.91216375  1
  O  O160  1  0.40151856  0.82152660  0.91261908  1
  O  O161  1  0.90147626  0.82212226  0.91240893  1
  O  O162  1  0.48968781  0.17841352  0.58753680  1
  O  O163  1  0.99181310  0.17933053  0.58861093  1
  O  O164  1  0.09924558  0.02191158  0.58850539  1
  O  O165  1  0.59749435  0.01888059  0.58925922  1
  O  O166  1  0.41305056  0.79927341  0.58684259  1
  O  O167  1  0.91261441  0.79968571  0.58776260  1
  O  O168  1  0.48976480  0.80333162  0.08985256  1
  O  O169  1  0.99123796  0.80369530  0.08830501  1
  O  O170  1  0.41179180  0.02115439  0.08992792  1
  O  O171  1  0.91283064  0.02558062  0.08772077  1
  O  O172  1  0.09908278  0.17744854  0.08927487  1
  O  O173  1  0.59723673  0.17497265  0.08929087  1
  O  O174  1  0.34228592  0.17292942  0.74448939  1
  O  O175  1  0.84250267  0.17739756  0.74469689  1
  O  O176  1  0.23659753  0.32232480  0.74314585  1
  O  O177  1  0.73477522  0.31577392  0.74449591  1
  O  O178  1  0.41792179  0.53630794  0.74301752  1
  O  O179  1  0.91878802  0.53585728  0.74473099  1
  O  O180  1  0.34372989  0.52920578  0.24394318  1
  O  O181  1  0.84777786  0.51276247  0.24465031  1
  O  O182  1  0.41883367  0.30850566  0.24335172  1
  O  O183  1  0.92139660  0.30563510  0.24425379  1
  O  O184  1  0.23685999  0.15835943  0.24328468  1
  O  O185  1  0.73549618  0.15052583  0.24409378  1
  O  O186  1  0.32269443  0.50502937  0.92359761  1
  O  O187  1  0.82267211  0.50527956  0.92370752  1
  O  O188  1  0.43213111  0.35633405  0.92278020  1
  O  O189  1  0.93191332  0.35570962  0.92230813  1
  O  O190  1  0.24650048  0.13905380  0.92377198  1
  O  O191  1  0.74677356  0.13874223  0.92294090  1
  O  O192  1  0.32308611  0.13651952  0.42399072  1
  O  O193  1  0.82160048  0.13807787  0.42199147  1
  O  O194  1  0.24571279  0.35536976  0.42347942  1
  O  O195  1  0.74612732  0.35549358  0.42255793  1
  O  O196  1  0.43199543  0.50910571  0.42329639  1
  O  O197  1  0.93143081  0.50732710  0.42243571  1
  O  O198  1  0.17803803  0.49191609  0.07621170  1
  O  O199  1  0.67604867  0.48991301  0.07555350  1
  O  O200  1  0.06874727  0.64496365  0.07579057  1
  O  O201  1  0.56822447  0.64653958  0.07632203  1
  O  O202  1  0.25489933  0.86401434  0.07662890  1
  O  O203  1  0.75483534  0.86479325  0.07683428  1
  O  O204  1  0.17810590  0.86258724  0.57706553  1
  O  O205  1  0.67633210  0.85973441  0.57721843  1
  O  O206  1  0.25376878  0.64400377  0.57765644  1
  O  O207  1  0.75376029  0.64371652  0.57827213  1
  O  O208  1  0.07065398  0.49563993  0.57664643  1
  O  O209  1  0.56916644  0.49501445  0.57665819  1
  O  O210  1  0.15306804  0.83788788  0.25563484  1
  O  O211  1  0.65327891  0.83995198  0.25602567  1
  O  O212  1  0.26483476  0.68961284  0.25513175  1
  O  O213  1  0.75711132  0.69364208  0.25646425  1
  O  O214  1  0.07896225  0.47645537  0.25580172  1
  O  O215  1  0.57662935  0.46614781  0.25513709  1
  O  O216  1  0.15100260  0.46299388  0.75574316  1
  O  O217  1  0.65391056  0.46798461  0.75617370  1
  O  O218  1  0.07572132  0.67824692  0.75592611  1
  O  O219  1  0.57726739  0.68601429  0.75647842  1
  O  O220  1  0.25615960  0.81664286  0.75462124  1
  O  O221  1  0.75369749  0.82333475  0.75619294  1
