# generated using pymatgen
data_Na8Ti2In2Si5SO24
_symmetry_space_group_name_H-M   'P 1'
_cell_length_a   9.17457510
_cell_length_b   9.16967748
_cell_length_c   22.31860756
_cell_angle_alpha   90.20550721
_cell_angle_beta   89.43932213
_cell_angle_gamma   120.04724332
_symmetry_Int_Tables_number   1
_chemical_formula_structural   Na8Ti2In2Si5SO24
_chemical_formula_sum   'Na24 Ti6 In6 Si15 S3 O72'
_cell_volume   1625.21008856
_cell_formula_units_Z   3
loop_
 _symmetry_equiv_pos_site_id
 _symmetry_equiv_pos_as_xyz
  1  'x, y, z'
loop_
 _atom_site_type_symbol
 _atom_site_label
 _atom_site_symmetry_multiplicity
 _atom_site_fract_x
 _atom_site_fract_y
 _atom_site_fract_z
 _atom_site_occupancy
  Na  Na0  1  0.64485055  0.00668602  0.25156515  1
  Na  Na1  1  0.35492751  0.36200261  0.24916782  1
  Na  Na2  1  0.99957348  0.63974840  0.24998658  1
  Na  Na3  1  0.63302817  0.63202041  0.74743794  1
  Na  Na4  1  0.99133431  0.35894889  0.74840926  1
  Na  Na5  1  0.37092641  0.01128069  0.74885077  1
  Na  Na6  1  0.29594651  0.33499660  0.58683959  1
  Na  Na7  1  0.04150123  0.70659066  0.58273446  1
  Na  Na8  1  0.66555320  0.95677354  0.58292327  1
  Na  Na9  1  0.28588457  0.96400799  0.08163134  1
  Na  Na10  1  0.67201754  0.69444184  0.08803532  1
  Na  Na11  1  0.04580543  0.33613873  0.08767225  1
  Na  Na12  1  0.97347635  0.66991581  0.91621457  1
  Na  Na13  1  0.70718829  0.04450342  0.90766464  1
  Na  Na14  1  0.32082796  0.28390281  0.91803885  1
  Na  Na15  1  0.95735953  0.29424716  0.41099764  1
  Na  Na16  1  0.32874259  0.02422831  0.41623522  1
  Na  Na17  1  0.71048562  0.67732164  0.41800960  1
  Na  Na18  1  0.99084404  0.98909506  0.50184014  1
  Na  Na19  1  0.02025903  0.00843831  0.00000077  1
  Na  Na20  1  0.66703695  0.32641389  0.82922818  1
  Na  Na21  1  0.67213771  0.33031578  0.33331563  1
  Na  Na22  1  0.32536331  0.65583429  0.16856775  1
  Na  Na23  1  0.33712091  0.66732069  0.66506189  1
  Ti  Ti24  1  0.99992552  0.00083658  0.64940653  1
  Ti  Ti25  1  0.66601168  0.33446074  0.68397847  1
  Ti  Ti26  1  0.66785288  0.35171720  0.18797383  1
  Ti  Ti27  1  0.67942853  0.33027466  0.48569845  1
  Ti  Ti28  1  0.32902842  0.68342595  0.31303568  1
  Ti  Ti29  1  0.31445808  0.67040618  0.80876197  1
  In  In30  1  0.99369855  0.99376468  0.34577802  1
  In  In31  1  0.00875139  0.00690686  0.84505128  1
  In  In32  1  0.00722365  0.00022842  0.15497871  1
  In  In33  1  0.66716846  0.33277185  0.98019502  1
  In  In34  1  0.31516186  0.65373645  0.01884953  1
  In  In35  1  0.33629968  0.67645870  0.52119638  1
  Si  Si36  1  0.30537072  0.00596744  0.25028042  1
  Si  Si37  1  0.69319727  0.70069234  0.25041333  1
  Si  Si38  1  -0.00001168  0.30523485  0.25012352  1
  Si  Si39  1  0.29905874  0.29951176  0.74847902  1
  Si  Si40  1  0.99261356  0.70471156  0.74912695  1
  Si  Si41  1  0.70267133  0.99909906  0.74960013  1
  Si  Si42  1  0.95639330  0.32728834  0.58558533  1
  Si  Si43  1  0.37726749  0.05082445  0.58447193  1
  Si  Si44  1  0.67230022  0.62222668  0.58339916  1
  Si  Si45  1  0.95712974  0.62856174  0.08331823  1
  Si  Si46  1  0.37441352  0.33313332  0.08286675  1
  Si  Si47  1  0.03932435  0.36928998  0.91481502  1
  Si  Si48  1  0.33305635  0.95800240  0.91655327  1
  Si  Si49  1  0.62813224  0.96318309  0.41774713  1
  Si  Si50  1  0.03576473  0.66493745  0.41843175  1
  S  S51  1  0.66771129  0.04008811  0.08409744  1
  S  S52  1  0.62188891  0.66848975  0.91498862  1
  S  S53  1  0.33645195  0.37516167  0.41662822  1
  O  O54  1  0.23231764  0.05530599  0.30877828  1
  O  O55  1  0.81644598  0.76522529  0.30768906  1
  O  O56  1  0.95468001  0.18351416  0.30859940  1
  O  O57  1  0.23809601  0.18592988  0.80898880  1
  O  O58  1  0.94885600  0.77125636  0.81026488  1
  O  O59  1  0.81556266  0.04170395  0.80959446  1
  O  O60  1  0.80503207  0.96836060  0.69297382  1
  O  O61  1  0.16479175  0.19829237  0.69298492  1
  O  O62  1  0.03079708  0.83643202  0.69286157  1
  O  O63  1  0.76654637  0.82291835  0.19194304  1
  O  O64  1  0.04576768  0.22960496  0.19116653  1
  O  O65  1  0.18306542  0.94737967  0.19262646  1
  O  O66  1  0.86034837  0.35553399  0.64220845  1
  O  O67  1  0.49830160  0.14835842  0.64174302  1
  O  O68  1  0.64993916  0.50392629  0.64162742  1
  O  O69  1  0.85047607  0.50274732  0.14037231  1
  O  O70  1  0.64903370  0.12672127  0.13671290  1
  O  O71  1  0.49640136  0.34772333  0.14013107  1
  O  O72  1  0.44759442  0.29597619  0.02132348  1
  O  O73  1  0.85353002  0.54972567  0.02158832  1
  O  O74  1  0.69104595  0.13450684  0.02745253  1
  O  O75  1  0.47372210  0.16879719  0.52442025  1
  O  O76  1  0.69779939  0.52612359  0.52378411  1
  O  O77  1  0.83625740  0.30096578  0.52523022  1
  O  O78  1  0.54787114  0.68840741  0.97216577  1
  O  O79  1  0.14793509  0.43562710  0.97628172  1
  O  O80  1  0.31315033  0.85533508  0.97856304  1
  O  O81  1  0.55698222  0.84666325  0.47744257  1
  O  O82  1  0.31095524  0.44827896  0.47253181  1
  O  O83  1  0.14575539  0.69606729  0.47846695  1
  O  O84  1  0.13750698  0.64115716  0.36008294  1
  O  O85  1  0.50057938  0.85946075  0.36070907  1
  O  O86  1  0.35327415  0.47866353  0.36334290  1
  O  O87  1  0.14748445  0.49832608  0.85772030  1
  O  O88  1  0.35070638  0.85218042  0.85781834  1
  O  O89  1  0.51931654  0.65326166  0.86246555  1
  O  O90  1  0.01898564  0.83425426  0.41302579  1
  O  O91  1  0.81949954  0.99368120  0.41198802  1
  O  O92  1  0.18489684  0.20252638  0.41313477  1
  O  O93  1  0.01047749  0.17853506  0.91123215  1
  O  O94  1  0.16135589  0.97047856  0.91357208  1
  O  O95  1  0.79373466  0.81920887  0.91258660  1
  O  O96  1  0.96688450  0.15438087  0.58927163  1
  O  O97  1  0.19076007  0.03558089  0.58919273  1
  O  O98  1  0.84337365  0.80921150  0.58870291  1
  O  O99  1  0.97168482  0.81397195  0.08738130  1
  O  O100  1  0.82079862  0.02214405  0.08747750  1
  O  O101  1  0.18368600  0.17054058  0.08770208  1
  O  O102  1  0.67784798  0.16331039  0.74075090  1
  O  O103  1  0.48875789  0.32534745  0.73931158  1
  O  O104  1  0.83445730  0.51369697  0.74108341  1
  O  O105  1  0.67084110  0.50983383  0.24127828  1
  O  O106  1  0.83244327  0.32572307  0.24122327  1
  O  O107  1  0.49571560  0.16509151  0.24004637  1
  O  O108  1  0.63518084  0.51232053  0.91563641  1
  O  O109  1  0.85835483  0.36614556  0.91479244  1
  O  O110  1  0.50629397  0.14366368  0.91395525  1
  O  O111  1  0.63401653  0.14747244  0.42139481  1
  O  O112  1  0.49191242  0.36242081  0.41892293  1
  O  O113  1  0.84797553  0.48977219  0.42096648  1
  O  O114  1  0.37469390  0.51361883  0.08397855  1
  O  O115  1  0.14310326  0.64307190  0.08742376  1
  O  O116  1  0.51462332  0.86953180  0.08204838  1
  O  O117  1  0.36032082  0.86487375  0.58530311  1
  O  O118  1  0.50088211  0.63502217  0.58190112  1
  O  O119  1  0.14273014  0.49337030  0.58157773  1
  O  O120  1  0.32498847  0.83603660  0.25963721  1
  O  O121  1  0.50375871  0.67194575  0.26141777  1
  O  O122  1  0.16885790  0.49296698  0.25942477  1
  O  O123  1  0.31281333  0.48534296  0.75466864  1
  O  O124  1  0.16895024  0.69265857  0.75410397  1
  O  O125  1  0.51648336  0.82522384  0.75497030  1
