# generated using pymatgen
data_Na3MgSn(PO4)3
_symmetry_space_group_name_H-M   'P 1'
_cell_length_a   8.96533143
_cell_length_b   8.96360773
_cell_length_c   22.12558175
_cell_angle_alpha   90.00000000
_cell_angle_beta   90.10735431
_cell_angle_gamma   119.99364242
_symmetry_Int_Tables_number   1
_chemical_formula_structural   Na3MgSn(PO4)3
_chemical_formula_sum   'Na18 Mg6 Sn6 P18 O72'
_cell_volume   1539.93122248
_cell_formula_units_Z   6
loop_
 _symmetry_equiv_pos_site_id
 _symmetry_equiv_pos_as_xyz
  1  'x, y, z'
loop_
 _atom_site_type_symbol
 _atom_site_label
 _atom_site_symmetry_multiplicity
 _atom_site_fract_x
 _atom_site_fract_y
 _atom_site_fract_z
 _atom_site_occupancy
  Na  Na0  1  0.98272675  0.96623556  0.49414641  1
  Na  Na1  1  0.98272675  0.01649119  0.99414641  1
  Na  Na2  1  0.66707958  0.33713564  0.82742541  1
  Na  Na3  1  0.66707958  0.32994294  0.32742541  1
  Na  Na4  1  0.33041296  0.66354271  0.16077266  1
  Na  Na5  1  0.33041296  0.66687125  0.66077266  1
  Na  Na6  1  0.36866339  0.36072582  0.24665454  1
  Na  Na7  1  0.98812706  0.63253321  0.24668877  1
  Na  Na8  1  0.98812706  0.35559385  0.74668877  1
  Na  Na9  1  0.36866339  0.00793757  0.74665454  1
  Na  Na10  1  0.30925067  0.34430633  0.58021223  1
  Na  Na11  1  0.65806171  0.96460602  0.57981394  1
  Na  Na12  1  0.30925067  0.96494334  0.08021223  1
  Na  Na13  1  0.65806171  0.69345469  0.07981394  1
  Na  Na14  1  0.97723082  0.68002519  0.91237555  1
  Na  Na15  1  0.32516296  0.29890670  0.91379425  1
  Na  Na16  1  0.97723082  0.29720663  0.41237555  1
  Na  Na17  1  0.32516296  0.02625726  0.41379425  1
  Mg  Mg18  1  0.99204202  0.99435033  0.35170715  1
  Mg  Mg19  1  0.99204202  0.99769169  0.85170715  1
  Mg  Mg20  1  0.66871491  0.34162659  0.68509392  1
  Mg  Mg21  1  0.66871491  0.32708731  0.18509392  1
  Mg  Mg22  1  0.32975035  0.66163846  0.01854702  1
  Mg  Mg23  1  0.32975035  0.66811289  0.51854702  1
  Sn  Sn24  1  0.99643456  0.99257598  0.65116977  1
  Sn  Sn25  1  0.99643456  0.00385858  0.15116977  1
  Sn  Sn26  1  0.67090155  0.32780106  0.98446295  1
  Sn  Sn27  1  0.67090155  0.34309948  0.48446295  1
  Sn  Sn28  1  0.34096487  0.67277925  0.31779874  1
  Sn  Sn29  1  0.34096487  0.66818662  0.81779874  1
  P  P30  1  0.29467119  0.99808948  0.25244529  1
  P  P31  1  0.70236355  0.70534476  0.24994869  1
  P  P32  1  0.00303661  0.29943369  0.25502006  1
  P  P33  1  0.29467119  0.29658171  0.75244529  1
  P  P34  1  0.00303661  0.70360293  0.75502006  1
  P  P35  1  0.70236355  0.99701879  0.74994869  1
  P  P36  1  0.96316297  0.33135303  0.58659995  1
  P  P37  1  0.36901391  0.03895415  0.58599613  1
  P  P38  1  0.66838455  0.63038764  0.58495200  1
  P  P39  1  0.96316297  0.63180893  0.08659995  1
  P  P40  1  0.66838455  0.03799591  0.08495200  1
  P  P41  1  0.36901391  0.33005876  0.08599613  1
  P  P42  1  0.63034588  0.66479675  0.92199870  1
  P  P43  1  0.03812538  0.37347771  0.91681796  1
  P  P44  1  0.33762957  0.96612348  0.91868853  1
  P  P45  1  0.63034588  0.96555014  0.42199870  1
  P  P46  1  0.33762957  0.37150709  0.41868853  1
  P  P47  1  0.03812538  0.66464867  0.41681796  1
  O  O48  1  0.20526556  0.01923812  0.30744569  1
  O  O49  1  0.82262705  0.80189643  0.30139530  1
  O  O50  1  0.98811757  0.19929549  0.31191561  1
  O  O51  1  0.20526556  0.18602743  0.80744569  1
  O  O52  1  0.98811757  0.78882208  0.81191561  1
  O  O53  1  0.82262705  0.02073062  0.80139530  1
  O  O54  1  0.77286084  0.96744153  0.68826515  1
  O  O55  1  0.17802349  0.21756015  0.69365323  1
  O  O56  1  0.04331015  0.82497400  0.69823767  1
  O  O57  1  0.77286084  0.80541931  0.18826515  1
  O  O58  1  0.04331015  0.21833615  0.19823767  1
  O  O59  1  0.17802349  0.96046334  0.19365323  1
  O  O60  1  0.87353926  0.34531835  0.64238661  1
  O  O61  1  0.47981630  0.12889860  0.64106628  1
  O  O62  1  0.64377301  0.51411936  0.63764880  1
  O  O63  1  0.87353926  0.52821991  0.14238661  1
  O  O64  1  0.64377301  0.12965265  0.13764880  1
  O  O65  1  0.47981630  0.35091670  0.14106628  1
  O  O66  1  0.44845960  0.29295964  0.02736185  1
  O  O67  1  0.84909133  0.55234681  0.02762571  1
  O  O68  1  0.70323368  0.14324935  0.02457498  1
  O  O69  1  0.44845960  0.15549896  0.52736185  1
  O  O70  1  0.70323368  0.55998333  0.52457498  1
  O  O71  1  0.84909133  0.29674352  0.52762571  1
  O  O72  1  0.54551402  0.68055937  0.97863769  1
  O  O73  1  0.15717358  0.46872894  0.96880342  1
  O  O74  1  0.31841815  0.85582039  0.97348594  1
  O  O75  1  0.54551402  0.86495565  0.47863769  1
  O  O76  1  0.31841815  0.46259876  0.47348594  1
  O  O77  1  0.15717358  0.68844564  0.46880342  1
  O  O78  1  0.11083697  0.62739171  0.35641026  1
  O  O79  1  0.50893772  0.88700101  0.36486174  1
  O  O80  1  0.36428366  0.47758480  0.35872555  1
  O  O81  1  0.11083697  0.48344626  0.85641026  1
  O  O82  1  0.36428366  0.88669986  0.85872555  1
  O  O83  1  0.50893772  0.62193771  0.86486174  1
  O  O84  1  0.01752468  0.82290908  0.40983880  1
  O  O85  1  0.81167546  0.99347011  0.41302563  1
  O  O86  1  0.17785020  0.19006892  0.41323480  1
  O  O87  1  0.01752468  0.19461559  0.90983880  1
  O  O88  1  0.17785020  0.98778128  0.91323480  1
  O  O89  1  0.81167546  0.81820535  0.91302563  1
  O  O90  1  0.97691931  0.16098448  0.58775579  1
  O  O91  1  0.18813254  0.02781202  0.58902027  1
  O  O92  1  0.83080925  0.81646574  0.58859029  1
  O  O93  1  0.97691931  0.81593484  0.08775579  1
  O  O94  1  0.83080925  0.01434351  0.08859029  1
  O  O95  1  0.18813254  0.16032051  0.08902027  1
  O  O96  1  0.67812020  0.15537102  0.74518147  1
  O  O97  1  0.47141677  0.31323098  0.74460265  1
  O  O98  1  0.85028629  0.52147336  0.74643031  1
  O  O99  1  0.67812020  0.52274818  0.24518147  1
  O  O100  1  0.85028629  0.32881193  0.24643031  1
  O  O101  1  0.47141677  0.15818479  0.24460265  1
  O  O102  1  0.64601851  0.49522402  0.92313414  1
  O  O103  1  0.85878346  0.36493966  0.92135067  1
  O  O104  1  0.49918373  0.15301294  0.92069842  1
  O  O105  1  0.64601851  0.15079350  0.42313414  1
  O  O106  1  0.49918373  0.34616979  0.42069842  1
  O  O107  1  0.85878346  0.49384280  0.42135067  1
  O  O108  1  0.35091686  0.48928866  0.07838361  1
  O  O109  1  0.14617143  0.66246655  0.07938471  1
  O  O110  1  0.50944187  0.85646692  0.07862107  1
  O  O111  1  0.35091686  0.86162919  0.57838361  1
  O  O112  1  0.50944187  0.65297595  0.57862107  1
  O  O113  1  0.14617143  0.48370589  0.57938471  1
  O  O114  1  0.30595498  0.82858611  0.25524171  1
  O  O115  1  0.51661638  0.68204694  0.25461157  1
  O  O116  1  0.17333839  0.48392732  0.25526201  1
  O  O117  1  0.30595498  0.47736987  0.75524171  1
  O  O118  1  0.17333839  0.68941207  0.75526201  1
  O  O119  1  0.51661638  0.83457044  0.75461157  1
