# generated using pymatgen
data_Na3MgSn(PO4)3
_symmetry_space_group_name_H-M   'P 1'
_cell_length_a   15.49801900
_cell_length_b   8.96406487
_cell_length_c   8.93755480
_cell_angle_alpha   90.00000000
_cell_angle_beta   124.76570655
_cell_angle_gamma   90.00000000
_symmetry_Int_Tables_number   1
_chemical_formula_structural   Na3MgSn(PO4)3
_chemical_formula_sum   'Na12 Mg4 Sn4 P12 O48'
_cell_volume   1020.00552460
_cell_formula_units_Z   4
loop_
 _symmetry_equiv_pos_site_id
 _symmetry_equiv_pos_as_xyz
  1  'x, y, z'
loop_
 _atom_site_type_symbol
 _atom_site_label
 _atom_site_symmetry_multiplicity
 _atom_site_fract_x
 _atom_site_fract_y
 _atom_site_fract_z
 _atom_site_occupancy
  Na  Na0  1  0.25260371  0.72392673  0.98889232  1
  Na  Na1  1  0.75260371  0.77607327  0.48889232  1
  Na  Na2  1  0.75260371  0.22392673  0.98889232  1
  Na  Na3  1  0.25260371  0.27607327  0.48889232  1
  Na  Na4  1  0.50334608  0.11341063  0.74860005  1
  Na  Na5  1  0.50334608  0.88658937  0.24860005  1
  Na  Na6  1  0.00334608  0.61341063  0.74860005  1
  Na  Na7  1  0.00334608  0.38658937  0.24860005  1
  Na  Na8  1  0.18362645  0.94184357  0.28426146  1
  Na  Na9  1  0.18362645  0.05815643  0.78426146  1
  Na  Na10  1  0.68362645  0.44184357  0.28426146  1
  Na  Na11  1  0.68362645  0.55815643  0.78426146  1
  Mg  Mg12  1  0.10267214  0.75045656  0.56059121  1
  Mg  Mg13  1  0.10267214  0.24954344  0.06059121  1
  Mg  Mg14  1  0.60267214  0.25045656  0.56059121  1
  Mg  Mg15  1  0.60267214  0.74954344  0.06059121  1
  Sn  Sn16  1  0.89751679  0.75650011  0.94831573  1
  Sn  Sn17  1  0.89751679  0.24349989  0.44831573  1
  Sn  Sn18  1  0.39751679  0.25650011  0.94831573  1
  Sn  Sn19  1  0.39751679  0.74349989  0.44831573  1
  P  P20  1  -0.00001321  0.95182725  0.75949046  1
  P  P21  1  -0.00001321  0.04817275  0.25949046  1
  P  P22  1  0.49998679  0.45182725  0.75949046  1
  P  P23  1  0.49998679  0.54817275  0.25949046  1
  P  P24  1  0.35396602  0.90018902  0.76328248  1
  P  P25  1  0.64705575  0.89170217  0.74891408  1
  P  P26  1  0.64705575  0.10829783  0.24891408  1
  P  P27  1  0.35396602  0.09981098  0.26328248  1
  P  P28  1  0.85396602  0.40018902  0.76328248  1
  P  P29  1  0.14705575  0.39170217  0.74891408  1
  P  P30  1  0.14705575  0.60829783  0.24891408  1
  P  P31  1  0.85396602  0.59981098  0.26328248  1
  O  O32  1  0.15261530  0.56160548  0.74150563  1
  O  O33  1  0.84669050  0.57760219  0.75846747  1
  O  O34  1  0.84669050  0.42239781  0.25846747  1
  O  O35  1  0.15261530  0.43839452  0.24150563  1
  O  O36  1  0.65261530  0.06160548  0.74150563  1
  O  O37  1  0.34669050  0.07760219  0.75846747  1
  O  O38  1  0.34669050  0.92239781  0.25846747  1
  O  O39  1  0.65261530  0.93839452  0.24150563  1
  O  O40  1  0.43205021  0.54688917  0.58111204  1
  O  O41  1  0.56252195  0.54708243  0.92881413  1
  O  O42  1  0.56252195  0.45291757  0.42881413  1
  O  O43  1  0.43205021  0.45311083  0.08111204  1
  O  O44  1  0.93205021  0.04688917  0.58111204  1
  O  O45  1  0.06252195  0.04708243  0.92881413  1
  O  O46  1  0.06252195  0.95291757  0.42881413  1
  O  O47  1  0.93205021  0.95311083  0.08111204  1
  O  O48  1  0.25679218  0.83953504  0.74761394  1
  O  O49  1  0.73984933  0.81273362  0.75416974  1
  O  O50  1  0.73984933  0.18726638  0.25416974  1
  O  O51  1  0.25679218  0.16046496  0.24761394  1
  O  O52  1  0.75679218  0.33953504  0.74761394  1
  O  O53  1  0.23984933  0.31273362  0.75416974  1
  O  O54  1  0.23984933  0.68726638  0.25416974  1
  O  O55  1  0.75679218  0.66046496  0.24761394  1
  O  O56  1  0.35002169  0.87052133  0.58384784  1
  O  O57  1  0.64245821  0.84068164  0.90520062  1
  O  O58  1  0.64245821  0.15931836  0.40520062  1
  O  O59  1  0.35002169  0.12947867  0.08384784  1
  O  O60  1  0.85002169  0.37052133  0.58384784  1
  O  O61  1  0.14245821  0.34068164  0.90520062  1
  O  O62  1  0.14245821  0.65931836  0.40520062  1
  O  O63  1  0.85002169  0.62947867  0.08384784  1
  O  O64  1  0.45616502  0.84781321  0.93272009  1
  O  O65  1  0.54772197  0.82912114  0.56261598  1
  O  O66  1  0.54772197  0.17087886  0.06261598  1
  O  O67  1  0.45616502  0.15218679  0.43272009  1
  O  O68  1  0.95616502  0.34781321  0.93272009  1
  O  O69  1  0.04772197  0.32912114  0.56261598  1
  O  O70  1  0.04772197  0.67087886  0.06261598  1
  O  O71  1  0.95616502  0.65218679  0.43272009  1
  O  O72  1  0.07597450  0.84960682  0.74720629  1
  O  O73  1  0.91636540  0.84780180  0.75437842  1
  O  O74  1  0.91636540  0.15219820  0.25437842  1
  O  O75  1  0.07597450  0.15039318  0.24720629  1
  O  O76  1  0.57597450  0.34960682  0.74720629  1
  O  O77  1  0.41636540  0.34780180  0.75437842  1
  O  O78  1  0.41636540  0.65219820  0.25437842  1
  O  O79  1  0.57597450  0.65039318  0.24720629  1
