# generated using pymatgen
data_Na2Ta2Ga2Si3(SO8)3
_symmetry_space_group_name_H-M   'P 1'
_cell_length_a   8.71025579
_cell_length_b   8.73497296
_cell_length_c   22.65410091
_cell_angle_alpha   89.29174192
_cell_angle_beta   90.66900432
_cell_angle_gamma   119.57561742
_symmetry_Int_Tables_number   1
_chemical_formula_structural   Na2Ta2Ga2Si3(SO8)3
_chemical_formula_sum   'Na6 Ta6 Ga6 Si9 S9 O72'
_cell_volume   1498.88802809
_cell_formula_units_Z   3
loop_
 _symmetry_equiv_pos_site_id
 _symmetry_equiv_pos_as_xyz
  1  'x, y, z'
loop_
 _atom_site_type_symbol
 _atom_site_label
 _atom_site_symmetry_multiplicity
 _atom_site_fract_x
 _atom_site_fract_y
 _atom_site_fract_z
 _atom_site_occupancy
  Na  Na0  1  0.98788706  0.98596544  0.49180878  1
  Na  Na1  1  0.00562373  0.99200198  0.99694330  1
  Na  Na2  1  0.65438644  0.32022712  0.82555152  1
  Na  Na3  1  0.66996277  0.32244975  0.32874386  1
  Na  Na4  1  0.31944713  0.66209950  0.16781777  1
  Na  Na5  1  0.34294129  0.66288282  0.65983573  1
  Ta  Ta6  1  0.98973259  0.00125854  0.64468958  1
  Ta  Ta7  1  0.00579256  0.99588628  0.14971576  1
  Ta  Ta8  1  0.66567265  0.33465215  0.97911128  1
  Ta  Ta9  1  0.67684001  0.34431250  0.47468514  1
  Ta  Ta10  1  0.32080036  0.67470321  0.31202032  1
  Ta  Ta11  1  0.34618815  0.68075956  0.80787885  1
  Ga  Ga12  1  0.00329055  0.00395751  0.35422541  1
  Ga  Ga13  1  0.01858134  0.01504788  0.84761352  1
  Ga  Ga14  1  0.64270628  0.32653851  0.68728839  1
  Ga  Ga15  1  0.68692177  0.33522656  0.19214460  1
  Ga  Ga16  1  0.30892619  0.67461040  0.02000203  1
  Ga  Ga17  1  0.35567287  0.68325976  0.51438484  1
  Si  Si18  1  0.30082413  0.01729931  0.25312675  1
  Si  Si19  1  0.00188233  0.28601644  0.25275368  1
  Si  Si20  1  0.29165081  0.28656672  0.75045108  1
  Si  Si21  1  0.72561947  0.01861072  0.75223023  1
  Si  Si22  1  0.65452335  0.61507270  0.58432807  1
  Si  Si23  1  0.95575106  0.62009115  0.08602990  1
  Si  Si24  1  0.32064896  0.95437379  0.91626545  1
  Si  Si25  1  0.63104685  0.95375925  0.41677602  1
  Si  Si26  1  0.05657980  0.68219088  0.42031136  1
  S  S27  1  0.70965013  0.70710067  0.25078768  1
  S  S28  1  0.99467535  0.70968046  0.75088081  1
  S  S29  1  0.95649861  0.34019088  0.58455100  1
  S  S30  1  0.37816523  0.04202269  0.58405632  1
  S  S31  1  0.66226931  0.03871338  0.08347494  1
  S  S32  1  0.37822193  0.33970731  0.08306956  1
  S  S33  1  0.62048301  0.67114776  0.91894149  1
  S  S34  1  0.04737828  0.37746670  0.91805001  1
  S  S35  1  0.32926192  0.37839519  0.41781765  1
  O  O36  1  0.20276785  0.03385525  0.30892601  1
  O  O37  1  0.81836149  0.78472161  0.30327376  1
  O  O38  1  0.96829852  0.16273211  0.30853199  1
  O  O39  1  0.21291127  0.17348920  0.80932269  1
  O  O40  1  0.96876949  0.78672372  0.80422360  1
  O  O41  1  0.83111469  0.02707137  0.81179061  1
  O  O42  1  0.80317253  0.96776836  0.69334544  1
  O  O43  1  0.16512876  0.19363264  0.69192098  1
  O  O44  1  0.03252798  0.82316935  0.69724121  1
  O  O45  1  0.79374111  0.82284235  0.19547421  1
  O  O46  1  0.02592129  0.19137336  0.19092193  1
  O  O47  1  0.16913744  0.96667688  0.19220536  1
  O  O48  1  0.87318812  0.35730511  0.63737979  1
  O  O49  1  0.48502261  0.11847775  0.63784810  1
  O  O50  1  0.64019558  0.50207613  0.64254774  1
  O  O51  1  0.85324323  0.49590930  0.14054989  1
  O  O52  1  0.63084338  0.11635312  0.13539375  1
  O  O53  1  0.48312259  0.36190979  0.13585565  1
  O  O54  1  0.46094573  0.30516614  0.02877418  1
  O  O55  1  0.83152869  0.52418201  0.02544244  1
  O  O56  1  0.68875057  0.15422641  0.02901168  1
  O  O57  1  0.45787988  0.15289363  0.53101977  1
  O  O58  1  0.69064438  0.52303866  0.52644374  1
  O  O59  1  0.84338185  0.30280277  0.53028639  1
  O  O60  1  0.53517702  0.68803936  0.97152810  1
  O  O61  1  0.15455827  0.45578608  0.97159104  1
  O  O62  1  0.30247752  0.84084596  0.97452607  1
  O  O63  1  0.54976310  0.84099898  0.47566638  1
  O  O64  1  0.30520814  0.45630806  0.47123384  1
  O  O65  1  0.16585212  0.69161117  0.47880218  1
  O  O66  1  0.13168051  0.63218310  0.36005649  1
  O  O67  1  0.49956255  0.85894394  0.35884012  1
  O  O68  1  0.36559670  0.48828844  0.36389984  1
  O  O69  1  0.12306902  0.48719096  0.86474716  1
  O  O70  1  0.35880980  0.85993636  0.85942063  1
  O  O71  1  0.50846941  0.63510478  0.86411797  1
  O  O72  1  0.02664140  0.84561121  0.40962244  1
  O  O73  1  0.82634396  0.98564855  0.40880229  1
  O  O74  1  0.17889585  0.20182201  0.41240444  1
  O  O75  1  0.01838643  0.19849629  0.91324062  1
  O  O76  1  0.14575188  0.97343189  0.90891383  1
  O  O77  1  0.79611392  0.82115646  0.91140704  1
  O  O78  1  0.97166392  0.17192020  0.58855286  1
  O  O79  1  0.19920472  0.02883045  0.59044827  1
  O  O80  1  0.83986473  0.81307867  0.59181399  1
  O  O81  1  0.97139497  0.81720843  0.08888269  1
  O  O82  1  0.82796122  0.02971029  0.08669640  1
  O  O83  1  0.19956308  0.17639836  0.08642752  1
  O  O84  1  0.69858455  0.18403857  0.73971666  1
  O  O85  1  0.48824358  0.31844833  0.74485820  1
  O  O86  1  0.84714792  0.53317718  0.74351248  1
  O  O87  1  0.68923500  0.53354270  0.24163040  1
  O  O88  1  0.83426947  0.31540908  0.24573076  1
  O  O89  1  0.48745582  0.18554626  0.23753020  1
  O  O90  1  0.63545583  0.50383494  0.92370487  1
  O  O91  1  0.86516187  0.36271011  0.92467106  1
  O  O92  1  0.50342823  0.15124745  0.92568160  1
  O  O93  1  0.63642788  0.14678663  0.42667735  1
  O  O94  1  0.49407712  0.35990109  0.42385659  1
  O  O95  1  0.85737434  0.49804248  0.42500559  1
  O  O96  1  0.36134273  0.49629852  0.07200117  1
  O  O97  1  0.14978079  0.63745108  0.07915107  1
  O  O98  1  0.51169155  0.86120812  0.07461913  1
  O  O99  1  0.35257325  0.86382405  0.57919975  1
  O  O100  1  0.48233389  0.63939165  0.57656017  1
  O  O101  1  0.13250142  0.48924924  0.57731248  1
  O  O102  1  0.31426268  0.83342929  0.25493602  1
  O  O103  1  0.53475897  0.69517166  0.25378107  1
  O  O104  1  0.18557900  0.47907515  0.25660048  1
  O  O105  1  0.30216290  0.48163133  0.76041154  1
  O  O106  1  0.16132140  0.69480056  0.75713063  1
  O  O107  1  0.52571626  0.83459208  0.75798489  1
