# generated using pymatgen
data_Na30Mg8Ta16Si27(SO16)9
_symmetry_space_group_name_H-M   'P 1'
_cell_length_a   18.00269555
_cell_length_b   8.99815854
_cell_length_c   22.52947392
_cell_angle_alpha   89.96293847
_cell_angle_beta   90.07554102
_cell_angle_gamma   120.06187089
_symmetry_Int_Tables_number   1
_chemical_formula_structural   Na30Mg8Ta16Si27(SO16)9
_chemical_formula_sum   'Na30 Mg8 Ta16 Si27 S9 O144'
_cell_volume   3158.64910874
_cell_formula_units_Z   1
loop_
 _symmetry_equiv_pos_site_id
 _symmetry_equiv_pos_as_xyz
  1  'x, y, z'
loop_
 _atom_site_type_symbol
 _atom_site_label
 _atom_site_symmetry_multiplicity
 _atom_site_fract_x
 _atom_site_fract_y
 _atom_site_fract_z
 _atom_site_occupancy
  Na  Na0  1  0.18211321  0.00448206  0.74217149  1
  Na  Na1  1  0.65665532  0.33786507  0.58795198  1
  Na  Na2  1  0.01215630  0.68040622  0.58858737  1
  Na  Na3  1  0.51016424  0.67614911  0.58856668  1
  Na  Na4  1  0.65647844  0.97527237  0.08673359  1
  Na  Na5  1  0.50890596  0.34417777  0.08795598  1
  Na  Na6  1  0.48207551  0.68031909  0.90944807  1
  Na  Na7  1  0.98394586  0.68232821  0.91053044  1
  Na  Na8  1  0.35500719  0.03271847  0.91669879  1
  Na  Na9  1  0.85515491  0.03333633  0.91428227  1
  Na  Na10  1  0.16066925  0.29036054  0.91662528  1
  Na  Na11  1  0.66114462  0.28953001  0.91412006  1
  Na  Na12  1  0.48287442  0.28539128  0.40792323  1
  Na  Na13  1  0.98378613  0.28898029  0.41602814  1
  Na  Na14  1  0.16101138  0.03395554  0.41557604  1
  Na  Na15  1  0.66052158  0.03198168  0.41379920  1
  Na  Na16  1  0.35628402  0.67721404  0.41486746  1
  Na  Na17  1  0.85502777  0.67826337  0.41457397  1
  Na  Na18  1  0.99981155  0.00984112  0.49568510  1
  Na  Na19  1  0.49584721  0.00163247  0.49390135  1
  Na  Na20  1  0.00079112  0.99949567  0.99306007  1
  Na  Na21  1  0.49481565  0.98879113  0.99321833  1
  Na  Na22  1  0.34409234  0.35892365  0.82700854  1
  Na  Na23  1  0.83798454  0.34511371  0.82373894  1
  Na  Na24  1  0.33924921  0.33151074  0.32302061  1
  Na  Na25  1  0.83239920  0.33274549  0.32660154  1
  Na  Na26  1  0.16674193  0.66662136  0.16090553  1
  Na  Na27  1  0.66980960  0.66293709  0.16687134  1
  Na  Na28  1  0.16845909  0.65371338  0.66522973  1
  Na  Na29  1  0.67051117  0.67750084  0.66850914  1
  Mg  Mg30  1  0.99967608  0.00008023  0.35425039  1
  Mg  Mg31  1  0.49976076  0.00656933  0.35333986  1
  Mg  Mg32  1  0.99823346  0.99154778  0.85438337  1
  Mg  Mg33  1  0.49951870  0.99238186  0.85423794  1
  Mg  Mg34  1  0.34027242  0.34804424  0.68290076  1
  Mg  Mg35  1  0.83770053  0.34250069  0.68379219  1
  Mg  Mg36  1  0.33851944  0.33285275  0.18284352  1
  Mg  Mg37  1  0.83325152  0.33365900  0.17992936  1
  Ta  Ta38  1  0.00075185  0.99538455  0.64369343  1
  Ta  Ta39  1  0.49920780  0.98838393  0.64471624  1
  Ta  Ta40  1  0.00142975  0.99869689  0.14001697  1
  Ta  Ta41  1  0.49752990  0.00923424  0.14389591  1
  Ta  Ta42  1  0.33312253  0.33619342  0.98196159  1
  Ta  Ta43  1  0.83480685  0.33629313  0.98179100  1
  Ta  Ta44  1  0.33413052  0.33229576  0.48182484  1
  Ta  Ta45  1  0.83419724  0.33181378  0.48138345  1
  Ta  Ta46  1  0.16589413  0.66239721  0.02261224  1
  Ta  Ta47  1  0.66873300  0.66737973  0.02085913  1
  Ta  Ta48  1  0.16755521  0.66702354  0.52221290  1
  Ta  Ta49  1  0.66863889  0.67184192  0.52046241  1
  Ta  Ta50  1  0.16714408  0.66780857  0.31395481  1
  Ta  Ta51  1  0.66282134  0.65680931  0.31260417  1
  Ta  Ta52  1  0.16236904  0.66554806  0.81471169  1
  Ta  Ta53  1  0.66325243  0.66882959  0.81337730  1
  Si  Si54  1  0.49490024  0.29129684  0.25429348  1
  Si  Si55  1  0.99553754  0.69946642  0.75377752  1
  Si  Si56  1  0.49600457  0.69866621  0.75471705  1
  Si  Si57  1  0.47801536  0.32998837  0.58465310  1
  Si  Si58  1  0.97741114  0.33086675  0.58556329  1
  Si  Si59  1  0.19178067  0.04687875  0.58802552  1
  Si  Si60  1  0.69274377  0.04516504  0.58714054  1
  Si  Si61  1  0.32947799  0.61696177  0.58558938  1
  Si  Si62  1  0.83160362  0.62032329  0.58521079  1
  Si  Si63  1  0.47759076  0.62490178  0.08532033  1
  Si  Si64  1  0.97808136  0.61601331  0.08697202  1
  Si  Si65  1  0.32812496  0.04120493  0.08560264  1
  Si  Si66  1  0.83353105  0.04654207  0.08597373  1
  Si  Si67  1  0.19359829  0.33914415  0.08785403  1
  Si  Si68  1  0.69132769  0.33990629  0.08644489  1
  Si  Si69  1  0.31056204  0.66586008  0.91600099  1
  Si  Si70  1  0.81098676  0.66451568  0.91483647  1
  Si  Si71  1  0.02012307  0.37407203  0.91710690  1
  Si  Si72  1  0.52016270  0.37546132  0.91679334  1
  Si  Si73  1  0.16777222  0.95951131  0.91777912  1
  Si  Si74  1  0.66793519  0.96058871  0.91731471  1
  Si  Si75  1  0.31190387  0.95836137  0.41670895  1
  Si  Si76  1  0.81091302  0.95762724  0.41386912  1
  Si  Si77  1  0.16758152  0.37735670  0.41649427  1
  Si  Si78  1  0.66780154  0.37592275  0.41737523  1
  Si  Si79  1  0.02073293  0.66587211  0.41663909  1
  Si  Si80  1  0.52029509  0.66516955  0.41622850  1
  S  S81  1  0.14418474  -0.00108431  0.25172048  1
  S  S82  1  0.64717662  0.00164331  0.25139049  1
  S  S83  1  0.35378486  0.70892997  0.25161819  1
  S  S84  1  0.85604570  0.71068285  0.25168615  1
  S  S85  1  0.99996286  0.29001388  0.25150865  1
  S  S86  1  0.14411558  0.29132371  0.75151306  1
  S  S87  1  0.64493789  0.29045659  0.75145931  1
  S  S88  1  0.35558227  0.99918710  0.75170934  1
  S  S89  1  0.85553621  0.99912307  0.75154887  1
  O  O90  1  0.10181718  0.01043040  0.30647288  1
  O  O91  1  0.60390148  0.01291139  0.30521352  1
  O  O92  1  0.40216525  0.79014378  0.30644632  1
  O  O93  1  0.90493662  0.79309385  0.30636014  1
  O  O94  1  0.49147179  0.18829459  0.31296251  1
  O  O95  1  0.99312437  0.19440383  0.30648702  1
  O  O96  1  0.10249147  0.19311927  0.80531131  1
  O  O97  1  0.60153943  0.19326038  0.80468978  1
  O  O98  1  0.49161841  0.79508813  0.81261617  1
  O  O99  1  0.99520097  0.79931592  0.81209977  1
  O  O100  1  0.40419590  0.01789753  0.80578788  1
  O  O101  1  0.90419793  0.01791498  0.80597250  1
  O  O102  1  0.40059991  0.98166492  0.69783976  1
  O  O103  1  0.90118020  0.97819076  0.69833058  1
  O  O104  1  0.08888401  0.20554579  0.69763830  1
  O  O105  1  0.59017877  0.20623598  0.69626465  1
  O  O106  1  0.01352488  0.83366478  0.69386738  1
  O  O107  1  0.50972172  0.82787457  0.69359565  1
  O  O108  1  0.39874531  0.82154251  0.19865400  1
  O  O109  1  0.90080171  0.82189505  0.19883083  1
  O  O110  1  0.01192655  0.20253236  0.19899134  1
  O  O111  1  0.50930687  0.19073719  0.19394417  1
  O  O112  1  0.08712606  0.97296602  0.19907971  1
  O  O113  1  0.59328416  0.97747948  0.19676219  1
  O  O114  1  0.44109332  0.38498331  0.63798438  1
  O  O115  1  0.94089836  0.38845457  0.63846581  1
  O  O116  1  0.24328795  0.11970796  0.64767116  1
  O  O117  1  0.74854492  0.12849824  0.64346533  1
  O  O118  1  0.31267216  0.50515971  0.64221378  1
  O  O119  1  0.80567106  0.49443605  0.63932801  1
  O  O120  1  0.44231631  0.49704340  0.13896682  1
  O  O121  1  0.93915217  0.50613548  0.14427101  1
  O  O122  1  0.31446991  0.12080301  0.14290636  1
  O  O123  1  0.80705803  0.11723790  0.14097913  1
  O  O124  1  0.24941069  0.37024345  0.14436567  1
  O  O125  1  0.74544911  0.36884757  0.14391030  1
  O  O126  1  0.23364436  0.30163974  0.02556761  1
  O  O127  1  0.73183085  0.29847253  0.02564343  1
  O  O128  1  0.41928636  0.53917559  0.02353974  1
  O  O129  1  0.91779023  0.53391443  0.02562370  1
  O  O130  1  0.35163338  0.16704748  0.02493459  1
  O  O131  1  0.84998455  0.16422058  0.02479454  1
  O  O132  1  0.23608942  0.16655566  0.52729833  1
  O  O133  1  0.73303668  0.16662366  0.52544255  1
  O  O134  1  0.35170766  0.53719238  0.52468503  1
  O  O135  1  0.85237808  0.53821392  0.52424750  1
  O  O136  1  0.41941892  0.30003207  0.52295655  1
  O  O137  1  0.91872587  0.29952471  0.52316556  1
  O  O138  1  0.26066754  0.68857846  0.97205647  1
  O  O139  1  0.76032463  0.68640321  0.97186441  1
  O  O140  1  0.08272056  0.46888494  0.97275809  1
  O  O141  1  0.58012791  0.46927483  0.97499897  1
  O  O142  1  0.15331031  0.82870715  0.97151716  1
  O  O143  1  0.65491581  0.83786236  0.97454475  1
  O  O144  1  0.26013594  0.83363100  0.47208247  1
  O  O145  1  0.76230902  0.83477557  0.47142991  1
  O  O146  1  0.15243277  0.47515463  0.47174629  1
  O  O147  1  0.65512093  0.47299750  0.47455295  1
  O  O148  1  0.08034620  0.69390895  0.47446900  1
  O  O149  1  0.58042398  0.69234927  0.47453028  1
  O  O150  1  0.06951160  0.63119057  0.35892857  1
  O  O151  1  0.56853309  0.62958866  0.35944488  1
  O  O152  1  0.24716418  0.86325571  0.35780829  1
  O  O153  1  0.74709029  0.86609375  0.35689112  1
  O  O154  1  0.18524555  0.50753379  0.35787350  1
  O  O155  1  0.68570616  0.50718878  0.36006424  1
  O  O156  1  0.06655023  0.50540392  0.85844528  1
  O  O157  1  0.56866470  0.50723054  0.85948491  1
  O  O158  1  0.18503485  0.86870209  0.85707041  1
  O  O159  1  0.68548863  0.86404834  0.85992577  1
  O  O160  1  0.24652393  0.63085903  0.85747032  1
  O  O161  1  0.74715616  0.62905035  0.85731662  1
  O  O162  1  0.00997500  0.83132120  0.40997177  1
  O  O163  1  0.51022520  0.83109784  0.40967946  1
  O  O164  1  0.40403922  0.97416728  0.41316686  1
  O  O165  1  0.90503530  0.98027222  0.41017802  1
  O  O166  1  0.08467872  0.19033649  0.40983965  1
  O  O167  1  0.58627420  0.18714150  0.41390357  1
  O  O168  1  0.00915474  0.18783802  0.90926987  1
  O  O169  1  0.51044460  0.18971932  0.91002684  1
  O  O170  1  0.08684160  0.98711438  0.91300775  1
  O  O171  1  0.58610552  0.98486047  0.91379147  1
  O  O172  1  0.40369697  0.83352406  0.91253333  1
  O  O173  1  0.90376177  0.83301303  0.91308982  1
  O  O174  1  0.49324709  0.16508105  0.59241124  1
  O  O175  1  0.98825149  0.16091875  0.59319562  1
  O  O176  1  0.09256484  0.02332295  0.59176305  1
  O  O177  1  0.59399702  0.02591283  0.59205857  1
  O  O178  1  0.41955139  0.81236599  0.59114084  1
  O  O179  1  0.91987678  0.81136646  0.59197559  1
  O  O180  1  0.49277070  0.82068446  0.09372236  1
  O  O181  1  0.98874251  0.81412858  0.09351986  1
  O  O182  1  0.41918444  0.02612752  0.09095444  1
  O  O183  1  0.91916242  0.02379986  0.09461614  1
  O  O184  1  0.09416400  0.16200335  0.09500322  1
  O  O185  1  0.59265774  0.16101259  0.09180941  1
  O  O186  1  0.34000153  0.14351127  0.74579109  1
  O  O187  1  0.84243597  0.14494972  0.74443754  1
  O  O188  1  0.22819796  0.30402616  0.74582802  1
  O  O189  1  0.72961424  0.30799583  0.74575764  1
  O  O190  1  0.41583865  0.51041233  0.74729680  1
  O  O191  1  0.91549384  0.51203757  0.74669249  1
  O  O192  1  0.34041688  0.53842233  0.24546030  1
  O  O193  1  0.84434555  0.53856974  0.24680129  1
  O  O194  1  0.41567617  0.32114538  0.24755873  1
  O  O195  1  0.92516271  0.31180209  0.24643019  1
  O  O196  1  0.22835963  0.14587802  0.24651879  1
  O  O197  1  0.73282223  0.15259892  0.24714781  1
  O  O198  1  0.31614276  0.48829874  0.92176732  1
  O  O199  1  0.81657778  0.48807964  0.92295984  1
  O  O200  1  0.42725492  0.36738161  0.92196204  1
  O  O201  1  0.92721239  0.36674650  0.92252948  1
  O  O202  1  0.25749658  0.14542049  0.92261914  1
  O  O203  1  0.75728730  0.14627730  0.92235686  1
  O  O204  1  0.31540896  0.14408024  0.42197950  1
  O  O205  1  0.81630093  0.14539957  0.42209183  1
  O  O206  1  0.25579233  0.36748067  0.42306113  1
  O  O207  1  0.75745816  0.36895388  0.42227622  1
  O  O208  1  0.42693141  0.48767463  0.42205568  1
  O  O209  1  0.92749765  0.48692886  0.42100453  1
  O  O210  1  0.17435666  0.49568751  0.07424908  1
  O  O211  1  0.66893603  0.49370410  0.07544552  1
  O  O212  1  0.07446925  0.65104010  0.07347894  1
  O  O213  1  0.57602838  0.65705365  0.07304654  1
  O  O214  1  0.25057014  0.84742178  0.07309582  1
  O  O215  1  0.75106311  0.85276705  0.07310980  1
  O  O216  1  0.17048815  0.84818092  0.57516970  1
  O  O217  1  0.66995434  0.84636554  0.57507499  1
  O  O218  1  0.25110890  0.65462652  0.57321433  1
  O  O219  1  0.75040443  0.65069171  0.57267028  1
  O  O220  1  0.07353320  0.49803750  0.57213483  1
  O  O221  1  0.57597906  0.49647011  0.57259117  1
  O  O222  1  0.14924489  0.83261354  0.25446333  1
  O  O223  1  0.65369442  0.83910903  0.25375588  1
  O  O224  1  0.26612819  0.70182562  0.25414967  1
  O  O225  1  0.76934186  0.70123499  0.25400170  1
  O  O226  1  0.08223284  0.46698424  0.25442833  1
  O  O227  1  0.59039417  0.48695676  0.25546765  1
  O  O228  1  0.15313240  0.46730099  0.75350998  1
  O  O229  1  0.65207150  0.46624480  0.75304338  1
  O  O230  1  0.09259365  0.69879644  0.75389390  1
  O  O231  1  0.59064592  0.69397064  0.75519711  1
  O  O232  1  0.26835827  0.83465091  0.75273155  1
  O  O233  1  0.76928132  0.83294398  0.75342737  1
