# generated using pymatgen
data_Na4NbIn(SiO4)3
_symmetry_space_group_name_H-M   'P 1'
_cell_length_a   9.23996083
_cell_length_b   9.23996049
_cell_length_c   22.48749333
_cell_angle_alpha   90.00000000
_cell_angle_beta   90.00000000
_cell_angle_gamma   120.00000118
_symmetry_Int_Tables_number   1
_chemical_formula_structural   Na4NbIn(SiO4)3
_chemical_formula_sum   'Na24 Nb6 In6 Si18 O72'
_cell_volume   1662.69242600
_cell_formula_units_Z   6
loop_
 _symmetry_equiv_pos_site_id
 _symmetry_equiv_pos_as_xyz
  1  'x, y, z'
loop_
 _atom_site_type_symbol
 _atom_site_label
 _atom_site_symmetry_multiplicity
 _atom_site_fract_x
 _atom_site_fract_y
 _atom_site_fract_z
 _atom_site_occupancy
  Na  Na0  1  0.63834696  0.01249285  0.24739295  1
  Na  Na1  1  0.37414588  0.36165304  0.24739295  1
  Na  Na2  1  0.98750715  0.62585412  0.24739295  1
  Na  Na3  1  0.63834696  0.62585412  0.74739295  1
  Na  Na4  1  0.98750715  0.36165304  0.74739295  1
  Na  Na5  1  0.37414588  0.01249285  0.74739295  1
  Na  Na6  1  0.30501396  0.34582585  0.58072595  1
  Na  Na7  1  0.04081288  0.69498604  0.58072595  1
  Na  Na8  1  0.65417415  0.95918712  0.58072595  1
  Na  Na9  1  0.30501396  0.95918712  0.08072595  1
  Na  Na10  1  0.65417415  0.69498604  0.08072595  1
  Na  Na11  1  0.04081288  0.34582585  0.08072595  1
  Na  Na12  1  0.97167996  0.67915985  0.91405995  1
  Na  Na13  1  0.70747888  0.02832004  0.91405995  1
  Na  Na14  1  0.32084015  0.29252112  0.91405995  1
  Na  Na15  1  0.97167996  0.29252112  0.41405995  1
  Na  Na16  1  0.32084015  0.02832004  0.41405995  1
  Na  Na17  1  0.70747888  0.67915985  0.41405995  1
  Na  Na18  1  0.00000000  -0.00000000  0.49526874  1
  Na  Na19  1  0.00000000  -0.00000000  0.99526874  1
  Na  Na20  1  0.66666700  0.33333300  0.82860174  1
  Na  Na21  1  0.66666700  0.33333300  0.32860174  1
  Na  Na22  1  0.33333300  0.66666700  0.16193574  1
  Na  Na23  1  0.33333300  0.66666700  0.66193574  1
  Nb  Nb24  1  0.00000000  -0.00000000  0.64680153  1
  Nb  Nb25  1  0.00000000  -0.00000000  0.14680153  1
  Nb  Nb26  1  0.66666700  0.33333300  0.98013453  1
  Nb  Nb27  1  0.66666700  0.33333300  0.48013453  1
  Nb  Nb28  1  0.33333300  0.66666700  0.31346853  1
  Nb  Nb29  1  0.33333300  0.66666700  0.81346853  1
  In  In30  1  0.00000000  -0.00000000  0.34984589  1
  In  In31  1  0.00000000  -0.00000000  0.84984589  1
  In  In32  1  0.66666700  0.33333300  0.68317889  1
  In  In33  1  0.66666700  0.33333300  0.18317889  1
  In  In34  1  0.33333300  0.66666700  0.01651289  1
  In  In35  1  0.33333300  0.66666700  0.51651289  1
  Si  Si36  1  0.29394348  0.99861371  0.25120829  1
  Si  Si37  1  0.70467024  0.70605652  0.25120829  1
  Si  Si38  1  0.00138629  0.29532976  0.25120829  1
  Si  Si39  1  0.29394348  0.29532976  0.75120829  1
  Si  Si40  1  0.00138629  0.70605652  0.75120829  1
  Si  Si41  1  0.70467024  0.99861371  0.75120829  1
  Si  Si42  1  0.96061048  0.33194671  0.58454129  1
  Si  Si43  1  0.37133724  0.03938952  0.58454129  1
  Si  Si44  1  0.66805329  0.62866276  0.58454129  1
  Si  Si45  1  0.96061048  0.62866276  0.08454129  1
  Si  Si46  1  0.66805329  0.03938952  0.08454129  1
  Si  Si47  1  0.37133724  0.33194671  0.08454129  1
  Si  Si48  1  0.62727648  0.66528071  0.91787529  1
  Si  Si49  1  0.03800324  0.37272352  0.91787529  1
  Si  Si50  1  0.33471929  0.96199676  0.91787529  1
  Si  Si51  1  0.62727648  0.96199676  0.41787529  1
  Si  Si52  1  0.33471929  0.37272352  0.41787529  1
  Si  Si53  1  0.03800324  0.66528071  0.41787529  1
  O  O54  1  0.21885094  0.03346574  0.31021864  1
  O  O55  1  0.81461481  0.78114906  0.31021864  1
  O  O56  1  0.96653426  0.18538519  0.31021864  1
  O  O57  1  0.21885094  0.18538519  0.81021864  1
  O  O58  1  0.96653426  0.78114906  0.81021864  1
  O  O59  1  0.81461481  0.03346574  0.81021864  1
  O  O60  1  0.80379819  0.96944999  0.69308778  1
  O  O61  1  0.16565180  0.19620181  0.69308778  1
  O  O62  1  0.03055001  0.83434820  0.69308778  1
  O  O63  1  0.80379819  0.83434820  0.19308778  1
  O  O64  1  0.03055001  0.19620181  0.19308778  1
  O  O65  1  0.16565180  0.96944999  0.19308778  1
  O  O66  1  0.88551794  0.36679874  0.64355164  1
  O  O67  1  0.48128181  0.11448206  0.64355164  1
  O  O68  1  0.63320126  0.51871819  0.64355164  1
  O  O69  1  0.88551794  0.51871819  0.14355164  1
  O  O70  1  0.63320126  0.11448206  0.14355164  1
  O  O71  1  0.48128181  0.36679874  0.14355164  1
  O  O72  1  0.47046519  0.30278299  0.02642078  1
  O  O73  1  0.83231880  0.52953481  0.02642078  1
  O  O74  1  0.69721701  0.16768120  0.02642078  1
  O  O75  1  0.47046519  0.16768120  0.52642078  1
  O  O76  1  0.69721701  0.52953481  0.52642078  1
  O  O77  1  0.83231880  0.30278299  0.52642078  1
  O  O78  1  0.55218394  0.70013274  0.97688564  1
  O  O79  1  0.14794781  0.44781606  0.97688564  1
  O  O80  1  0.29986726  0.85205219  0.97688564  1
  O  O81  1  0.55218394  0.85205219  0.47688564  1
  O  O82  1  0.29986726  0.44781606  0.47688564  1
  O  O83  1  0.14794781  0.70013274  0.47688564  1
  O  O84  1  0.13713119  0.63611699  0.35975478  1
  O  O85  1  0.49898480  0.86286881  0.35975478  1
  O  O86  1  0.36388301  0.50101520  0.35975478  1
  O  O87  1  0.13713119  0.50101520  0.85975478  1
  O  O88  1  0.36388301  0.86286881  0.85975478  1
  O  O89  1  0.49898480  0.63611699  0.85975478  1
  O  O90  1  0.01013809  0.82387435  0.41237955  1
  O  O91  1  0.81373626  0.98986191  0.41237955  1
  O  O92  1  0.17612565  0.18626374  0.41237955  1
  O  O93  1  0.01013809  0.18626374  0.91237955  1
  O  O94  1  0.17612565  0.98986191  0.91237955  1
  O  O95  1  0.81373626  0.82387435  0.91237955  1
  O  O96  1  0.96720993  0.15468902  0.58840741  1
  O  O97  1  0.18747909  0.03279007  0.58840741  1
  O  O98  1  0.84531098  0.81252091  0.58840741  1
  O  O99  1  0.96720993  0.81252091  0.08840741  1
  O  O100  1  0.84531098  0.03279007  0.08840741  1
  O  O101  1  0.18747909  0.15468902  0.08840741  1
  O  O102  1  0.67680509  0.15720735  0.74571255  1
  O  O103  1  0.48040326  0.32319491  0.74571255  1
  O  O104  1  0.84279265  0.51959674  0.74571255  1
  O  O105  1  0.67680509  0.51959674  0.24571255  1
  O  O106  1  0.84279265  0.32319491  0.24571255  1
  O  O107  1  0.48040326  0.15720735  0.24571255  1
  O  O108  1  0.63387693  0.48802202  0.92174041  1
  O  O109  1  0.85414609  0.36612307  0.92174041  1
  O  O110  1  0.51197798  0.14585391  0.92174041  1
  O  O111  1  0.63387693  0.14585391  0.42174041  1
  O  O112  1  0.51197798  0.36612307  0.42174041  1
  O  O113  1  0.85414609  0.48802202  0.42174041  1
  O  O114  1  0.34347109  0.49054135  0.07904655  1
  O  O115  1  0.14706926  0.65652891  0.07904655  1
  O  O116  1  0.50945865  0.85293074  0.07904655  1
  O  O117  1  0.34347109  0.85293074  0.57904655  1
  O  O118  1  0.50945865  0.65652891  0.57904655  1
  O  O119  1  0.14706926  0.49054135  0.57904655  1
  O  O120  1  0.30054293  0.82135602  0.25507441  1
  O  O121  1  0.52081209  0.69945707  0.25507441  1
  O  O122  1  0.17864398  0.47918791  0.25507441  1
  O  O123  1  0.30054293  0.47918791  0.75507441  1
  O  O124  1  0.17864398  0.69945707  0.75507441  1
  O  O125  1  0.52081209  0.82135602  0.75507441  1
