# generated using pymatgen
data_Na5Sc3Ti(PO4)6
_symmetry_space_group_name_H-M   'P 1'
_cell_length_a   8.93332386
_cell_length_b   8.92469524
_cell_length_c   22.45662043
_cell_angle_alpha   89.96000468
_cell_angle_beta   90.03516076
_cell_angle_gamma   120.01391169
_symmetry_Int_Tables_number   1
_chemical_formula_structural   Na5Sc3Ti(PO4)6
_chemical_formula_sum   'Na15 Sc9 Ti3 P18 O72'
_cell_volume   1550.31689377
_cell_formula_units_Z   3
loop_
 _symmetry_equiv_pos_site_id
 _symmetry_equiv_pos_as_xyz
  1  'x, y, z'
loop_
 _atom_site_type_symbol
 _atom_site_label
 _atom_site_symmetry_multiplicity
 _atom_site_fract_x
 _atom_site_fract_y
 _atom_site_fract_z
 _atom_site_occupancy
  Na  Na0  1  0.63721161  0.00024185  0.25360073  1
  Na  Na1  1  0.36341944  0.36372743  0.25420706  1
  Na  Na2  1  0.99937486  0.63669506  0.25383418  1
  Na  Na3  1  0.64180707  0.63827178  0.74960208  1
  Na  Na4  1  0.99875086  0.36028384  0.74992139  1
  Na  Na5  1  0.03302154  0.70047921  0.58096667  1
  Na  Na6  1  0.66426512  0.96520723  0.58076880  1
  Na  Na7  1  0.66424039  0.69998855  0.08076196  1
  Na  Na8  1  0.03402590  0.33236118  0.08073437  1
  Na  Na9  1  0.01093932  0.01217520  0.49605888  1
  Na  Na10  1  0.01072799  0.99895532  0.99442156  1
  Na  Na11  1  0.65534606  0.32142134  0.83474594  1
  Na  Na12  1  0.66705679  0.33370237  0.34071204  1
  Na  Na13  1  0.33256863  0.67835738  0.16553208  1
  Na  Na14  1  0.33343237  0.66553311  0.66529580  1
  Sc  Sc15  1  0.99924256  0.99903614  0.35645586  1
  Sc  Sc16  1  0.00164171  0.00080270  0.85363759  1
  Sc  Sc17  1  0.00982032  0.00762906  0.64835139  1
  Sc  Sc18  1  0.00686367  0.99922959  0.14613066  1
  Sc  Sc19  1  0.65797217  0.32676805  0.68487779  1
  Sc  Sc20  1  0.66430169  0.33053044  0.18295155  1
  Sc  Sc21  1  0.33292400  0.67256802  0.01574077  1
  Sc  Sc22  1  0.33237240  0.65903439  0.51538883  1
  Sc  Sc23  1  0.33332163  0.66599987  0.32299150  1
  Ti  Ti24  1  0.66551321  0.33314097  0.97682474  1
  Ti  Ti25  1  0.66383136  0.33249236  0.47939739  1
  Ti  Ti26  1  0.33361646  0.67372506  0.81925324  1
  P  P27  1  0.29246604  0.99832254  0.25071661  1
  P  P28  1  0.70600735  0.70752623  0.24863091  1
  P  P29  1  0.00158550  0.29402277  0.24881643  1
  P  P30  1  0.29403045  0.29885623  0.75279489  1
  P  P31  1  0.00713340  0.70815957  0.75044736  1
  P  P32  1  0.70157750  0.99498241  0.75067399  1
  P  P33  1  0.95495775  0.33336057  0.58325707  1
  P  P34  1  0.37625957  0.04423513  0.58091252  1
  P  P35  1  0.66516296  0.62239276  0.58340681  1
  P  P36  1  0.95540120  0.62141928  0.08144651  1
  P  P37  1  0.66478930  0.04294799  0.08169861  1
  P  P38  1  0.37703956  0.33186939  0.08086460  1
  P  P39  1  0.62416923  0.66237408  0.91769036  1
  P  P40  1  0.03772886  0.37589249  0.91808715  1
  P  P41  1  0.33786764  0.96319434  0.91759387  1
  P  P42  1  0.63074111  0.96931607  0.41874885  1
  P  P43  1  0.33868771  0.36872350  0.41690327  1
  P  P44  1  0.03050625  0.66104080  0.41890598  1
  O  O45  1  0.20833621  0.03069970  0.30447114  1
  O  O46  1  0.82541663  0.79547966  0.30159424  1
  O  O47  1  0.97088102  0.17465389  0.30173530  1
  O  O48  1  0.20778618  0.18618725  0.80686421  1
  O  O49  1  0.97218307  0.79580477  0.80262199  1
  O  O50  1  0.82321131  0.02678030  0.80307864  1
  O  O51  1  0.77656834  0.95936558  0.69315813  1
  O  O52  1  0.17862566  0.21894308  0.69686057  1
  O  O53  1  0.03450404  0.81114703  0.69200165  1
  O  O54  1  0.78487918  0.81428991  0.19067055  1
  O  O55  1  0.02978208  0.21538413  0.19087628  1
  O  O56  1  0.17988714  0.96826507  0.19456339  1
  O  O57  1  0.87698441  0.35998460  0.64114441  1
  O  O58  1  0.48706013  0.12494922  0.63684251  1
  O  O59  1  0.64475852  0.52349201  0.64188226  1
  O  O60  1  0.87715456  0.51744558  0.13954834  1
  O  O61  1  0.64437104  0.12053258  0.14046581  1
  O  O62  1  0.48106267  0.35935502  0.13894338  1
  O  O63  1  0.47733783  0.31530804  0.02727921  1
  O  O64  1  0.83369704  0.52226471  0.02824379  1
  O  O65  1  0.68720691  0.16471669  0.02865089  1
  O  O66  1  0.47205915  0.15861910  0.52646913  1
  O  O67  1  0.68771771  0.52396642  0.53026917  1
  O  O68  1  0.83333222  0.30965037  0.53010531  1
  O  O69  1  0.54259398  0.68548475  0.97431795  1
  O  O70  1  0.14279454  0.45693886  0.97472172  1
  O  O71  1  0.31278122  0.85423678  0.97252408  1
  O  O72  1  0.54209977  0.85752515  0.47363570  1
  O  O73  1  0.31425665  0.46214600  0.46952326  1
  O  O74  1  0.14253946  0.68492544  0.47377912  1
  O  O75  1  0.11178634  0.63351795  0.36149601  1
  O  O76  1  0.52232528  0.88765608  0.36132930  1
  O  O77  1  0.36717570  0.47407292  0.35857572  1
  O  O78  1  0.13303385  0.49499084  0.86273026  1
  O  O79  1  0.36102877  0.86526216  0.86271803  1
  O  O80  1  0.50611839  0.63976630  0.86225663  1
  O  O81  1  0.00930928  0.82039681  0.41281441  1
  O  O82  1  0.81119869  0.99054501  0.41277337  1
  O  O83  1  0.17943995  0.18827525  0.41216066  1
  O  O84  1  0.01451835  0.19539480  0.91060324  1
  O  O85  1  0.18035128  0.98456641  0.90968629  1
  O  O86  1  0.80475992  0.81953799  0.91032070  1
  O  O87  1  0.96439311  0.16484381  0.58684734  1
  O  O88  1  0.19338961  0.02170844  0.58539387  1
  O  O89  1  0.83369147  0.80345865  0.58579791  1
  O  O90  1  0.96404638  0.79867528  0.08423674  1
  O  O91  1  0.83312146  0.03078865  0.08388678  1
  O  O92  1  0.19373619  0.17207498  0.08362957  1
  O  O93  1  0.68542891  0.15867204  0.74512752  1
  O  O94  1  0.47961721  0.33001484  0.74628518  1
  O  O95  1  0.84568559  0.52315407  0.74580924  1
  O  O96  1  0.68392827  0.52331171  0.24405265  1
  O  O97  1  0.83924462  0.31553146  0.24439384  1
  O  O98  1  0.47568521  0.16048677  0.24448035  1
  O  O99  1  0.63647532  0.49335985  0.92293562  1
  O  O100  1  0.85669048  0.36344496  0.92351323  1
  O  O101  1  0.50659779  0.14233598  0.92257754  1
  O  O102  1  0.64697677  0.15100048  0.42560778  1
  O  O103  1  0.50445747  0.35472593  0.42571323  1
  O  O104  1  0.84929784  0.49570724  0.42635298  1
  O  O105  1  0.35814752  0.49535816  0.07651208  1
  O  O106  1  0.13367157  0.63589583  0.07650325  1
  O  O107  1  0.51004852  0.85779768  0.07728916  1
  O  O108  1  0.35602086  0.86118203  0.57639715  1
  O  O109  1  0.51022141  0.65276389  0.57787518  1
  O  O110  1  0.13392503  0.49739894  0.57712387  1
  O  O111  1  0.31312222  0.83590994  0.25599332  1
  O  O112  1  0.52400420  0.68867661  0.25496345  1
  O  O113  1  0.16397379  0.47702830  0.25498080  1
  O  O114  1  0.31122069  0.48301278  0.75958962  1
  O  O115  1  0.16721057  0.68269904  0.75999167  1
  O  O116  1  0.52130290  0.82809581  0.76040373  1
