# generated using pymatgen
data_Zr2Nb2Si3(SO8)3
_symmetry_space_group_name_H-M   'P 1'
_cell_length_a   9.02514621
_cell_length_b   8.99898437
_cell_length_c   23.15535880
_cell_angle_alpha   90.73932944
_cell_angle_beta   89.97741930
_cell_angle_gamma   120.02667107
_symmetry_Int_Tables_number   1
_chemical_formula_structural   Zr2Nb2Si3(SO8)3
_chemical_formula_sum   'Zr6 Nb6 Si9 S9 O72'
_cell_volume   1628.04461307
_cell_formula_units_Z   3
loop_
 _symmetry_equiv_pos_site_id
 _symmetry_equiv_pos_as_xyz
  1  'x, y, z'
loop_
 _atom_site_type_symbol
 _atom_site_label
 _atom_site_symmetry_multiplicity
 _atom_site_fract_x
 _atom_site_fract_y
 _atom_site_fract_z
 _atom_site_occupancy
  Zr  Zr0  1  0.99064603  0.00891592  0.35727008  1
  Zr  Zr1  1  0.01383142  0.01309541  0.85416484  1
  Zr  Zr2  1  0.66663477  0.33819807  0.69139473  1
  Zr  Zr3  1  0.67864060  0.34445968  0.18741624  1
  Zr  Zr4  1  0.32007203  0.66639222  0.02366618  1
  Zr  Zr5  1  0.34799988  0.67046335  0.52716224  1
  Nb  Nb6  1  0.98492181  0.01086056  0.64351343  1
  Nb  Nb7  1  0.01128126  0.01648642  0.13841125  1
  Nb  Nb8  1  0.65464372  0.34076237  0.97574981  1
  Nb  Nb9  1  0.67754814  0.33081731  0.48264679  1
  Nb  Nb10  1  0.33348652  0.67219427  0.31088850  1
  Nb  Nb11  1  0.34194022  0.68064398  0.80524786  1
  Si  Si12  1  0.00045696  0.28870125  0.24994822  1
  Si  Si13  1  0.28649293  0.28857113  0.74946282  1
  Si  Si14  1  0.71706202  0.00592253  0.75159081  1
  Si  Si15  1  0.95861882  0.33862930  0.58584610  1
  Si  Si16  1  0.67589236  0.62219439  0.58491394  1
  Si  Si17  1  0.95000757  0.62147671  0.08284063  1
  Si  Si18  1  0.38697911  0.34150723  0.08389337  1
  Si  Si19  1  0.33348678  0.95286198  0.91677475  1
  Si  Si20  1  0.61613170  0.95752251  0.41797829  1
  S  S21  1  0.28614944  0.99849180  0.24983195  1
  S  S22  1  0.71010759  0.71447208  0.25025076  1
  S  S23  1  0.00353374  0.71578143  0.75010435  1
  S  S24  1  0.37697341  0.04928778  0.58339288  1
  S  S25  1  0.66877024  0.04754915  0.08263181  1
  S  S26  1  0.61904095  0.66807039  0.91610212  1
  S  S27  1  0.04169872  0.38080209  0.91637893  1
  S  S28  1  0.33879426  0.38306017  0.41590941  1
  S  S29  1  0.04506290  0.66500246  0.41626537  1
  O  O30  1  0.20618301  0.02116162  0.30219841  1
  O  O31  1  0.81769053  0.79198268  0.30245339  1
  O  O32  1  0.97924156  0.17101885  0.30538983  1
  O  O33  1  0.19941980  0.17236744  0.80582829  1
  O  O34  1  0.97661955  0.79194709  0.80267434  1
  O  O35  1  0.82613957  0.01953480  0.80770959  1
  O  O36  1  0.80238907  0.96558556  0.69336206  1
  O  O37  1  0.16001732  0.18842862  0.69325882  1
  O  O38  1  0.03560770  0.82068016  0.69855056  1
  O  O39  1  0.78582194  0.81952944  0.19906216  1
  O  O40  1  0.02833754  0.18810517  0.19379881  1
  O  O41  1  0.17602207  0.96489609  0.19788696  1
  O  O42  1  0.86380341  0.36130262  0.63955183  1
  O  O43  1  0.48514910  0.12270275  0.63425852  1
  O  O44  1  0.63834895  0.50103754  0.63876591  1
  O  O45  1  0.86568054  0.50520057  0.13936827  1
  O  O46  1  0.64064547  0.12267881  0.13557647  1
  O  O47  1  0.49261471  0.35298302  0.14084155  1
  O  O48  1  0.47448329  0.30179122  0.02639713  1
  O  O49  1  0.82688746  0.52318077  0.02644804  1
  O  O50  1  0.70174431  0.15531466  0.03181288  1
  O  O51  1  0.46160568  0.15761354  0.53041663  1
  O  O52  1  0.69277706  0.52011916  0.52563335  1
  O  O53  1  0.83016638  0.30060856  0.52646893  1
  O  O54  1  0.54159682  0.69004625  0.96864667  1
  O  O55  1  0.15033396  0.45736557  0.96877817  1
  O  O56  1  0.31510504  0.83968616  0.97262552  1
  O  O57  1  0.52378028  0.83499208  0.47097324  1
  O  O58  1  0.30203008  0.45618369  0.46704455  1
  O  O59  1  0.15085426  0.69388543  0.46718908  1
  O  O60  1  0.12894625  0.63658737  0.36299789  1
  O  O61  1  0.49354806  0.85366958  0.35970166  1
  O  O62  1  0.35948296  0.49085813  0.36381040  1
  O  O63  1  0.12119155  0.48629015  0.86558015  1
  O  O64  1  0.36043205  0.85334082  0.86022596  1
  O  O65  1  0.50957737  0.63232731  0.86436752  1
  O  O66  1  0.02626796  0.81550819  0.40481871  1
  O  O67  1  0.80260023  0.97621497  0.40631199  1
  O  O68  1  0.18779749  0.20853246  0.40621013  1
  O  O69  1  0.02020651  0.20759660  0.91013466  1
  O  O70  1  0.17068277  0.97691397  0.90784440  1
  O  O71  1  0.79200371  0.81217518  0.90863961  1
  O  O72  1  0.97287695  0.16314701  0.59115012  1
  O  O73  1  0.20672347  0.03064549  0.58966583  1
  O  O74  1  0.84883857  0.80987594  0.59412812  1
  O  O75  1  0.96739803  0.81085380  0.09830829  1
  O  O76  1  0.82484771  0.02803891  0.09238650  1
  O  O77  1  0.19342469  0.16328299  0.09340673  1
  O  O78  1  0.68524749  0.16078475  0.73975582  1
  O  O79  1  0.47327966  0.31528860  0.74045310  1
  O  O80  1  0.85534637  0.54302458  0.74386492  1
  O  O81  1  0.68525031  0.54083671  0.24373120  1
  O  O82  1  0.83602047  0.30914695  0.24078612  1
  O  O83  1  0.45691849  0.14354226  0.24194663  1
  O  O84  1  0.63550661  0.50725557  0.92403990  1
  O  O85  1  0.86969533  0.36159644  0.92662692  1
  O  O86  1  0.51010645  0.14448554  0.92894882  1
  O  O87  1  0.63436552  0.14725036  0.42662366  1
  O  O88  1  0.49030884  0.36467265  0.42281418  1
  O  O89  1  0.87319307  0.50964588  0.42243617  1
  O  O90  1  0.35846928  0.49800199  0.07105787  1
  O  O91  1  0.13833151  0.64825487  0.07467207  1
  O  O92  1  0.52311844  0.87412258  0.07498235  1
  O  O93  1  0.35671829  0.87765029  0.57316109  1
  O  O94  1  0.51264981  0.64701701  0.57334073  1
  O  O95  1  0.13912006  0.49783767  0.56885890  1
  O  O96  1  0.30106371  0.83791998  0.25897541  1
  O  O97  1  0.53493474  0.69411522  0.26033253  1
  O  O98  1  0.17305757  0.47930871  0.26421564  1
  O  O99  1  0.29988042  0.47636808  0.76466760  1
  O  O100  1  0.15759995  0.69352492  0.75911788  1
  O  O101  1  0.52496893  0.82736562  0.76028336  1
