# generated using pymatgen
data_Hf2Sc2SiS5O24
_symmetry_space_group_name_H-M   'P 1'
_cell_length_a   8.90057776
_cell_length_b   8.91741583
_cell_length_c   22.97369693
_cell_angle_alpha   90.16748596
_cell_angle_beta   89.95958174
_cell_angle_gamma   119.97034930
_symmetry_Int_Tables_number   1
_chemical_formula_structural   Hf2Sc2SiS5O24
_chemical_formula_sum   'Hf6 Sc6 Si3 S15 O72'
_cell_volume   1579.59735444
_cell_formula_units_Z   3
loop_
 _symmetry_equiv_pos_site_id
 _symmetry_equiv_pos_as_xyz
  1  'x, y, z'
loop_
 _atom_site_type_symbol
 _atom_site_label
 _atom_site_symmetry_multiplicity
 _atom_site_fract_x
 _atom_site_fract_y
 _atom_site_fract_z
 _atom_site_occupancy
  Hf  Hf0  1  0.99935802  0.00628307  0.64348157  1
  Hf  Hf1  1  0.00649811  0.00710693  0.14340926  1
  Hf  Hf2  1  0.67494613  0.32389011  0.47694121  1
  Hf  Hf3  1  0.33315397  0.66024402  0.02290974  1
  Hf  Hf4  1  0.33821590  0.66790336  0.52256431  1
  Hf  Hf5  1  0.34120766  0.67660468  0.31207624  1
  Sc  Sc6  1  0.99142125  0.00071031  0.35770618  1
  Sc  Sc7  1  0.00152131  0.00036833  0.85522031  1
  Sc  Sc8  1  0.68134607  0.33804020  0.68727758  1
  Sc  Sc9  1  0.65684339  0.33648028  0.18646521  1
  Sc  Sc10  1  0.65246667  0.32933224  0.97943620  1
  Sc  Sc11  1  0.33187397  0.66631312  0.81110193  1
  Si  Si12  1  0.95851040  0.33723518  0.58406383  1
  Si  Si13  1  0.38051378  0.33382048  0.08326114  1
  Si  Si14  1  0.62330055  0.95433274  0.41715980  1
  S  S15  1  0.28812312  0.00033876  0.25061028  1
  S  S16  1  0.71262328  0.71048118  0.25026024  1
  S  S17  1  0.99830478  0.28920113  0.25030847  1
  S  S18  1  0.28995817  0.28866969  0.75061010  1
  S  S19  1  0.00021473  0.71217341  0.75068648  1
  S  S20  1  0.71067637  0.99933592  0.75090724  1
  S  S21  1  0.37856684  0.04592002  0.58400084  1
  S  S22  1  0.66725868  0.62071927  0.58396318  1
  S  S23  1  0.95470135  0.62169969  0.08331884  1
  S  S24  1  0.66647575  0.04494847  0.08324471  1
  S  S25  1  0.62262305  0.66739119  0.91580471  1
  S  S26  1  0.04318196  0.37785528  0.91603682  1
  S  S27  1  0.33330414  0.95468759  0.91600748  1
  S  S28  1  0.33376813  0.37885435  0.41640824  1
  S  S29  1  0.04628341  0.66853491  0.41642269  1
  O  O30  1  0.20823042  0.02637901  0.30214723  1
  O  O31  1  0.81954307  0.79205361  0.30191192  1
  O  O32  1  0.97368015  0.18137856  0.30157556  1
  O  O33  1  0.20527775  0.17910894  0.80214796  1
  O  O34  1  0.97438127  0.79595265  0.80257424  1
  O  O35  1  0.82138335  0.02709695  0.80236031  1
  O  O36  1  0.79390605  0.97045373  0.69861356  1
  O  O37  1  0.17702727  0.20407807  0.69832159  1
  O  O38  1  0.02815258  0.82079592  0.69839231  1
  O  O39  1  0.79041331  0.81956246  0.19795462  1
  O  O40  1  0.02713534  0.20493809  0.19786817  1
  O  O41  1  0.17697037  0.97051906  0.19807074  1
  O  O42  1  0.86500779  0.36332090  0.64044042  1
  O  O43  1  0.48400383  0.12314851  0.63590105  1
  O  O44  1  0.63559939  0.51432281  0.63592419  1
  O  O45  1  0.88221007  0.51535269  0.13556437  1
  O  O46  1  0.63761665  0.12083116  0.13566209  1
  O  O47  1  0.49856431  0.36519934  0.14036812  1
  O  O48  1  0.46720939  0.30158372  0.02630613  1
  O  O49  1  0.84980289  0.54545450  0.03096231  1
  O  O50  1  0.70071231  0.15162044  0.03109809  1
  O  O51  1  0.45366617  0.15457291  0.53149380  1
  O  O52  1  0.69454074  0.54385217  0.53107423  1
  O  O53  1  0.83393626  0.30348058  0.52747408  1
  O  O54  1  0.53922558  0.69595453  0.96814709  1
  O  O55  1  0.15616701  0.46251385  0.96837621  1
  O  O56  1  0.30547337  0.84597205  0.96832242  1
  O  O57  1  0.52750603  0.83289808  0.47277258  1
  O  O58  1  0.30341474  0.45919711  0.46853490  1
  O  O59  1  0.15385359  0.69279389  0.46837828  1
  O  O60  1  0.12468265  0.63458259  0.36404503  1
  O  O61  1  0.49838859  0.86013673  0.36016213  1
  O  O62  1  0.35887605  0.48826095  0.36414074  1
  O  O63  1  0.12792776  0.48759240  0.86457980  1
  O  O64  1  0.35913524  0.87088793  0.86415600  1
  O  O65  1  0.51192047  0.63944590  0.86436286  1
  O  O66  1  0.03008044  0.82151021  0.40756755  1
  O  O67  1  0.81152659  0.97652441  0.40612949  1
  O  O68  1  0.18288556  0.20716753  0.40756322  1
  O  O69  1  0.02841049  0.20634689  0.90776725  1
  O  O70  1  0.17891533  0.97370963  0.90752052  1
  O  O71  1  0.79471569  0.82305014  0.90780761  1
  O  O72  1  0.97700047  0.16516700  0.59491108  1
  O  O73  1  0.20210163  0.02206944  0.59302128  1
  O  O74  1  0.82186028  0.79509226  0.59341124  1
  O  O75  1  0.97463979  0.79601009  0.09371789  1
  O  O76  1  0.81764300  0.01877066  0.09344376  1
  O  O77  1  0.18769134  0.16626017  0.09477460  1
  O  O78  1  0.68963733  0.15049862  0.74217571  1
  O  O79  1  0.46033553  0.30723558  0.74096583  1
  O  O80  1  0.84508473  0.54118448  0.74314663  1
  O  O81  1  0.69352796  0.53854254  0.24227047  1
  O  O82  1  0.84720384  0.30887664  0.24008277  1
  O  O83  1  0.46234477  0.14819551  0.24130168  1
  O  O84  1  0.64355325  0.51609679  0.92466226  1
  O  O85  1  0.87290830  0.35940437  0.92586582  1
  O  O86  1  0.48845713  0.12564827  0.92375144  1
  O  O87  1  0.63596543  0.14193285  0.42451672  1
  O  O88  1  0.49022995  0.36562612  0.42571525  1
  O  O89  1  0.87142700  0.51562840  0.42471756  1
  O  O90  1  0.35454837  0.50072948  0.07181653  1
  O  O91  1  0.13211811  0.64794158  0.07320925  1
  O  O92  1  0.51206206  0.87056757  0.07304493  1
  O  O93  1  0.35660324  0.87183285  0.57427372  1
  O  O94  1  0.51453570  0.64362218  0.57543665  1
  O  O95  1  0.14768004  0.50195450  0.57184404  1
  O  O96  1  0.30210071  0.84054567  0.25743521  1
  O  O97  1  0.53579687  0.68892874  0.25840009  1
  O  O98  1  0.15558534  0.46167151  0.25863923  1
  O  O99  1  0.30484495  0.46023007  0.75900889  1
  O  O100  1  0.15453746  0.69308539  0.75926411  1
  O  O101  1  0.53865856  0.84357310  0.75896974  1
