# generated using pymatgen
data_Na3Hf3Ga(PO4)6
_symmetry_space_group_name_H-M   'P 1'
_cell_length_a   8.82358601
_cell_length_b   8.81342218
_cell_length_c   22.86445410
_cell_angle_alpha   90.00095822
_cell_angle_beta   89.99837634
_cell_angle_gamma   120.18614882
_symmetry_Int_Tables_number   1
_chemical_formula_structural   Na3Hf3Ga(PO4)6
_chemical_formula_sum   'Na9 Hf9 Ga3 P18 O72'
_cell_volume   1536.96321820
_cell_formula_units_Z   3
loop_
 _symmetry_equiv_pos_site_id
 _symmetry_equiv_pos_as_xyz
  1  'x, y, z'
loop_
 _atom_site_type_symbol
 _atom_site_label
 _atom_site_symmetry_multiplicity
 _atom_site_fract_x
 _atom_site_fract_y
 _atom_site_fract_z
 _atom_site_occupancy
  Na  Na0  1  0.36674584  0.36208147  0.24756632  1
  Na  Na1  1  0.63775821  0.63317559  0.74792457  1
  Na  Na2  1  0.97092655  0.29955655  0.41407306  1
  Na  Na3  1  0.00064466  0.99210655  0.49753716  1
  Na  Na4  1  0.99986216  0.99986563  0.00114413  1
  Na  Na5  1  0.66718159  0.32539689  0.83191079  1
  Na  Na6  1  0.66745632  0.33350569  0.32845304  1
  Na  Na7  1  0.33267275  0.67448342  0.16505064  1
  Na  Na8  1  0.32572194  0.66725320  0.66532385  1
  Hf  Hf9  1  0.00086637  0.00175750  0.85275664  1
  Hf  Hf10  1  0.00171766  0.00226478  0.64549788  1
  Hf  Hf11  1  0.99787176  0.99784669  0.14626184  1
  Hf  Hf12  1  0.66652718  0.33372281  0.98094564  1
  Hf  Hf13  1  0.66118922  0.33394957  0.48089511  1
  Hf  Hf14  1  0.33358881  0.66670277  0.02219172  1
  Hf  Hf15  1  0.33422144  0.66842491  0.52052278  1
  Hf  Hf16  1  0.33468149  0.67350617  0.31249116  1
  Hf  Hf17  1  0.32814733  0.66732111  0.81405544  1
  Ga  Ga18  1  0.99888833  0.99225208  0.34843547  1
  Ga  Ga19  1  0.66750259  0.32721422  0.68363135  1
  Ga  Ga20  1  0.67349791  0.33270448  0.18415462  1
  P  P21  1  0.29200168  0.00550357  0.25021510  1
  P  P22  1  0.71426286  0.70646204  0.25083054  1
  P  P23  1  0.99055243  0.28542440  0.25153314  1
  P  P24  1  0.29799832  0.29100781  0.74881186  1
  P  P25  1  0.99551298  0.70310680  0.74824888  1
  P  P26  1  0.70962448  0.00858003  0.74881563  1
  P  P27  1  0.95266939  0.33447493  0.58457605  1
  P  P28  1  0.38064291  0.04624528  0.58573870  1
  P  P29  1  0.66523396  0.61944437  0.58629067  1
  P  P30  1  0.95268666  0.61875859  0.08550728  1
  P  P31  1  0.66659858  0.04826367  0.08562125  1
  P  P32  1  0.38106935  0.33361986  0.08626971  1
  P  P33  1  0.62363818  0.66623855  0.91623934  1
  P  P34  1  0.04169008  0.37540835  0.91737933  1
  P  P35  1  0.33307851  0.95776757  0.91722287  1
  P  P36  1  0.63146145  0.95755440  0.41600678  1
  P  P37  1  0.32883302  0.36993234  0.41459112  1
  P  P38  1  0.04301000  0.67548337  0.41591500  1
  O  O39  1  0.20973736  0.03982004  0.30485882  1
  O  O40  1  0.82412506  0.79087228  0.30591477  1
  O  O41  1  0.96769147  0.17965120  0.30831755  1
  O  O42  1  0.20908909  0.17859189  0.80356749  1
  O  O43  1  0.96490079  0.78983209  0.80280680  1
  O  O44  1  0.82192055  0.03084932  0.80370450  1
  O  O45  1  0.79323847  0.96877603  0.69576390  1
  O  O46  1  0.17962425  0.20640560  0.69524626  1
  O  O47  1  0.02626419  0.82147681  0.69478827  1
  O  O48  1  0.79488717  0.82191138  0.19641042  1
  O  O49  1  0.03071286  0.20327079  0.19817510  1
  O  O50  1  0.17664893  0.97326098  0.19589185  1
  O  O51  1  0.86952260  0.36437121  0.63849197  1
  O  O52  1  0.49240932  0.12852296  0.63990663  1
  O  O53  1  0.63680348  0.51130337  0.64200746  1
  O  O54  1  0.87087212  0.50694016  0.13998084  1
  O  O55  1  0.63534467  0.12924793  0.14003885  1
  O  O56  1  0.48921176  0.36269127  0.14217911  1
  O  O57  1  0.46478555  0.30662674  0.03086112  1
  O  O58  1  0.84339648  0.53737364  0.02957085  1
  O  O59  1  0.69446669  0.15739332  0.02964168  1
  O  O60  1  0.46240220  0.15635274  0.52981613  1
  O  O61  1  0.69309298  0.53527353  0.53099743  1
  O  O62  1  0.84629557  0.30646446  0.52745276  1
  O  O63  1  0.53566726  0.69312871  0.96995423  1
  O  O64  1  0.15567910  0.46184520  0.97136228  1
  O  O65  1  0.30567429  0.84384720  0.97124001  1
  O  O66  1  0.54201064  0.84485922  0.47068266  1
  O  O67  1  0.29928189  0.45922537  0.46872227  1
  O  O68  1  0.15568333  0.69787107  0.47074500  1
  O  O69  1  0.12650354  0.63559375  0.36276981  1
  O  O70  1  0.51317066  0.87309297  0.36238583  1
  O  O71  1  0.35920052  0.48436892  0.35973665  1
  O  O72  1  0.12773920  0.48803702  0.86223987  1
  O  O73  1  0.36031733  0.87225636  0.86212600  1
  O  O74  1  0.51500182  0.64019106  0.85983382  1
  O  O75  1  0.02374654  0.83712856  0.40849887  1
  O  O76  1  0.81652897  0.98297928  0.40924907  1
  O  O77  1  0.16045404  0.18942813  0.40869940  1
  O  O78  1  0.02360204  0.19283360  0.91020091  1
  O  O79  1  0.16886956  0.97568149  0.90978181  1
  O  O80  1  0.80713675  0.83090345  0.90977246  1
  O  O81  1  0.97304470  0.17024428  0.59023116  1
  O  O82  1  0.19610326  0.02570613  0.59030613  1
  O  O83  1  0.82977520  0.80456434  0.59046185  1
  O  O84  1  0.97388321  0.80383823  0.09026843  1
  O  O85  1  0.83012626  0.02706010  0.09066427  1
  O  O86  1  0.19536681  0.16985045  0.09057435  1
  O  O87  1  0.69013719  0.16992754  0.74211481  1
  O  O88  1  0.48317791  0.31675443  0.74253962  1
  O  O89  1  0.82736559  0.52287695  0.74206676  1
  O  O90  1  0.68435977  0.51869243  0.24361366  1
  O  O91  1  0.83096091  0.30849090  0.24329926  1
  O  O92  1  0.47446372  0.17200227  0.24315931  1
  O  O93  1  0.64214582  0.50236553  0.92240049  1
  O  O94  1  0.85933343  0.35660302  0.92266907  1
  O  O95  1  0.49717128  0.14070051  0.92263840  1
  O  O96  1  0.65329528  0.14381909  0.42306652  1
  O  O97  1  0.49380590  0.35391228  0.42236015  1
  O  O98  1  0.86249681  0.50307365  0.42327394  1
  O  O99  1  0.36020229  0.49719772  0.07817772  1
  O  O100  1  0.13749348  0.64056790  0.07795452  1
  O  O101  1  0.50331298  0.86269908  0.07802482  1
  O  O102  1  0.35907322  0.86151846  0.57778651  1
  O  O103  1  0.50190061  0.63988675  0.57762088  1
  O  O104  1  0.13846554  0.49770422  0.57725478  1
  O  O105  1  0.30989766  0.84009877  0.25679092  1
  O  O106  1  0.52587224  0.68331349  0.25723454  1
  O  O107  1  0.16374850  0.46901992  0.25751715  1
  O  O108  1  0.31982381  0.47745192  0.75596292  1
  O  O109  1  0.16039668  0.68659871  0.75544548  1
  O  O110  1  0.52888689  0.83590882  0.75616068  1
