# generated using pymatgen
data_Na6Ca4Ta20Si21(S5O48)3
_symmetry_space_group_name_H-M   'P 1'
_cell_length_a   17.80875367
_cell_length_b   8.91997914
_cell_length_c   23.10611325
_cell_angle_alpha   90.00768586
_cell_angle_beta   89.88643048
_cell_angle_gamma   120.00605343
_symmetry_Int_Tables_number   1
_chemical_formula_structural   Na6Ca4Ta20Si21(S5O48)3
_chemical_formula_sum   'Na6 Ca4 Ta20 Si21 S15 O144'
_cell_volume   3178.53746336
_cell_formula_units_Z   1
loop_
 _symmetry_equiv_pos_site_id
 _symmetry_equiv_pos_as_xyz
  1  'x, y, z'
loop_
 _atom_site_type_symbol
 _atom_site_label
 _atom_site_symmetry_multiplicity
 _atom_site_fract_x
 _atom_site_fract_y
 _atom_site_fract_z
 _atom_site_occupancy
  Na  Na0  1  0.99847036  0.99738548  0.49923041  1
  Na  Na1  1  0.50012592  0.00266949  0.00157326  1
  Na  Na2  1  0.33658561  0.31400931  0.83697966  1
  Na  Na3  1  0.83312846  0.33260134  0.83453136  1
  Na  Na4  1  0.33616882  0.33587042  0.33281927  1
  Na  Na5  1  0.83127624  0.35272917  0.33351835  1
  Ca  Ca6  1  0.99843291  0.98315781  0.35460749  1
  Ca  Ca7  1  0.49846929  0.01526673  0.85462703  1
  Ca  Ca8  1  0.99432339  0.00583492  0.64614832  1
  Ca  Ca9  1  0.49637027  0.97893816  0.14833239  1
  Ta  Ta10  1  0.50240343  0.99069146  0.35896904  1
  Ta  Ta11  1  0.99465484  0.00108013  0.86075191  1
  Ta  Ta12  1  0.49268498  0.99110436  0.63919523  1
  Ta  Ta13  1  0.99273115  0.99442786  0.13939394  1
  Ta  Ta14  1  0.33520714  0.33495672  0.68438016  1
  Ta  Ta15  1  0.83832335  0.32059337  0.68409267  1
  Ta  Ta16  1  0.33969517  0.35958202  0.18563139  1
  Ta  Ta17  1  0.82997576  0.32396203  0.18899447  1
  Ta  Ta18  1  0.33016287  0.33070628  0.97861708  1
  Ta  Ta19  1  0.84342515  0.34579557  0.97858319  1
  Ta  Ta20  1  0.34282329  0.34085294  0.47648579  1
  Ta  Ta21  1  0.82940025  0.32710964  0.47681468  1
  Ta  Ta22  1  0.15795115  0.65903957  0.02495919  1
  Ta  Ta23  1  0.66780192  0.66190890  0.02562752  1
  Ta  Ta24  1  0.16865404  0.67445427  0.52371046  1
  Ta  Ta25  1  0.65851781  0.65844860  0.52345044  1
  Ta  Ta26  1  0.16577036  0.67890747  0.31350047  1
  Ta  Ta27  1  0.66739638  0.66041489  0.30858541  1
  Ta  Ta28  1  0.16902072  0.67854839  0.81238627  1
  Ta  Ta29  1  0.66578431  0.65527432  0.81435574  1
  Si  Si30  1  0.64563168  0.00070455  0.25189262  1
  Si  Si31  1  0.35291481  0.71156184  0.25269636  1
  Si  Si32  1  0.85560840  0.70877253  0.24902513  1
  Si  Si33  1  0.35386729  0.00078120  0.74902899  1
  Si  Si34  1  0.85211423  0.99805192  0.75225698  1
  Si  Si35  1  0.47646020  0.33085371  0.58237537  1
  Si  Si36  1  0.98009671  0.33459542  0.57781552  1
  Si  Si37  1  0.69016460  0.04387311  0.58291968  1
  Si  Si38  1  0.32933119  0.61123492  0.58229359  1
  Si  Si39  1  0.47943532  0.62810383  0.07861549  1
  Si  Si40  1  0.97423445  0.61791459  0.08555723  1
  Si  Si41  1  0.83009356  0.04825281  0.08271953  1
  Si  Si42  1  0.19045529  0.33612229  0.08360362  1
  Si  Si43  1  0.80632510  0.65643472  0.91797792  1
  Si  Si44  1  0.02645786  0.38552234  0.91626834  1
  Si  Si45  1  0.52138072  0.37988526  0.92020149  1
  Si  Si46  1  0.16685817  0.95351823  0.91706314  1
  Si  Si47  1  0.30971827  0.95645189  0.41690366  1
  Si  Si48  1  0.66610526  0.38311519  0.41606465  1
  Si  Si49  1  0.02116187  0.66344143  0.41961007  1
  Si  Si50  1  0.52713161  0.66719665  0.41560853  1
  S  S51  1  0.15016309  0.00398491  0.24719879  1
  S  S52  1  0.00125976  0.29575378  0.24899352  1
  S  S53  1  0.49757654  0.29064293  0.25092607  1
  S  S54  1  0.14888028  0.29545596  0.75365983  1
  S  S55  1  0.64995874  0.29761615  0.74738137  1
  S  S56  1  0.99933631  0.70629071  0.75204267  1
  S  S57  1  0.49955392  0.70433800  0.74893976  1
  S  S58  1  0.19363170  0.05086689  0.58013927  1
  S  S59  1  0.83054236  0.61160432  0.58045124  1
  S  S60  1  0.33069695  0.04757341  0.08033130  1
  S  S61  1  0.69307835  0.33503637  0.08024388  1
  S  S62  1  0.30562756  0.66045227  0.91911012  1
  S  S63  1  0.66936721  0.94988101  0.91986220  1
  S  S64  1  0.80625227  0.95020120  0.41950422  1
  S  S65  1  0.16950566  0.38865432  0.41996180  1
  O  O66  1  0.12178570  0.04763302  0.30021807  1
  O  O67  1  0.59654205  0.03410270  0.30744156  1
  O  O68  1  0.41804641  0.80682060  0.30765968  1
  O  O69  1  0.90973027  0.76109425  0.30661786  1
  O  O70  1  0.48308994  0.18204352  0.30205915  1
  O  O71  1  0.98389912  0.19432394  0.30147211  1
  O  O72  1  0.10606565  0.17828686  0.80374795  1
  O  O73  1  0.62150851  0.19607555  0.80026823  1
  O  O74  1  0.48079033  0.76827611  0.80133179  1
  O  O75  1  0.98701763  0.79304221  0.80256562  1
  O  O76  1  0.40702107  0.05731840  0.80692133  1
  O  O77  1  0.91896069  0.02945322  0.80729159  1
  O  O78  1  0.40640593  0.97446976  0.69388631  1
  O  O79  1  0.88179780  0.95301488  0.69434877  1
  O  O80  1  0.10084822  0.23327562  0.70029108  1
  O  O81  1  0.59305736  0.21122132  0.69750300  1
  O  O82  1  0.01838703  0.80412926  0.69868929  1
  O  O83  1  0.51229059  0.81388267  0.69755211  1
  O  O84  1  0.37717407  0.80815536  0.19323116  1
  O  O85  1  0.90788578  0.84384910  0.19402175  1
  O  O86  1  0.01427022  0.21187440  0.19745165  1
  O  O87  1  0.51392599  0.22863300  0.19737842  1
  O  O88  1  0.09337826  0.97643215  0.19724236  1
  O  O89  1  0.59671709  0.95990197  0.19269795  1
  O  O90  1  0.42699599  0.35864143  0.63782360  1
  O  O91  1  0.93263801  0.35826612  0.63911041  1
  O  O92  1  0.24510884  0.13460261  0.63394371  1
  O  O93  1  0.75389484  0.14231844  0.63991537  1
  O  O94  1  0.31406707  0.49178214  0.64005717  1
  O  O95  1  0.81959756  0.50652328  0.63375654  1
  O  O96  1  0.43268156  0.50926682  0.13906888  1
  O  O97  1  0.92608207  0.49035981  0.13842484  1
  O  O98  1  0.31814672  0.12852780  0.13268116  1
  O  O99  1  0.81475331  0.13649685  0.13920476  1
  O  O100  1  0.25444089  0.36487206  0.13947475  1
  O  O101  1  0.74322310  0.35449528  0.13347448  1
  O  O102  1  0.23302188  0.29960500  0.02636865  1
  O  O103  1  0.73914272  0.31935521  0.02826948  1
  O  O104  1  0.41288163  0.50302969  0.02695185  1
  O  O105  1  0.91820936  0.53365048  0.02528674  1
  O  O106  1  0.33661304  0.15049170  0.02682424  1
  O  O107  1  0.84542214  0.17263776  0.02593166  1
  O  O108  1  0.23754740  0.15802635  0.52893170  1
  O  O109  1  0.73285562  0.16761722  0.52698255  1
  O  O110  1  0.34464844  0.51549912  0.52706968  1
  O  O111  1  0.83780638  0.52255063  0.52791940  1
  O  O112  1  0.41716007  0.30130764  0.52524755  1
  O  O113  1  0.91252431  0.31981327  0.52692815  1
  O  O114  1  0.26162526  0.67908689  0.97029400  1
  O  O115  1  0.76482725  0.69187099  0.97416972  1
  O  O116  1  0.08208045  0.47463637  0.97446056  1
  O  O117  1  0.58640694  0.49861398  0.97246220  1
  O  O118  1  0.15495761  0.83135197  0.97271214  1
  O  O119  1  0.66313458  0.85061618  0.97236513  1
  O  O120  1  0.26492374  0.83809938  0.47399269  1
  O  O121  1  0.76217144  0.84597323  0.47173396  1
  O  O122  1  0.16336924  0.47566713  0.47305842  1
  O  O123  1  0.65728832  0.48289336  0.47383373  1
  O  O124  1  0.08600117  0.67432203  0.47258933  1
  O  O125  1  0.58125726  0.68809849  0.47529141  1
  O  O126  1  0.06647718  0.63527832  0.36008243  1
  O  O127  1  0.57199542  0.63268109  0.36144415  1
  O  O128  1  0.24404922  0.86180793  0.36074659  1
  O  O129  1  0.75734492  0.87157839  0.36617710  1
  O  O130  1  0.18126702  0.49406540  0.36730373  1
  O  O131  1  0.68544047  0.50788254  0.35993447  1
  O  O132  1  0.07368648  0.50448070  0.86019136  1
  O  O133  1  0.56735187  0.49818852  0.86003153  1
  O  O134  1  0.18422916  0.86219933  0.85947289  1
  O  O135  1  0.68069146  0.86604321  0.86666172  1
  O  O136  1  0.25518123  0.64100085  0.86489465  1
  O  O137  1  0.74542817  0.62815373  0.86015637  1
  O  O138  1  0.01613394  0.83542908  0.42405953  1
  O  O139  1  0.51471328  0.83449436  0.40918371  1
  O  O140  1  0.40390102  0.98322197  0.40231211  1
  O  O141  1  0.89446018  0.98138526  0.41811908  1
  O  O142  1  0.09258570  0.21826213  0.41640955  1
  O  O143  1  0.58002227  0.19720166  0.40449398  1
  O  O144  1  0.01544923  0.19368035  0.90648626  1
  O  O145  1  0.51546458  0.19678933  0.92344125  1
  O  O146  1  0.08222987  0.96964135  0.90022796  1
  O  O147  1  0.59220056  0.96565606  0.91506026  1
  O  O148  1  0.39307592  0.80634844  0.91567347  1
  O  O149  1  0.90261143  0.82449852  0.90376323  1
  O  O150  1  0.48718737  0.16339402  0.59468872  1
  O  O151  1  0.98960702  0.16798362  0.57657256  1
  O  O152  1  0.10705632  0.02603150  0.58514415  1
  O  O153  1  0.59640611  0.02115663  0.60173628  1
  O  O154  1  0.41758644  0.79902099  0.59447724  1
  O  O155  1  0.90984104  0.77936386  0.58285779  1
  O  O156  1  0.48560341  0.80937029  0.07352763  1
  O  O157  1  0.98768079  0.81090721  0.09478277  1
  O  O158  1  0.40929374  0.03761601  0.08151771  1
  O  O159  1  0.91805238  0.03520729  0.09318469  1
  O  O160  1  0.09682133  0.17201718  0.10079267  1
  O  O161  1  0.60625015  0.18904768  0.08186054  1
  O  O162  1  0.33162515  0.15636614  0.73174486  1
  O  O163  1  0.84437279  0.18035741  0.74489891  1
  O  O164  1  0.23838958  0.31626914  0.74789598  1
  O  O165  1  0.74107863  0.33788741  0.73541288  1
  O  O166  1  0.42110525  0.52259213  0.73843646  1
  O  O167  1  0.91963042  0.53067882  0.74698180  1
  O  O168  1  0.34396225  0.51069188  0.24445884  1
  O  O169  1  0.83798534  0.51536762  0.23033604  1
  O  O170  1  0.41740344  0.30943646  0.24522017  1
  O  O171  1  0.92391223  0.32087758  0.23919830  1
  O  O172  1  0.24114882  0.14561544  0.23514702  1
  O  O173  1  0.74572002  0.17529762  0.24597975  1
  O  O174  1  0.30793934  0.49415531  0.92280862  1
  O  O175  1  0.81494028  0.48242554  0.92355414  1
  O  O176  1  0.42515374  0.36767501  0.92482471  1
  O  O177  1  0.92894853  0.36189043  0.92334864  1
  O  O178  1  0.25165162  0.14494974  0.92359688  1
  O  O179  1  0.74956323  0.12566804  0.92329072  1
  O  O180  1  0.31409726  0.14545110  0.42497297  1
  O  O181  1  0.80921277  0.12298899  0.42421369  1
  O  O182  1  0.24957815  0.37208650  0.42451714  1
  O  O183  1  0.75103300  0.35877922  0.42545424  1
  O  O184  1  0.42879422  0.49508885  0.42406515  1
  O  O185  1  0.92499075  0.48408261  0.42554713  1
  O  O186  1  0.18399920  0.50930475  0.07055394  1
  O  O187  1  0.69190857  0.50170663  0.07478946  1
  O  O188  1  0.06938519  0.63865017  0.07404058  1
  O  O189  1  0.57216368  0.63184708  0.07218686  1
  O  O190  1  0.25205846  0.87376195  0.07244201  1
  O  O191  1  0.74890902  0.85930032  0.07056836  1
  O  O192  1  0.19208263  0.88274796  0.57596990  1
  O  O193  1  0.68420838  0.85893559  0.57158161  1
  O  O194  1  0.24845053  0.63890539  0.57176915  1
  O  O195  1  0.75255470  0.62924284  0.57443730  1
  O  O196  1  0.07254841  0.51586886  0.57222795  1
  O  O197  1  0.57003897  0.50152982  0.57479093  1
  O  O198  1  0.15522405  0.83956212  0.25533462  1
  O  O199  1  0.66229760  0.84323902  0.27210943  1
  O  O200  1  0.25371580  0.66409313  0.27242885  1
  O  O201  1  0.75901436  0.68847566  0.25764672  1
  O  O202  1  0.07846146  0.47119358  0.25570976  1
  O  O203  1  0.57221239  0.47155290  0.26115420  1
  O  O204  1  0.16224373  0.47097674  0.76650421  1
  O  O205  1  0.65498368  0.47178264  0.75587900  1
  O  O206  1  0.07422346  0.67512260  0.76368555  1
  O  O207  1  0.57604530  0.68125740  0.75528443  1
  O  O208  1  0.25786173  0.82248058  0.75846714  1
  O  O209  1  0.75431265  0.84469167  0.77179895  1
