# generated using pymatgen
data_Tb(HO)3
_symmetry_space_group_name_H-M   'P 1'
_cell_length_a   6.26907942
_cell_length_b   6.26908092
_cell_length_c   3.54878720
_cell_angle_alpha   90.00000007
_cell_angle_beta   89.99999942
_cell_angle_gamma   120.00032236
_symmetry_Int_Tables_number   1
_chemical_formula_structural   Tb(HO)3
_chemical_formula_sum   'Tb2 H6 O6'
_cell_volume   120.78606303
_cell_formula_units_Z   2
loop_
 _symmetry_equiv_pos_site_id
 _symmetry_equiv_pos_as_xyz
  1  'x, y, z'
loop_
 _atom_site_type_symbol
 _atom_site_label
 _atom_site_symmetry_multiplicity
 _atom_site_fract_x
 _atom_site_fract_y
 _atom_site_fract_z
 _atom_site_occupancy
  Tb  Tb0  1  0.66666894  0.33333265  0.74999999  1
  Tb  Tb1  1  0.33333082  0.66666659  0.24999999  1
  H  H2  1  0.72404884  0.86333331  0.75000001  1
  H  H3  1  0.86071122  0.72406565  0.25000001  1
  H  H4  1  0.13928472  0.27594670  0.75000001  1
  H  H5  1  0.27593427  0.13664401  0.25000001  1
  H  H6  1  0.86334919  0.13928928  0.25000001  1
  H  H7  1  0.13666556  0.86071319  0.74999999  1
  O  O8  1  0.91647861  0.60570064  0.25000001  1
  O  O9  1  0.60572256  0.68925815  0.75000000  1
  O  O10  1  0.08353206  0.39428289  0.75000004  1
  O  O11  1  0.39429996  0.31078000  0.24999998  1
  O  O12  1  0.68923250  0.08352548  0.24999997  1
  O  O13  1  0.31073975  0.91646144  0.74999998  1
