# generated using pymatgen
data_K4CdCl6
_symmetry_space_group_name_H-M   'P 1'
_cell_length_a   8.57902814
_cell_length_b   8.57902814
_cell_length_c   8.57902791
_cell_angle_alpha   89.82102466
_cell_angle_beta   89.82102466
_cell_angle_gamma   89.82101400
_symmetry_Int_Tables_number   1
_chemical_formula_structural   K4CdCl6
_chemical_formula_sum   'K8 Cd2 Cl12'
_cell_volume   631.40486154
_cell_formula_units_Z   2
loop_
 _symmetry_equiv_pos_site_id
 _symmetry_equiv_pos_as_xyz
  1  'x, y, z'
loop_
 _atom_site_type_symbol
 _atom_site_label
 _atom_site_symmetry_multiplicity
 _atom_site_fract_x
 _atom_site_fract_y
 _atom_site_fract_z
 _atom_site_occupancy
  K  K0  1  0.25000000  0.25000000  0.25000000  1
  K  K1  1  0.75000000  0.75000000  0.75000000  1
  K  K2  1  0.75000000  0.12691838  0.37308162  1
  K  K3  1  0.37308162  0.75000000  0.12691838  1
  K  K4  1  0.12691838  0.37308162  0.75000000  1
  K  K5  1  0.25000000  0.87308162  0.62691838  1
  K  K6  1  0.62691838  0.25000000  0.87308162  1
  K  K7  1  0.87308162  0.62691838  0.25000000  1
  Cd  Cd8  1  -0.00000000  -0.00000000  0.00000000  1
  Cd  Cd9  1  0.50000000  0.50000000  0.50000000  1
  Cl  Cl10  1  0.44265563  0.57056299  0.79521012  1
  Cl  Cl11  1  0.79521012  0.44265563  0.57056299  1
  Cl  Cl12  1  0.57056299  0.79521012  0.44265563  1
  Cl  Cl13  1  0.05734437  0.70478988  0.92943701  1
  Cl  Cl14  1  0.92943701  0.05734437  0.70478988  1
  Cl  Cl15  1  0.70478988  0.92943701  0.05734437  1
  Cl  Cl16  1  0.55734437  0.42943701  0.20478988  1
  Cl  Cl17  1  0.20478988  0.55734437  0.42943701  1
  Cl  Cl18  1  0.42943701  0.20478988  0.55734437  1
  Cl  Cl19  1  0.94265563  0.29521012  0.07056299  1
  Cl  Cl20  1  0.29521012  0.07056299  0.94265563  1
  Cl  Cl21  1  0.07056299  0.94265563  0.29521012  1
