# generated using pymatgen
data_Na5Ti4Si3(PO8)3
_symmetry_space_group_name_H-M   'P 1'
_cell_length_a   8.81580793
_cell_length_b   8.81744430
_cell_length_c   22.13278358
_cell_angle_alpha   89.98989600
_cell_angle_beta   90.05719398
_cell_angle_gamma   119.96076766
_symmetry_Int_Tables_number   1
_chemical_formula_structural   Na5Ti4Si3(PO8)3
_chemical_formula_sum   'Na15 Ti12 Si9 P9 O72'
_cell_volume   1490.53720864
_cell_formula_units_Z   3
loop_
 _symmetry_equiv_pos_site_id
 _symmetry_equiv_pos_as_xyz
  1  'x, y, z'
loop_
 _atom_site_type_symbol
 _atom_site_label
 _atom_site_symmetry_multiplicity
 _atom_site_fract_x
 _atom_site_fract_y
 _atom_site_fract_z
 _atom_site_occupancy
  Na  Na0  1  0.00071188  0.63235026  0.24970855  1
  Na  Na1  1  0.36610165  -0.00009087  0.74999306  1
  Na  Na2  1  0.03282964  0.70070732  0.58275818  1
  Na  Na3  1  0.66371575  0.96585098  0.58445773  1
  Na  Na4  1  0.29828654  0.96721781  0.08285328  1
  Na  Na5  1  0.03349776  0.33620548  0.08400837  1
  Na  Na6  1  0.96711421  0.66661976  0.91714734  1
  Na  Na7  1  0.96624563  0.30011517  0.41578276  1
  Na  Na8  1  0.33609306  0.03423448  0.41641030  1
  Na  Na9  1  0.00054651  0.99784888  0.50004883  1
  Na  Na10  1  0.99345486  0.99950069  0.99883114  1
  Na  Na11  1  0.66807323  0.33188071  0.83333950  1
  Na  Na12  1  0.66049931  0.33228463  0.33201331  1
  Na  Na13  1  0.34957687  0.66628148  0.16810229  1
  Na  Na14  1  0.33170842  0.64796984  0.66768191  1
  Ti  Ti15  1  0.98970617  0.99532433  0.35278900  1
  Ti  Ti16  1  -0.00055329  0.00745845  0.85329012  1
  Ti  Ti17  1  0.99816837  0.00003783  0.64724629  1
  Ti  Ti18  1  0.00042879  0.00238502  0.14681995  1
  Ti  Ti19  1  0.66566760  0.33407793  0.68651079  1
  Ti  Ti20  1  0.66696306  0.33365463  0.18596503  1
  Ti  Ti21  1  0.65608335  0.32865824  0.98017549  1
  Ti  Ti22  1  0.66520491  0.33960117  0.48008809  1
  Ti  Ti23  1  0.33135953  0.66516363  0.01956891  1
  Ti  Ti24  1  0.34133591  0.67506218  0.51998730  1
  Ti  Ti25  1  0.33144234  0.66460469  0.31416163  1
  Ti  Ti26  1  0.34271278  0.67328868  0.81358594  1
  Si  Si27  1  0.00007312  0.28931761  0.24990405  1
  Si  Si28  1  0.71268485  0.00170559  0.74994170  1
  Si  Si29  1  0.37603897  0.04813230  0.58315937  1
  Si  Si30  1  0.66176166  0.61872981  0.58423275  1
  Si  Si31  1  0.95136092  0.62327986  0.08233527  1
  Si  Si32  1  0.38089716  0.33811784  0.08440468  1
  Si  Si33  1  0.33647761  0.96056565  0.91650843  1
  Si  Si34  1  0.62318256  0.95418709  0.41613576  1
  Si  Si35  1  0.04191662  0.66742490  0.41689921  1
  P  P36  1  0.29189422  0.00356734  0.25074957  1
  P  P37  1  0.70912798  0.71248678  0.24921544  1
  P  P38  1  0.28624332  0.29005063  0.75009562  1
  P  P39  1  0.99687092  0.70817343  0.75105753  1
  P  P40  1  0.95602672  0.33322663  0.58319566  1
  P  P41  1  0.66655742  0.04450438  0.08299831  1
  P  P42  1  0.61982684  0.66688459  0.91669824  1
  P  P43  1  0.04648976  0.37749997  0.91606038  1
  P  P44  1  0.33620830  0.38272719  0.41649943  1
  O  O45  1  0.20321782  0.02586912  0.30742073  1
  O  O46  1  0.82883110  0.79882877  0.30559013  1
  O  O47  1  0.97402370  0.16754970  0.30956037  1
  O  O48  1  0.20104172  0.16977498  0.80598785  1
  O  O49  1  0.97415078  0.79722613  0.80768374  1
  O  O50  1  0.83894870  0.02642999  0.80766952  1
  O  O51  1  0.80217984  0.97264725  0.68946640  1
  O  O52  1  0.17120321  0.19787796  0.69404862  1
  O  O53  1  0.03074402  0.82659571  0.69413316  1
  O  O54  1  0.80161562  0.82708475  0.19357431  1
  O  O55  1  0.02562882  0.19451483  0.19001891  1
  O  O56  1  0.17369204  0.97112058  0.19391016  1
  O  O57  1  0.86700913  0.36434752  0.63826529  1
  O  O58  1  0.50182381  0.13372704  0.64245258  1
  O  O59  1  0.63843527  0.49601276  0.64245451  1
  O  O60  1  0.86624499  0.49675365  0.14189108  1
  O  O61  1  0.63274080  0.12887172  0.13895497  1
  O  O62  1  0.50437839  0.36303631  0.14246853  1
  O  O63  1  0.46922878  0.29552341  0.02621807  1
  O  O64  1  0.83473375  0.53038308  0.02247727  1
  O  O65  1  0.70132208  0.16421002  0.02767289  1
  O  O66  1  0.46942522  0.16520809  0.52317516  1
  O  O67  1  0.70324822  0.52960512  0.52616315  1
  O  O68  1  0.84112578  0.29866402  0.52579370  1
  O  O69  1  0.53051981  0.69173544  0.97249904  1
  O  O70  1  0.15680273  0.46099625  0.97467658  1
  O  O71  1  0.30132868  0.83261330  0.97568506  1
  O  O72  1  0.53513151  0.83606433  0.47710227  1
  O  O73  1  0.30202636  0.46643658  0.47189484  1
  O  O74  1  0.16715971  0.69988876  0.47614770  1
  O  O75  1  0.13145988  0.63057061  0.35714688  1
  O  O76  1  0.49207292  0.85747781  0.35954674  1
  O  O77  1  0.36148358  0.49454007  0.35986468  1
  O  O78  1  0.13807948  0.49850658  0.86182119  1
  O  O79  1  0.36123382  0.86226222  0.85675013  1
  O  O80  1  0.50650409  0.64065823  0.86007002  1
  O  O81  1  0.03313317  0.84565044  0.40935167  1
  O  O82  1  0.81882584  0.98019192  0.41027348  1
  O  O83  1  0.17208866  0.19731788  0.41069171  1
  O  O84  1  0.02867823  0.19548277  0.90988292  1
  O  O85  1  0.15691229  0.97045741  0.90967614  1
  O  O86  1  0.80549503  0.82904484  0.91093801  1
  O  O87  1  0.97080687  0.16715493  0.59019446  1
  O  O88  1  0.18117509  0.02014778  0.59009163  1
  O  O89  1  0.83731794  0.81426341  0.59052862  1
  O  O90  1  0.98023445  0.81849527  0.09016020  1
  O  O91  1  0.83197593  0.02894461  0.08988591  1
  O  O92  1  0.18554453  0.16276356  0.09057442  1
  O  O93  1  0.68522010  0.17075342  0.74501060  1
  O  O94  1  0.46829745  0.30324250  0.74434850  1
  O  O95  1  0.83444751  0.52710930  0.74427388  1
  O  O96  1  0.69709740  0.53103660  0.24415974  1
  O  O97  1  0.82835452  0.31394712  0.24463731  1
  O  O98  1  0.47305779  0.16553725  0.24411677  1
  O  O99  1  0.64441813  0.50504448  0.92183287  1
  O  O100  1  0.86584293  0.36429937  0.92159785  1
  O  O101  1  0.51184414  0.15102445  0.92265844  1
  O  O102  1  0.64207741  0.14726217  0.42185787  1
  O  O103  1  0.49736903  0.35883503  0.42217283  1
  O  O104  1  0.85276506  0.49008457  0.42311248  1
  O  O105  1  0.35376736  0.50532456  0.07681356  1
  O  O106  1  0.14842927  0.64372375  0.07607155  1
  O  O107  1  0.50062306  0.86418548  0.07606846  1
  O  O108  1  0.35495296  0.85165069  0.57753142  1
  O  O109  1  0.49252651  0.64314379  0.57807887  1
  O  O110  1  0.13554111  0.49861254  0.57707243  1
  O  O111  1  0.30367386  0.83366539  0.25547866  1
  O  O112  1  0.52870049  0.69463277  0.25589527  1
  O  O113  1  0.17204254  0.48548823  0.25507349  1
  O  O114  1  0.30320025  0.46995448  0.75705843  1
  O  O115  1  0.16504439  0.69394605  0.75628862  1
  O  O116  1  0.51577580  0.82782651  0.75620123  1
