# generated using pymatgen
data_Tb2O3
_symmetry_space_group_name_H-M   'P 1'
_cell_length_a   3.51252263
_cell_length_b   7.20566328
_cell_length_c   8.65126162
_cell_angle_alpha   99.75306541
_cell_angle_beta   90.00000000
_cell_angle_gamma   104.10700223
_symmetry_Int_Tables_number   1
_chemical_formula_structural   Tb2O3
_chemical_formula_sum   'Tb6 O9'
_cell_volume   209.09584212
_cell_formula_units_Z   3
loop_
 _symmetry_equiv_pos_site_id
 _symmetry_equiv_pos_as_xyz
  1  'x, y, z'
loop_
 _atom_site_type_symbol
 _atom_site_label
 _atom_site_symmetry_multiplicity
 _atom_site_fract_x
 _atom_site_fract_y
 _atom_site_fract_z
 _atom_site_occupancy
  Tb  Tb0  1  0.03331909  0.06663818  0.81248546  1
  Tb  Tb1  1  0.96668091  0.93336182  0.18751454  1
  Tb  Tb2  1  0.30923977  0.61848053  0.86249937  1
  Tb  Tb3  1  0.69076023  0.38151947  0.13750063  1
  Tb  Tb4  1  0.36503667  0.73007234  0.51248137  1
  Tb  Tb5  1  0.63496333  0.26992766  0.48751863  1
  O  O6  1  0.50000000  -0.00000000  -0.00000000  1
  O  O7  1  0.52827010  0.05654019  0.65624138  1
  O  O8  1  0.47172990  0.94345981  0.34375962  1
  O  O9  1  0.20509267  0.41018435  0.62420900  1
  O  O10  1  0.79490733  0.58981565  0.37579100  1
  O  O11  1  0.17489468  0.34979035  0.97061286  1
  O  O12  1  0.12809039  0.25617977  0.28294189  1
  O  O13  1  0.87190961  0.74382023  0.71705811  1
  O  O14  1  0.82510532  0.65020965  0.02938714  1
