# generated using pymatgen
data_Na3Sc2(PO4)3
_symmetry_space_group_name_H-M   'P 1'
_cell_length_a   15.71398826
_cell_length_b   9.01971324
_cell_length_c   9.03608280
_cell_angle_alpha   90.00000000
_cell_angle_beta   124.94740313
_cell_angle_gamma   90.00000000
_symmetry_Int_Tables_number   1
_chemical_formula_structural   Na3Sc2(PO4)3
_chemical_formula_sum   'Na12 Sc8 P12 O48'
_cell_volume   1049.79079452
_cell_formula_units_Z   4
loop_
 _symmetry_equiv_pos_site_id
 _symmetry_equiv_pos_as_xyz
  1  'x, y, z'
loop_
 _atom_site_type_symbol
 _atom_site_label
 _atom_site_symmetry_multiplicity
 _atom_site_fract_x
 _atom_site_fract_y
 _atom_site_fract_z
 _atom_site_occupancy
  Na  Na0  1  0.24442943  0.77374380  0.99759508  1
  Na  Na1  1  0.74442943  0.72625620  0.49759508  1
  Na  Na2  1  0.74442943  0.27374380  0.99759508  1
  Na  Na3  1  0.24442943  0.22625620  0.49759508  1
  Na  Na4  1  0.50240214  0.10446657  0.74896166  1
  Na  Na5  1  0.50240214  0.89553343  0.24896166  1
  Na  Na6  1  0.00240214  0.60446657  0.74896166  1
  Na  Na7  1  0.00240214  0.39553343  0.24896166  1
  Na  Na8  1  0.81040164  0.93387759  0.20839959  1
  Na  Na9  1  0.81040164  0.06612241  0.70839959  1
  Na  Na10  1  0.31040164  0.43387759  0.20839959  1
  Na  Na11  1  0.31040164  0.56612241  0.70839959  1
  Sc  Sc12  1  0.10381073  0.75851045  0.55630425  1
  Sc  Sc13  1  0.89761416  0.75011243  0.94155448  1
  Sc  Sc14  1  0.89761416  0.24988757  0.44155448  1
  Sc  Sc15  1  0.10381073  0.24148955  0.05630425  1
  Sc  Sc16  1  0.60381073  0.25851045  0.55630425  1
  Sc  Sc17  1  0.39761416  0.25011243  0.94155448  1
  Sc  Sc18  1  0.39761416  0.74988757  0.44155448  1
  Sc  Sc19  1  0.60381073  0.74148955  0.05630425  1
  P  P20  1  0.99903423  0.95094568  0.74468617  1
  P  P21  1  0.99903423  0.04905432  0.24468617  1
  P  P22  1  0.49903423  0.45094568  0.74468617  1
  P  P23  1  0.49903423  0.54905432  0.24468617  1
  P  P24  1  0.35539678  0.89629124  0.75779506  1
  P  P25  1  0.65000955  0.89783888  0.74604375  1
  P  P26  1  0.65000955  0.10216112  0.24604375  1
  P  P27  1  0.35539678  0.10370876  0.25779506  1
  P  P28  1  0.85539678  0.39629124  0.75779506  1
  P  P29  1  0.15000955  0.39783888  0.74604375  1
  P  P30  1  0.15000955  0.60216112  0.24604375  1
  P  P31  1  0.85539678  0.60370876  0.25779506  1
  O  O32  1  0.15724334  0.57051947  0.74308780  1
  O  O33  1  0.84836533  0.56751275  0.75470545  1
  O  O34  1  0.84836533  0.43248725  0.25470545  1
  O  O35  1  0.15724334  0.42948053  0.24308780  1
  O  O36  1  0.65724334  0.07051947  0.74308780  1
  O  O37  1  0.34836533  0.06751275  0.75470545  1
  O  O38  1  0.34836533  0.93248725  0.25470545  1
  O  O39  1  0.65724334  0.92948053  0.24308780  1
  O  O40  1  0.43309100  0.54519129  0.57166474  1
  O  O41  1  0.55917883  0.55313712  0.91120988  1
  O  O42  1  0.55917883  0.44686288  0.41120988  1
  O  O43  1  0.43309100  0.45480871  0.07166474  1
  O  O44  1  0.93309100  0.04519129  0.57166474  1
  O  O45  1  0.05917883  0.05313712  0.91120988  1
  O  O46  1  0.05917883  0.94686288  0.41120988  1
  O  O47  1  0.93309100  0.95480871  0.07166474  1
  O  O48  1  0.26276284  0.82152728  0.74531813  1
  O  O49  1  0.74274941  0.83361333  0.75043459  1
  O  O50  1  0.74274941  0.16638667  0.25043459  1
  O  O51  1  0.26276284  0.17847272  0.24531813  1
  O  O52  1  0.76276284  0.32152728  0.74531813  1
  O  O53  1  0.24274941  0.33361333  0.75043459  1
  O  O54  1  0.24274941  0.66638667  0.25043459  1
  O  O55  1  0.76276284  0.67847272  0.24531813  1
  O  O56  1  0.35889261  0.84843223  0.59718815  1
  O  O57  1  0.65374890  0.86064512  0.91774407  1
  O  O58  1  0.65374890  0.13935488  0.41774407  1
  O  O59  1  0.35889261  0.15156777  0.09718815  1
  O  O60  1  0.85889261  0.34843223  0.59718815  1
  O  O61  1  0.15374890  0.36064512  0.91774407  1
  O  O62  1  0.15374890  0.63935488  0.41774407  1
  O  O63  1  0.85889261  0.65156777  0.09718815  1
  O  O64  1  0.45659721  0.84226620  0.93449179  1
  O  O65  1  0.54722726  0.84189549  0.57558395  1
  O  O66  1  0.54722726  0.15810451  0.07558395  1
  O  O67  1  0.45659721  0.15773380  0.43449179  1
  O  O68  1  0.95659721  0.34226620  0.93449179  1
  O  O69  1  0.04722726  0.34189549  0.57558395  1
  O  O70  1  0.04722726  0.65810451  0.07558395  1
  O  O71  1  0.95659721  0.65773380  0.43449179  1
  O  O72  1  0.07665257  0.84520794  0.74432916  1
  O  O73  1  0.92039205  0.85202162  0.75290225  1
  O  O74  1  0.92039205  0.14797838  0.25290225  1
  O  O75  1  0.07665257  0.15479206  0.24432916  1
  O  O76  1  0.57665257  0.34520794  0.74432916  1
  O  O77  1  0.42039205  0.35202162  0.75290225  1
  O  O78  1  0.42039205  0.64797838  0.25290225  1
  O  O79  1  0.57665257  0.65479206  0.24432916  1
