# generated using pymatgen
data_Na6La5Nb3(PO4)12
_symmetry_space_group_name_H-M   'P 1'
_cell_length_a   18.58804650
_cell_length_b   9.29185982
_cell_length_c   23.86111986
_cell_angle_alpha   90.07417104
_cell_angle_beta   89.89812907
_cell_angle_gamma   119.93595146
_symmetry_Int_Tables_number   1
_chemical_formula_structural   Na6La5Nb3(PO4)12
_chemical_formula_sum   'Na18 La15 Nb9 P36 O144'
_cell_volume   3571.38811479
_cell_formula_units_Z   3
loop_
 _symmetry_equiv_pos_site_id
 _symmetry_equiv_pos_as_xyz
  1  'x, y, z'
loop_
 _atom_site_type_symbol
 _atom_site_label
 _atom_site_symmetry_multiplicity
 _atom_site_fract_x
 _atom_site_fract_y
 _atom_site_fract_z
 _atom_site_occupancy
  Na  Na0  1  0.67911604  0.36938170  0.25160510  1
  Na  Na1  1  0.00406304  0.63885853  0.25251239  1
  Na  Na2  1  0.00170473  0.36945654  0.74962079  1
  Na  Na3  1  0.50172923  0.36944216  0.74988921  1
  Na  Na4  1  0.18145173  0.99243162  0.74916214  1
  Na  Na5  1  0.68132771  0.99236380  0.74950615  1
  Na  Na6  1  0.00056768  0.99961800  0.50210231  1
  Na  Na7  1  0.49990612  0.00052586  0.50261790  1
  Na  Na8  1  0.99856010  0.99644551  0.00264669  1
  Na  Na9  1  0.50219676  0.00524827  0.00159123  1
  Na  Na10  1  0.33354602  0.34414553  0.83463310  1
  Na  Na11  1  0.83305282  0.34361939  0.83525020  1
  Na  Na12  1  0.33285164  0.33227978  0.33486003  1
  Na  Na13  1  0.83332618  0.32182924  0.33551166  1
  Na  Na14  1  0.17250110  0.66456951  0.16725596  1
  Na  Na15  1  0.66698211  0.68178586  0.16729511  1
  Na  Na16  1  0.17342637  0.66703420  0.66112823  1
  Na  Na17  1  0.67322048  0.66661141  0.66183980  1
  La  La18  1  0.99735884  0.99456482  0.64370436  1
  La  La19  1  0.49727848  0.99426528  0.64364617  1
  La  La20  1  0.99784765  0.00191564  0.14602826  1
  La  La21  1  0.49989315  0.99970115  0.14481715  1
  La  La22  1  0.33286288  0.34582877  0.67690052  1
  La  La23  1  0.83315848  0.34577161  0.67703301  1
  La  La24  1  0.83288052  0.31742884  0.18068370  1
  La  La25  1  0.33315185  0.33089174  0.97984877  1
  La  La26  1  0.83353672  0.33260047  0.98171050  1
  La  La27  1  0.33296383  0.33166606  0.48151932  1
  La  La28  1  0.83367201  0.33383405  0.48049382  1
  La  La29  1  0.17398538  0.67070581  0.31599897  1
  La  La30  1  0.66529915  0.67380691  0.31735112  1
  La  La31  1  0.17158737  0.66598903  0.82088154  1
  La  La32  1  0.67198673  0.66696967  0.82107406  1
  Nb  Nb33  1  0.00242510  0.00620661  0.35445843  1
  Nb  Nb34  1  0.49645271  0.99512093  0.35414918  1
  Nb  Nb35  1  0.99821053  0.99715742  0.85680476  1
  Nb  Nb36  1  0.49852961  0.99691194  0.85600050  1
  Nb  Nb37  1  0.33382731  0.33612262  0.18414317  1
  Nb  Nb38  1  0.16972196  0.67142215  0.01732792  1
  Nb  Nb39  1  0.66342839  0.66127146  0.01512863  1
  Nb  Nb40  1  0.16539170  0.66631833  0.51275644  1
  Nb  Nb41  1  0.66599964  0.66788338  0.51276910  1
  P  P42  1  0.14971550  0.01668025  0.25022483  1
  P  P43  1  0.64389316  0.00946130  0.25437338  1
  P  P44  1  0.35913834  0.69753989  0.24981519  1
  P  P45  1  0.85806682  0.70739368  0.25501232  1
  P  P46  1  0.99698896  0.28838751  0.25523762  1
  P  P47  1  0.49096322  0.28126800  0.25082127  1
  P  P48  1  0.14158606  0.27832055  0.75516359  1
  P  P49  1  0.64183591  0.27891289  0.75494039  1
  P  P50  1  0.99823194  0.71028419  0.75615370  1
  P  P51  1  0.49833315  0.70979482  0.75596065  1
  P  P52  1  0.35769063  0.00843028  0.75505228  1
  P  P53  1  0.85780419  0.00815828  0.75516094  1
  P  P54  1  0.49395685  0.35067103  0.58042044  1
  P  P55  1  0.99358816  0.35064398  0.58044330  1
  P  P56  1  0.18154104  0.01272722  0.58084547  1
  P  P57  1  0.68196458  0.01390934  0.58054426  1
  P  P58  1  0.32428020  0.63776078  0.57725090  1
  P  P59  1  0.82439902  0.63768278  0.57732633  1
  P  P60  1  0.48432042  0.61458492  0.08318641  1
  P  P61  1  0.99295979  0.63734466  0.08047383  1
  P  P62  1  0.32322726  0.03186589  0.08368778  1
  P  P63  1  0.82480812  0.01086210  0.07720922  1
  P  P64  1  0.19284930  0.35558800  0.08364944  1
  P  P65  1  0.68113223  0.34703846  0.08038595  1
  P  P66  1  0.32110955  0.68587909  0.91867382  1
  P  P67  1  0.81974106  0.68381563  0.91869955  1
  P  P68  1  0.02434499  0.36374677  0.91661984  1
  P  P69  1  0.52251872  0.36025483  0.91462501  1
  P  P70  1  0.15722880  0.95215125  0.91595438  1
  P  P71  1  0.65723362  0.95415535  0.91566997  1
  P  P72  1  0.31905627  0.95430491  0.41676961  1
  P  P73  1  0.82024808  0.95412120  0.41618437  1
  P  P74  1  0.15779380  0.36159908  0.41657581  1
  P  P75  1  0.65701265  0.36101228  0.41349036  1
  P  P76  1  0.02409981  0.68509199  0.41322747  1
  P  P77  1  0.52165219  0.68475382  0.41655380  1
  O  O78  1  0.10290055  0.03492597  0.30374701  1
  O  O79  1  0.58659016  0.01043716  0.30532983  1
  O  O80  1  0.41312129  0.79161295  0.30363690  1
  O  O81  1  0.91612528  0.82175975  0.30571944  1
  O  O82  1  0.48038938  0.16425023  0.30342080  1
  O  O83  1  0.99766876  0.17739155  0.30680774  1
  O  O84  1  0.08794963  0.16742636  0.80745411  1
  O  O85  1  0.58806438  0.16758490  0.80722881  1
  O  O86  1  0.49564185  0.81680420  0.80811480  1
  O  O87  1  0.99561688  0.81720982  0.80833372  1
  O  O88  1  0.41202633  0.00545150  0.80726119  1
  O  O89  1  0.91204980  0.00528026  0.80744851  1
  O  O90  1  0.39699982  0.99301502  0.70165305  1
  O  O91  1  0.89695743  0.99255097  0.70172063  1
  O  O92  1  0.09454126  0.20058597  0.70159150  1
  O  O93  1  0.59448335  0.20071165  0.70149797  1
  O  O94  1  0.00843910  0.80750837  0.70295996  1
  O  O95  1  0.50843389  0.80732483  0.70291156  1
  O  O96  1  0.39666766  0.79817101  0.19785250  1
  O  O97  1  0.89608546  0.79970113  0.20106289  1
  O  O98  1  0.00322642  0.20983846  0.20131775  1
  O  O99  1  0.50767320  0.20980025  0.19889670  1
  O  O100  1  0.09628620  0.98413471  0.19878195  1
  O  O101  1  0.60021004  0.99995485  0.20012576  1
  O  O102  1  0.46272482  0.38291842  0.63765670  1
  O  O103  1  0.96236025  0.38267413  0.63772195  1
  O  O104  1  0.22834642  0.07614283  0.63808380  1
  O  O105  1  0.72846847  0.07641218  0.63786667  1
  O  O106  1  0.30809022  0.53979553  0.63338816  1
  O  O107  1  0.80804099  0.53965463  0.63339209  1
  O  O108  1  0.43236223  0.49687713  0.13608371  1
  O  O109  1  0.96274969  0.54218953  0.13696398  1
  O  O110  1  0.31526064  0.13366604  0.13593419  1
  O  O111  1  0.80790061  0.07558637  0.13289397  1
  O  O112  1  0.25213132  0.37063553  0.13633466  1
  O  O113  1  0.72752628  0.37937112  0.13722774  1
  O  O114  1  0.22918026  0.32770076  0.03156269  1
  O  O115  1  0.72830029  0.32562663  0.03270806  1
  O  O116  1  0.43417590  0.54047095  0.03124626  1
  O  O117  1  0.93562397  0.54456499  0.03263783  1
  O  O118  1  0.33655153  0.12990418  0.03113160  1
  O  O119  1  0.83733548  0.12445154  0.02877955  1
  O  O120  1  0.22898909  0.13128519  0.53394003  1
  O  O121  1  0.72955290  0.13235176  0.53356681  1
  O  O122  1  0.33725628  0.54749964  0.52947571  1
  O  O123  1  0.83730924  0.54749166  0.52938494  1
  O  O124  1  0.43482001  0.32726886  0.53355224  1
  O  O125  1  0.93435427  0.32742802  0.53355640  1
  O  O126  1  0.26951583  0.70256943  0.96906914  1
  O  O127  1  0.76617228  0.69841932  0.96782462  1
  O  O128  1  0.08630648  0.46988427  0.96623010  1
  O  O129  1  0.58251730  0.46674383  0.96440072  1
  O  O130  1  0.15241643  0.83213139  0.96572440  1
  O  O131  1  0.64837777  0.83139421  0.96524504  1
  O  O132  1  0.26843412  0.83564350  0.46694560  1
  O  O133  1  0.76876167  0.83593113  0.46675880  1
  O  O134  1  0.14949993  0.46373199  0.46719995  1
  O  O135  1  0.64872740  0.46566480  0.46336259  1
  O  O136  1  0.08399072  0.70068393  0.46366306  1
  O  O137  1  0.58168780  0.70309944  0.46687459  1
  O  O138  1  0.05812637  0.66068381  0.35858558  1
  O  O139  1  0.55668156  0.65749304  0.36339748  1
  O  O140  1  0.27154853  0.88762292  0.36319879  1
  O  O141  1  0.77183685  0.88254402  0.36308587  1
  O  O142  1  0.16959637  0.45741075  0.36345719  1
  O  O143  1  0.66918328  0.45135511  0.35840498  1
  O  O144  1  0.05603296  0.45217893  0.86087068  1
  O  O145  1  0.55490956  0.45000281  0.85930541  1
  O  O146  1  0.16878946  0.88738503  0.86029191  1
  O  O147  1  0.66899876  0.88899738  0.86003440  1
  O  O148  1  0.27433013  0.65786963  0.86453766  1
  O  O149  1  0.77433702  0.65682914  0.86396717  1
  O  O150  1  0.02117685  0.85318907  0.40765455  1
  O  O151  1  0.51816600  0.85222003  0.40925872  1
  O  O152  1  0.40514689  0.95721525  0.40901849  1
  O  O153  1  0.90789424  0.96294102  0.40921988  1
  O  O154  1  0.07426217  0.18710874  0.41055544  1
  O  O155  1  0.57257997  0.18572737  0.40670597  1
  O  O156  1  0.01994190  0.18827351  0.91110218  1
  O  O157  1  0.51951736  0.18689353  0.91053817  1
  O  O158  1  0.07357348  0.95885650  0.91178432  1
  O  O159  1  0.57372403  0.96180919  0.91098839  1
  O  O160  1  0.40688218  0.85340152  0.91252388  1
  O  O161  1  0.90602708  0.85203847  0.91238207  1
  O  O162  1  0.51081351  0.20545784  0.58243866  1
  O  O163  1  0.01074619  0.20593223  0.58245070  1
  O  O164  1  0.09217872  0.97930098  0.58254847  1
  O  O165  1  0.59247426  0.97975195  0.58234868  1
  O  O166  1  0.39701376  0.81571351  0.58069230  1
  O  O167  1  0.89691260  0.81567565  0.58073851  1
  O  O168  1  0.50090802  0.79031954  0.09181428  1
  O  O169  1  0.01214967  0.81741142  0.08201543  1
  O  O170  1  0.39311245  0.99504511  0.09239789  1
  O  O171  1  0.89714696  0.97682418  0.08008731  1
  O  O172  1  0.10488902  0.21509980  0.09333369  1
  O  O173  1  0.59147714  0.20322064  0.08068435  1
  O  O174  1  0.35850702  0.17703320  0.75765799  1
  O  O175  1  0.85853052  0.17666826  0.75766092  1
  O  O176  1  0.22550878  0.28001474  0.75672701  1
  O  O177  1  0.72556749  0.28006635  0.75662949  1
  O  O178  1  0.41998199  0.53529022  0.75691038  1
  O  O179  1  0.92001307  0.53546905  0.75685727  1
  O  O180  1  0.35426985  0.52040441  0.24018767  1
  O  O181  1  0.85916144  0.54063028  0.25727161  1
  O  O182  1  0.41033851  0.29651008  0.24116050  1
  O  O183  1  0.91572755  0.29769861  0.25825735  1
  O  O184  1  0.23779662  0.17929234  0.24045870  1
  O  O185  1  0.72625770  0.17934236  0.25835020  1
  O  O186  1  0.33823306  0.54406758  0.92588139  1
  O  O187  1  0.83790144  0.54316974  0.92598169  1
  O  O188  1  0.43492221  0.32747710  0.92325270  1
  O  O189  1  0.93664166  0.33138361  0.92492278  1
  O  O190  1  0.22827971  0.12770190  0.92411849  1
  O  O191  1  0.72885390  0.12955282  0.92394728  1
  O  O192  1  0.33850131  0.13202891  0.42472497  1
  O  O193  1  0.83694662  0.13039327  0.42411593  1
  O  O194  1  0.22841178  0.32586434  0.42419063  1
  O  O195  1  0.72761663  0.32610771  0.42306673  1
  O  O196  1  0.43368690  0.54341151  0.42473550  1
  O  O197  1  0.93632951  0.54302512  0.42284731  1
  O  O198  1  0.18894739  0.52259133  0.07540279  1
  O  O199  1  0.67541283  0.50993600  0.06518620  1
  O  O200  1  0.07994159  0.64412324  0.06515268  1
  O  O201  1  0.57146255  0.62402604  0.07584117  1
  O  O202  1  0.24033023  0.85692584  0.07463778  1
  O  O203  1  0.74170769  0.83761064  0.06497872  1
  O  O204  1  0.17590793  0.83987859  0.56661995  1
  O  O205  1  0.67643771  0.84056761  0.56650792  1
  O  O206  1  0.24327289  0.64871470  0.56571914  1
  O  O207  1  0.74309327  0.64778201  0.56547625  1
  O  O208  1  0.07978221  0.51335439  0.56653743  1
  O  O209  1  0.58042110  0.51253165  0.56620724  1
  O  O210  1  0.16094310  0.86485889  0.25731361  1
  O  O211  1  0.65796756  0.86191230  0.25696155  1
  O  O212  1  0.26979532  0.65939342  0.25583175  1
  O  O213  1  0.76749179  0.66862111  0.25794130  1
  O  O214  1  0.07042391  0.46759011  0.25746097  1
  O  O215  1  0.56727800  0.45404582  0.25897835  1
  O  O216  1  0.14900165  0.45022792  0.75858636  1
  O  O217  1  0.64919958  0.45067146  0.75853832  1
  O  O218  1  0.07665571  0.69230481  0.75976024  1
  O  O219  1  0.57678125  0.69214598  0.75967244  1
  O  O220  1  0.26716253  0.86554086  0.75723407  1
  O  O221  1  0.76720044  0.86534676  0.75721552  1
