# generated using pymatgen
data_Co(HO)2
_symmetry_space_group_name_H-M   'P 1'
_cell_length_a   3.19556878
_cell_length_b   3.20948039
_cell_length_c   4.77850717
_cell_angle_alpha   89.89952374
_cell_angle_beta   89.37885814
_cell_angle_gamma   119.52866341
_symmetry_Int_Tables_number   1
_chemical_formula_structural   Co(HO)2
_chemical_formula_sum   'Co1 H2 O2'
_cell_volume   42.63919048
_cell_formula_units_Z   1
loop_
 _symmetry_equiv_pos_site_id
 _symmetry_equiv_pos_as_xyz
  1  'x, y, z'
loop_
 _atom_site_type_symbol
 _atom_site_label
 _atom_site_symmetry_multiplicity
 _atom_site_fract_x
 _atom_site_fract_y
 _atom_site_fract_z
 _atom_site_occupancy
  Co  Co0  1  0.06177200  0.06195800  0.00003600  1
  H  H1  1  0.73162100  0.38677300  0.57674800  1
  H  H2  1  0.39613700  0.74071400  0.42326500  1
  O  O3  1  0.72991400  0.38975800  0.78048100  1
  O  O4  1  0.39450100  0.73474200  0.21947000  1
