# generated using pymatgen
data_Na2Ti2Si3Sn2(SO8)3
_symmetry_space_group_name_H-M   'P 1'
_cell_length_a   8.80063498
_cell_length_b   8.78026966
_cell_length_c   22.79094010
_cell_angle_alpha   90.50021792
_cell_angle_beta   90.42105834
_cell_angle_gamma   119.96728617
_symmetry_Int_Tables_number   1
_chemical_formula_structural   Na2Ti2Si3Sn2(SO8)3
_chemical_formula_sum   'Na6 Ti6 Si9 Sn6 S9 O72'
_cell_volume   1525.46262679
_cell_formula_units_Z   3
loop_
 _symmetry_equiv_pos_site_id
 _symmetry_equiv_pos_as_xyz
  1  'x, y, z'
loop_
 _atom_site_type_symbol
 _atom_site_label
 _atom_site_symmetry_multiplicity
 _atom_site_fract_x
 _atom_site_fract_y
 _atom_site_fract_z
 _atom_site_occupancy
  Na  Na0  1  0.99066666  0.98911250  0.49872120  1
  Na  Na1  1  0.00553583  0.98559512  0.00286504  1
  Na  Na2  1  0.65160702  0.31364428  0.82630815  1
  Na  Na3  1  0.66993881  0.32116815  0.33541364  1
  Na  Na4  1  0.31536589  0.65984547  0.17446189  1
  Na  Na5  1  0.34374571  0.66413345  0.66212258  1
  Ti  Ti6  1  0.98391252  0.00583188  0.64539525  1
  Ti  Ti7  1  0.00938645  0.99349881  0.15352277  1
  Ti  Ti8  1  0.64747362  0.32922672  0.68602892  1
  Ti  Ti9  1  0.68348064  0.34967107  0.47544254  1
  Ti  Ti10  1  0.35401371  0.68456564  0.51673383  1
  Ti  Ti11  1  0.31403435  0.67646856  0.31313827  1
  Si  Si12  1  0.29403018  0.00429763  0.25229760  1
  Si  Si13  1  0.00970848  0.28961958  0.25186756  1
  Si  Si14  1  0.28704093  0.28902157  0.74799960  1
  Si  Si15  1  0.71495550  0.01046043  0.74911487  1
  Si  Si16  1  0.66555159  0.62065932  0.58297991  1
  Si  Si17  1  0.95436753  0.62885505  0.08400083  1
  Si  Si18  1  0.33032836  0.96085168  0.91585511  1
  Si  Si19  1  0.62202326  0.95766164  0.41523556  1
  Si  Si20  1  0.05156517  0.67205137  0.41867093  1
  Sn  Sn21  1  0.00391462  0.00471763  0.35614133  1
  Sn  Sn22  1  0.01433899  0.00950947  0.84730726  1
  Sn  Sn23  1  0.68087237  0.33486311  0.19045768  1
  Sn  Sn24  1  0.66397747  0.33275436  0.98176388  1
  Sn  Sn25  1  0.31929415  0.67359452  0.02028164  1
  Sn  Sn26  1  0.34621408  0.68143972  0.80757765  1
  S  S27  1  0.70832003  0.71261119  0.24937935  1
  S  S28  1  0.99408507  0.70662341  0.74727479  1
  S  S29  1  0.95360635  0.33584056  0.58384426  1
  S  S30  1  0.37514556  0.04396229  0.58285110  1
  S  S31  1  0.67064857  0.03819835  0.08290651  1
  S  S32  1  0.37027905  0.33330653  0.08280798  1
  S  S33  1  0.62355609  0.66749294  0.91754823  1
  S  S34  1  0.04182723  0.37447859  0.91593020  1
  S  S35  1  0.33932991  0.38538756  0.41791297  1
  O  O36  1  0.20957570  0.03769847  0.30929733  1
  O  O37  1  0.81589422  0.78400065  0.30300713  1
  O  O38  1  0.96357497  0.16733248  0.30881767  1
  O  O39  1  0.22801657  0.18079776  0.80897639  1
  O  O40  1  0.96331761  0.77501203  0.80429238  1
  O  O41  1  0.82475686  0.03534979  0.81072975  1
  O  O42  1  0.81031099  0.97476156  0.69250176  1
  O  O43  1  0.16271490  0.18631155  0.69172677  1
  O  O44  1  0.02276197  0.82040400  0.69783578  1
  O  O45  1  0.79522504  0.81813422  0.19640892  1
  O  O46  1  0.02360019  0.18576058  0.19198453  1
  O  O47  1  0.16721401  0.96607438  0.19200069  1
  O  O48  1  0.87059864  0.35609687  0.63611196  1
  O  O49  1  0.48499272  0.12383140  0.63730800  1
  O  O50  1  0.64178695  0.49557652  0.64004316  1
  O  O51  1  0.86195165  0.49996007  0.13850161  1
  O  O52  1  0.62997599  0.11461405  0.13390263  1
  O  O53  1  0.48260067  0.36425443  0.13484123  1
  O  O54  1  0.44376583  0.29882501  0.02841959  1
  O  O55  1  0.84116003  0.54525228  0.02248108  1
  O  O56  1  0.69211887  0.13979254  0.02840579  1
  O  O57  1  0.45951155  0.15109506  0.53113290  1
  O  O58  1  0.69252580  0.52001667  0.52578154  1
  O  O59  1  0.84571502  0.30387674  0.52992184  1
  O  O60  1  0.54200165  0.68936666  0.97168926  1
  O  O61  1  0.14952362  0.44920669  0.97075471  1
  O  O62  1  0.30054010  0.84975762  0.97540775  1
  O  O63  1  0.53087297  0.83443408  0.47463387  1
  O  O64  1  0.31683740  0.46899823  0.47116167  1
  O  O65  1  0.17251041  0.68950411  0.47605071  1
  O  O66  1  0.13088480  0.63436727  0.35821190  1
  O  O67  1  0.49614986  0.85618562  0.35854227  1
  O  O68  1  0.36139832  0.48420620  0.36430781  1
  O  O69  1  0.12378333  0.48014298  0.86441645  1
  O  O70  1  0.36518722  0.87261048  0.85861593  1
  O  O71  1  0.51406563  0.63461596  0.86475141  1
  O  O72  1  0.03049305  0.84463611  0.41401425  1
  O  O73  1  0.81612414  0.97883189  0.41308672  1
  O  O74  1  0.17923280  0.20771383  0.41637597  1
  O  O75  1  0.01805393  0.19587277  0.91319898  1
  O  O76  1  0.15117020  0.97564612  0.91195671  1
  O  O77  1  0.79743044  0.82659291  0.91331678  1
  O  O78  1  0.97068688  0.17285431  0.58836086  1
  O  O79  1  0.20088887  0.02481351  0.58987533  1
  O  O80  1  0.84352827  0.81521474  0.59258925  1
  O  O81  1  0.97436157  0.82323098  0.09038782  1
  O  O82  1  0.82803226  0.02542743  0.08920118  1
  O  O83  1  0.19459305  0.18098408  0.08811471  1
  O  O84  1  0.69892672  0.18411694  0.73921846  1
  O  O85  1  0.48610397  0.31806863  0.73922522  1
  O  O86  1  0.84131320  0.52984221  0.74124820  1
  O  O87  1  0.68670328  0.53364336  0.24314544  1
  O  O88  1  0.83828386  0.31672505  0.24677122  1
  O  O89  1  0.48205834  0.18053329  0.24078913  1
  O  O90  1  0.64280153  0.50897507  0.92130000  1
  O  O91  1  0.86797304  0.36174010  0.92147880  1
  O  O92  1  0.50925698  0.15806582  0.92210658  1
  O  O93  1  0.63302483  0.14760975  0.42775878  1
  O  O94  1  0.49465348  0.36184684  0.42410932  1
  O  O95  1  0.85421793  0.49372940  0.42587248  1
  O  O96  1  0.36206448  0.49812592  0.07550337  1
  O  O97  1  0.14850103  0.64041852  0.08124148  1
  O  O98  1  0.51451072  0.85712575  0.07743046  1
  O  O99  1  0.35953149  0.86718716  0.57859082  1
  O  O100  1  0.49082326  0.64058860  0.57585446  1
  O  O101  1  0.13037933  0.49011202  0.57854707  1
  O  O102  1  0.31175827  0.82781927  0.25581565  1
  O  O103  1  0.53661901  0.69857773  0.25309894  1
  O  O104  1  0.19021038  0.48004788  0.25717812  1
  O  O105  1  0.29742634  0.48050193  0.75464251  1
  O  O106  1  0.15412527  0.69036371  0.75330399  1
  O  O107  1  0.52257404  0.83317115  0.75015590  1
