# generated using pymatgen
data_Na2Nb8Si9(SO16)3
_symmetry_space_group_name_H-M   'P 1'
_cell_length_a   17.85567540
_cell_length_b   8.91467253
_cell_length_c   23.04772690
_cell_angle_alpha   89.98136724
_cell_angle_beta   89.96247859
_cell_angle_gamma   119.88814618
_symmetry_Int_Tables_number   1
_chemical_formula_structural   Na2Nb8Si9(SO16)3
_chemical_formula_sum   'Na6 Nb24 Si27 S9 O144'
_cell_volume   3180.74305951
_cell_formula_units_Z   3
loop_
 _symmetry_equiv_pos_site_id
 _symmetry_equiv_pos_as_xyz
  1  'x, y, z'
loop_
 _atom_site_type_symbol
 _atom_site_label
 _atom_site_symmetry_multiplicity
 _atom_site_fract_x
 _atom_site_fract_y
 _atom_site_fract_z
 _atom_site_occupancy
  Na  Na0  1  0.00021327  0.00017253  0.50023370  1
  Na  Na1  1  0.50200785  0.00151617  0.99763542  1
  Na  Na2  1  0.33499205  0.33661677  0.83050688  1
  Na  Na3  1  0.83169538  0.32717230  0.83308780  1
  Na  Na4  1  0.33201492  0.33531147  0.33792085  1
  Na  Na5  1  0.83480726  0.33138233  0.33536845  1
  Nb  Nb6  1  0.00615483  0.01659520  0.35929494  1
  Nb  Nb7  1  0.49509439  0.99622848  0.35977703  1
  Nb  Nb8  1  0.99477097  0.99380044  0.85744367  1
  Nb  Nb9  1  0.50694622  0.99731364  0.85783342  1
  Nb  Nb10  1  0.99412460  0.98408471  0.64137827  1
  Nb  Nb11  1  0.50575813  0.00502174  0.64192835  1
  Nb  Nb12  1  0.00333437  0.00308115  0.14333862  1
  Nb  Nb13  1  0.50038355  0.00402948  0.14546892  1
  Nb  Nb14  1  0.33687458  0.34092511  0.68192776  1
  Nb  Nb15  1  0.83838789  0.34746194  0.69242476  1
  Nb  Nb16  1  0.33876007  0.34219073  0.19495899  1
  Nb  Nb17  1  0.83770375  0.33407679  0.18218254  1
  Nb  Nb18  1  0.33857194  0.34738812  0.97239129  1
  Nb  Nb19  1  0.83332533  0.32469129  0.98116673  1
  Nb  Nb20  1  0.33413272  0.34373247  0.48193586  1
  Nb  Nb21  1  0.84130283  0.34325526  0.47484679  1
  Nb  Nb22  1  0.16068215  0.66230525  0.01767823  1
  Nb  Nb23  1  0.65891939  0.66241682  0.02728033  1
  Nb  Nb24  1  0.15823143  0.65543644  0.52796692  1
  Nb  Nb25  1  0.66578914  0.65759812  0.52101483  1
  Nb  Nb26  1  0.15946658  0.64928270  0.30533430  1
  Nb  Nb27  1  0.66363688  0.65839412  0.31606266  1
  Nb  Nb28  1  0.16358464  0.66817758  0.81369661  1
  Nb  Nb29  1  0.66072353  0.67090963  0.80434588  1
  Si  Si30  1  0.14206246  0.99871973  0.25031192  1
  Si  Si31  1  0.35761818  0.72165841  0.25099870  1
  Si  Si32  1  0.99398347  0.27758136  0.24968809  1
  Si  Si33  1  0.50431725  0.28878212  0.25114262  1
  Si  Si34  1  0.64308328  0.28574528  0.75003901  1
  Si  Si35  1  0.00334734  0.72011725  0.75032144  1
  Si  Si36  1  0.49371646  0.70978935  0.74938927  1
  Si  Si37  1  0.85746851  0.00044147  0.74971915  1
  Si  Si38  1  0.47843571  0.33385468  0.58131085  1
  Si  Si39  1  0.97246171  0.32547722  0.58457083  1
  Si  Si40  1  0.19027698  0.04760127  0.58343182  1
  Si  Si41  1  0.33407158  0.62883024  0.58320093  1
  Si  Si42  1  0.82968735  0.61267987  0.58289668  1
  Si  Si43  1  0.47259295  0.61950930  0.08420895  1
  Si  Si44  1  0.97881449  0.62391236  0.08134379  1
  Si  Si45  1  0.83393649  0.04013052  0.08301685  1
  Si  Si46  1  0.69029600  0.33384012  0.08345380  1
  Si  Si47  1  0.30937012  0.67448182  0.91614438  1
  Si  Si48  1  0.02024378  0.37659089  0.91569788  1
  Si  Si49  1  0.52840069  0.38284556  0.91573168  1
  Si  Si50  1  0.16610295  0.95600541  0.91641394  1
  Si  Si51  1  0.67075065  0.95178145  0.91676772  1
  Si  Si52  1  0.80874132  0.95128514  0.41657279  1
  Si  Si53  1  0.17115311  0.39003017  0.41714069  1
  Si  Si54  1  0.66702235  0.37585721  0.41732905  1
  Si  Si55  1  0.02785339  0.67288999  0.41580310  1
  Si  Si56  1  0.52190226  0.66354253  0.41833915  1
  S  S57  1  0.64375617  0.00144562  0.25073196  1
  S  S58  1  0.85628597  0.71314938  0.25019694  1
  S  S59  1  0.14352931  0.28632400  0.75078982  1
  S  S60  1  0.35640791  0.99915012  0.75041186  1
  S  S61  1  0.69227221  0.04800787  0.58324333  1
  S  S62  1  0.33214159  0.04581416  0.08330045  1
  S  S63  1  0.19174364  0.33500557  0.08330388  1
  S  S64  1  0.80812096  0.66373630  0.91648835  1
  S  S65  1  0.30769829  0.95251258  0.41631590  1
  O  O66  1  0.09650056  0.03272425  0.30640578  1
  O  O67  1  0.60370377  0.02959749  0.30234178  1
  O  O68  1  0.41971454  0.80599340  0.30680801  1
  O  O69  1  0.90989053  0.78935824  0.30201865  1
  O  O70  1  0.48634220  0.16247660  0.30622568  1
  O  O71  1  0.98165299  0.16088600  0.30699359  1
  O  O72  1  0.10387807  0.17941874  0.80322288  1
  O  O73  1  0.59461589  0.16063052  0.80666954  1
  O  O74  1  0.48173912  0.80229136  0.80736967  1
  O  O75  1  0.98793222  0.81173234  0.80683885  1
  O  O76  1  0.40954771  0.02865573  0.80267501  1
  O  O77  1  0.91899510  0.03165843  0.80696187  1
  O  O78  1  0.39533421  0.97437471  0.69759921  1
  O  O79  1  0.90640000  0.97536406  0.69350203  1
  O  O80  1  0.09217258  0.21057108  0.69818863  1
  O  O81  1  0.58257054  0.19328493  0.69333304  1
  O  O82  1  0.01642210  0.83633331  0.69290885  1
  O  O83  1  0.50918961  0.83282779  0.69344567  1
  O  O84  1  0.40659076  0.83654350  0.19315875  1
  O  O85  1  0.89622430  0.81706164  0.19710132  1
  O  O86  1  0.00948259  0.18623413  0.19325576  1
  O  O87  1  0.51466362  0.19428828  0.19276919  1
  O  O88  1  0.08275489  0.97195514  0.19301247  1
  O  O89  1  0.59064163  0.97616548  0.19736049  1
  O  O90  1  0.43111080  0.36427997  0.63935113  1
  O  O91  1  0.92635529  0.35615114  0.64053534  1
  O  O92  1  0.25039890  0.13987566  0.64120179  1
  O  O93  1  0.74310980  0.12586404  0.63592691  1
  O  O94  1  0.31813230  0.49984037  0.63956776  1
  O  O95  1  0.81824361  0.49728999  0.64066872  1
  O  O96  1  0.42493645  0.49392959  0.13982839  1
  O  O97  1  0.93222541  0.49878352  0.13913994  1
  O  O98  1  0.32018496  0.12523901  0.13601549  1
  O  O99  1  0.81843340  0.13731375  0.13943651  1
  O  O100  1  0.24422935  0.35813819  0.13543085  1
  O  O101  1  0.74934289  0.35878279  0.14123962  1
  O  O102  1  0.23001313  0.30338993  0.03103300  1
  O  O103  1  0.73571892  0.30010668  0.02697343  1
  O  O104  1  0.41238539  0.52312542  0.02724105  1
  O  O105  1  0.91658319  0.52889431  0.02619253  1
  O  O106  1  0.34643535  0.15398930  0.03120398  1
  O  O107  1  0.85106885  0.16829223  0.02715359  1
  O  O108  1  0.23653350  0.17198937  0.52682805  1
  O  O109  1  0.72901835  0.15500724  0.53108269  1
  O  O110  1  0.35141977  0.53527547  0.52721421  1
  O  O111  1  0.84547619  0.52037179  0.52636337  1
  O  O112  1  0.41523305  0.30131122  0.52610562  1
  O  O113  1  0.91422335  0.29782562  0.52643795  1
  O  O114  1  0.26354640  0.69419415  0.97488618  1
  O  O115  1  0.77202604  0.69461767  0.96904554  1
  O  O116  1  0.08267147  0.46984083  0.97290729  1
  O  O117  1  0.58419636  0.46947089  0.97416132  1
  O  O118  1  0.15146839  0.83214560  0.97341096  1
  O  O119  1  0.65495534  0.83211609  0.97400943  1
  O  O120  1  0.27224782  0.85008161  0.46878439  1
  O  O121  1  0.76337107  0.83212302  0.47333288  1
  O  O122  1  0.15527168  0.47861766  0.47385886  1
  O  O123  1  0.64984295  0.46624519  0.47307127  1
  O  O124  1  0.08454205  0.69981477  0.47376444  1
  O  O125  1  0.58363885  0.69769474  0.47359713  1
  O  O126  1  0.07165460  0.63947103  0.35907637  1
  O  O127  1  0.56931143  0.63673764  0.35983627  1
  O  O128  1  0.25761546  0.87617002  0.36365689  1
  O  O129  1  0.74945532  0.86123519  0.35827973  1
  O  O130  1  0.18272128  0.50296773  0.35880117  1
  O  O131  1  0.68273396  0.50134450  0.36003524  1
  O  O132  1  0.06985365  0.50310114  0.85992188  1
  O  O133  1  0.56952800  0.50370345  0.85939100  1
  O  O134  1  0.18412378  0.86459213  0.86041354  1
  O  O135  1  0.68272972  0.86233505  0.85909930  1
  O  O136  1  0.24937530  0.63711804  0.85912518  1
  O  O137  1  0.75730920  0.63779362  0.86403113  1
  O  O138  1  0.01102145  0.83591329  0.40684412  1
  O  O139  1  0.51259064  0.83416652  0.40418721  1
  O  O140  1  0.39735084  0.97256513  0.40908188  1
  O  O141  1  0.90448405  0.97164317  0.40705418  1
  O  O142  1  0.08342088  0.19482764  0.41055004  1
  O  O143  1  0.58194430  0.18920902  0.40346030  1
  O  O144  1  0.01351932  0.19072073  0.90512588  1
  O  O145  1  0.50998496  0.18530718  0.90774122  1
  O  O146  1  0.08250875  0.97575312  0.90446370  1
  O  O147  1  0.58342693  0.97294061  0.91059873  1
  O  O148  1  0.40550590  0.83928897  0.90910687  1
  O  O149  1  0.89736306  0.82183660  0.90912287  1
  O  O150  1  0.48667490  0.16393260  0.59536119  1
  O  O151  1  0.98825437  0.16204690  0.59246751  1
  O  O152  1  0.09560846  0.02978933  0.59268286  1
  O  O153  1  0.60341984  0.02908199  0.59070461  1
  O  O154  1  0.41916821  0.81319090  0.59607972  1
  O  O155  1  0.91749414  0.80529376  0.58940031  1
  O  O156  1  0.48556568  0.81304606  0.09195150  1
  O  O157  1  0.98786493  0.81064993  0.09517581  1
  O  O158  1  0.41208224  0.02924403  0.08929271  1
  O  O159  1  0.91908885  0.02508778  0.09589409  1
  O  O160  1  0.10396358  0.17975124  0.09047667  1
  O  O161  1  0.59389844  0.16182469  0.09276105  1
  O  O162  1  0.34484799  0.15472721  0.74429653  1
  O  O163  1  0.84495658  0.16853154  0.74105880  1
  O  O164  1  0.23166027  0.30508773  0.74544732  1
  O  O165  1  0.73760989  0.30151926  0.74159231  1
  O  O166  1  0.40976045  0.51286624  0.74375558  1
  O  O167  1  0.91707856  0.52690582  0.74451292  1
  O  O168  1  0.34556821  0.52488645  0.24104442  1
  O  O169  1  0.84531266  0.53519096  0.24308509  1
  O  O170  1  0.41628401  0.30585268  0.24167513  1
  O  O171  1  0.90987192  0.30655705  0.24298928  1
  O  O172  1  0.23804442  0.17040755  0.23749531  1
  O  O173  1  0.73066341  0.15846109  0.24382090  1
  O  O174  1  0.31867895  0.49775037  0.92481478  1
  O  O175  1  0.82157884  0.51209018  0.92266341  1
  O  O176  1  0.42911004  0.35909441  0.92631201  1
  O  O177  1  0.92673869  0.36253733  0.92342335  1
  O  O178  1  0.25160780  0.14482888  0.92872469  1
  O  O179  1  0.75259884  0.14982150  0.92417268  1
  O  O180  1  0.32139358  0.13093655  0.42167924  1
  O  O181  1  0.81870222  0.14287861  0.42466321  1
  O  O182  1  0.25278706  0.35510272  0.42332991  1
  O  O183  1  0.75135071  0.35428315  0.42509728  1
  O  O184  1  0.42660807  0.49124090  0.42310006  1
  O  O185  1  0.93046161  0.49855137  0.42279447  1
  O  O186  1  0.18181823  0.48886224  0.07600883  1
  O  O187  1  0.68123079  0.50286070  0.07191711  1
  O  O188  1  0.07399798  0.64182026  0.07297825  1
  O  O189  1  0.56730390  0.63811577  0.07598356  1
  O  O190  1  0.25682048  0.87160305  0.07597051  1
  O  O191  1  0.75011562  0.85464790  0.07128036  1
  O  O192  1  0.18222854  0.86119556  0.57171844  1
  O  O193  1  0.67986824  0.87304086  0.57606374  1
  O  O194  1  0.24999547  0.64543844  0.57123470  1
  O  O195  1  0.74845675  0.64291682  0.57302536  1
  O  O196  1  0.06729197  0.49878281  0.57591497  1
  O  O197  1  0.57141952  0.50550392  0.57282554  1
  O  O198  1  0.15639118  0.83598084  0.26231483  1
  O  O199  1  0.65271317  0.84649949  0.25664056  1
  O  O200  1  0.26329823  0.69836618  0.26057248  1
  O  O201  1  0.76970149  0.69545610  0.25685518  1
  O  O202  1  0.08014851  0.46843664  0.25697427  1
  O  O203  1  0.58667154  0.48147746  0.25947989  1
  O  O204  1  0.15420465  0.46174313  0.75896497  1
  O  O205  1  0.65516250  0.47554105  0.76294366  1
  O  O206  1  0.08691637  0.69348715  0.76068320  1
  O  O207  1  0.58037761  0.69288359  0.75715961  1
  O  O208  1  0.26949124  0.84350409  0.75790675  1
  O  O209  1  0.76420911  0.82922664  0.76174714  1
