# generated using pymatgen
data_K2TeBr6
_symmetry_space_group_name_H-M   'P 1'
_cell_length_a   7.52183478
_cell_length_b   7.92047048
_cell_length_c   10.53739833
_cell_angle_alpha   90.00000000
_cell_angle_beta   90.45568788
_cell_angle_gamma   90.00000000
_symmetry_Int_Tables_number   1
_chemical_formula_structural   K2TeBr6
_chemical_formula_sum   'K4 Te2 Br12'
_cell_volume   627.76114444
_cell_formula_units_Z   2
loop_
 _symmetry_equiv_pos_site_id
 _symmetry_equiv_pos_as_xyz
  1  'x, y, z'
loop_
 _atom_site_type_symbol
 _atom_site_label
 _atom_site_symmetry_multiplicity
 _atom_site_fract_x
 _atom_site_fract_y
 _atom_site_fract_z
 _atom_site_occupancy
  K  K0  1  0.48198917  0.07601705  0.75091193  1
  K  K1  1  0.01801083  0.57601705  0.74908807  1
  K  K2  1  0.51801083  0.92398295  0.24908807  1
  K  K3  1  0.98198917  0.42398295  0.25091193  1
  Te  Te4  1  0.50000000  0.50000000  0.50000000  1
  Te  Te5  1  -0.00000000  -0.00000000  0.00000000  1
  Br  Br6  1  0.41968078  0.51214822  0.24809370  1
  Br  Br7  1  0.58031922  0.48785178  0.75190630  1
  Br  Br8  1  0.29496550  0.80897640  0.95674988  1
  Br  Br9  1  0.91968078  0.98785178  0.74809370  1
  Br  Br10  1  0.70503450  0.19102360  0.04325012  1
  Br  Br11  1  0.79496550  0.69102360  0.45674988  1
  Br  Br12  1  0.18910785  0.28890740  0.96116655  1
  Br  Br13  1  0.31089215  0.78890740  0.53883345  1
  Br  Br14  1  0.81089215  0.71109260  0.03883345  1
  Br  Br15  1  0.68910785  0.21109260  0.46116655  1
  Br  Br16  1  0.20503450  0.30897640  0.54325012  1
  Br  Br17  1  0.08031922  0.01214822  0.25190630  1
