# generated using pymatgen
data_LaY(SO4)3
_symmetry_space_group_name_H-M   'P 1'
_cell_length_a   9.47570899
_cell_length_b   9.47570863
_cell_length_c   24.31963682
_cell_angle_alpha   90.00000000
_cell_angle_beta   90.00000000
_cell_angle_gamma   120.00000123
_symmetry_Int_Tables_number   1
_chemical_formula_structural   LaY(SO4)3
_chemical_formula_sum   'La6 Y6 S18 O72'
_cell_volume   1891.08532282
_cell_formula_units_Z   6
loop_
 _symmetry_equiv_pos_site_id
 _symmetry_equiv_pos_as_xyz
  1  'x, y, z'
loop_
 _atom_site_type_symbol
 _atom_site_label
 _atom_site_symmetry_multiplicity
 _atom_site_fract_x
 _atom_site_fract_y
 _atom_site_fract_z
 _atom_site_occupancy
  La  La0  1  -0.00000000  0.00000000  0.85300737  1
  La  La1  1  0.66666700  0.33333300  0.98032563  1
  La  La2  1  0.33333300  0.66666700  0.02472988  1
  La  La3  1  0.33333300  0.66666700  0.52245135  1
  La  La4  1  0.33333300  0.66666700  0.31088265  1
  La  La5  1  0.33333300  0.66666700  0.80860412  1
  Y  Y6  1  -0.00000000  0.00000000  0.35332238  1
  Y  Y7  1  -0.00000000  0.00000000  0.64401956  1
  Y  Y8  1  -0.00000000  0.00000000  0.14633626  1
  Y  Y9  1  0.66666700  0.33333300  0.68699674  1
  Y  Y10  1  0.66666700  0.33333300  0.18931344  1
  Y  Y11  1  0.66666700  0.33333300  0.48001062  1
  S  S12  1  0.28760323  0.00639068  0.24888315  1
  S  S13  1  0.71878745  0.71239677  0.24888315  1
  S  S14  1  0.99360932  0.28121255  0.24888315  1
  S  S15  1  0.29317847  0.28639475  0.74630465  1
  S  S16  1  0.99321628  0.70682153  0.74630465  1
  S  S17  1  0.71360525  0.00678372  0.74630465  1
  S  S18  1  0.94787955  0.32694232  0.58444985  1
  S  S19  1  0.37906377  0.05212045  0.58444985  1
  S  S20  1  0.67305768  0.62093623  0.58444985  1
  S  S21  1  0.95306175  0.62651147  0.08702835  1
  S  S22  1  0.67345072  0.04693825  0.08702835  1
  S  S23  1  0.37348853  0.32654928  0.08702835  1
  S  S24  1  0.62429680  0.66666700  0.91666700  1
  S  S25  1  0.04236920  0.37570320  0.91666700  1
  S  S26  1  0.33333300  0.95763080  0.91666700  1
  S  S27  1  0.63243819  0.96577219  0.41666700  1
  S  S28  1  0.33333300  0.36756181  0.41666700  1
  S  S29  1  0.03422781  0.66666700  0.41666700  1
  O  O30  1  0.20994701  0.02863492  0.29864270  1
  O  O31  1  0.81868791  0.79005299  0.29864270  1
  O  O32  1  0.97136508  0.18131209  0.29864270  1
  O  O33  1  0.22229105  0.19030587  0.79724065  1
  O  O34  1  0.96801481  0.77770895  0.79724065  1
  O  O35  1  0.80969413  0.03198519  0.79724065  1
  O  O36  1  0.79842560  0.98375256  0.69889491  1
  O  O37  1  0.18532695  0.20157440  0.69889491  1
  O  O38  1  0.01624744  0.81467305  0.69889491  1
  O  O39  1  0.79816467  0.81562785  0.20012284  1
  O  O40  1  0.01746318  0.20183533  0.20012284  1
  O  O41  1  0.18437215  0.98253682  0.20012284  1
  O  O42  1  0.86850233  0.35079618  0.63321016  1
  O  O43  1  0.48229485  0.13149767  0.63321016  1
  O  O44  1  0.64920382  0.51770515  0.63321016  1
  O  O45  1  0.86824140  0.51865995  0.13443809  1
  O  O46  1  0.65041956  0.13175860  0.13443809  1
  O  O47  1  0.48134005  0.34958044  0.13443809  1
  O  O48  1  0.44437595  0.30134781  0.03609235  1
  O  O49  1  0.85697287  0.55562405  0.03609235  1
  O  O50  1  0.69865219  0.14302713  0.03609235  1
  O  O51  1  0.45671999  0.15202091  0.53469030  1
  O  O52  1  0.69530192  0.54328001  0.53469030  1
  O  O53  1  0.84797909  0.30469808  0.53469030  1
  O  O54  1  0.54519446  0.68739522  0.96617486  1
  O  O55  1  0.14219976  0.45480554  0.96617486  1
  O  O56  1  0.31260478  0.85780024  0.96617486  1
  O  O57  1  0.55642377  0.86020487  0.46548542  1
  O  O58  1  0.30378010  0.44357623  0.46548542  1
  O  O59  1  0.13979513  0.69621990  0.46548542  1
  O  O60  1  0.11024223  0.63711410  0.36784858  1
  O  O61  1  0.52687087  0.88975777  0.36784858  1
  O  O62  1  0.36288590  0.47312913  0.36784858  1
  O  O63  1  0.12147154  0.47553376  0.86715914  1
  O  O64  1  0.35406122  0.87852846  0.86715914  1
  O  O65  1  0.52446624  0.64593878  0.86715914  1
  O  O66  1  0.01554571  0.81112344  0.40625716  1
  O  O67  1  0.79557773  0.98445429  0.40625716  1
  O  O68  1  0.18887656  0.20442227  0.40625716  1
  O  O69  1  0.02442826  0.21205723  0.91018104  1
  O  O70  1  0.18762898  0.97557174  0.91018104  1
  O  O71  1  0.78794277  0.81237102  0.91018104  1
  O  O72  1  0.96608725  0.18145371  0.59298195  1
  O  O73  1  0.21536647  0.03391275  0.59298195  1
  O  O74  1  0.81854629  0.78463353  0.59298195  1
  O  O75  1  0.97271736  0.78987895  0.09611235  1
  O  O76  1  0.81716159  0.02728264  0.09611235  1
  O  O77  1  0.21012105  0.18283841  0.09611235  1
  O  O78  1  0.69394964  0.15049459  0.73722065  1
  O  O79  1  0.45654595  0.30605036  0.73722065  1
  O  O80  1  0.84950541  0.54345405  0.73722065  1
  O  O81  1  0.70057975  0.54869947  0.24035105  1
  O  O82  1  0.84812071  0.29942025  0.24035105  1
  O  O83  1  0.45130053  0.15187929  0.24035105  1
  O  O84  1  0.64223874  0.52096198  0.92315196  1
  O  O85  1  0.87872423  0.35776126  0.92315196  1
  O  O86  1  0.47903802  0.12127577  0.92315196  1
  O  O87  1  0.65112129  0.12891073  0.42707584  1
  O  O88  1  0.47779044  0.34887871  0.42707584  1
  O  O89  1  0.87108927  0.52220956  0.42707584  1
  O  O90  1  0.35679350  0.47310755  0.08054441  1
  O  O91  1  0.11631305  0.64320650  0.08054441  1
  O  O92  1  0.52689245  0.88368695  0.08054441  1
  O  O93  1  0.36027323  0.88806865  0.57724567  1
  O  O94  1  0.52779442  0.63972677  0.57724567  1
  O  O95  1  0.11193135  0.47220558  0.57724567  1
  O  O96  1  0.30639277  0.86112842  0.25608833  1
  O  O97  1  0.55473465  0.69360723  0.25608833  1
  O  O98  1  0.13887158  0.44526535  0.25608833  1
  O  O99  1  0.30987250  0.44964705  0.75278959  1
  O  O100  1  0.13977355  0.69012750  0.75278959  1
  O  O101  1  0.55035295  0.86022645  0.75278959  1
