# generated using pymatgen
data_Na2TaZn(PO4)3
_symmetry_space_group_name_H-M   'P 1'
_cell_length_a   8.87984860
_cell_length_b   8.83147038
_cell_length_c   22.44546123
_cell_angle_alpha   89.99999999
_cell_angle_beta   90.20052440
_cell_angle_gamma   119.81994382
_symmetry_Int_Tables_number   1
_chemical_formula_structural   Na2TaZn(PO4)3
_chemical_formula_sum   'Na12 Ta6 Zn6 P18 O72'
_cell_volume   1527.14165565
_cell_formula_units_Z   6
loop_
 _symmetry_equiv_pos_site_id
 _symmetry_equiv_pos_as_xyz
  1  'x, y, z'
loop_
 _atom_site_type_symbol
 _atom_site_label
 _atom_site_symmetry_multiplicity
 _atom_site_fract_x
 _atom_site_fract_y
 _atom_site_fract_z
 _atom_site_occupancy
  Na  Na0  1  0.98764048  0.63085346  0.24705007  1
  Na  Na1  1  0.98764048  0.35678702  0.74705007  1
  Na  Na2  1  0.65430748  0.96418646  0.58038307  1
  Na  Na3  1  0.65430748  0.69012002  0.08038307  1
  Na  Na4  1  0.32097348  0.29752046  0.91371707  1
  Na  Na5  1  0.32097348  0.02345402  0.41371707  1
  Na  Na6  1  0.99787192  0.00063317  0.49233376  1
  Na  Na7  1  0.99787192  0.99723875  0.99233376  1
  Na  Na8  1  0.66453892  0.33396617  0.82566676  1
  Na  Na9  1  0.66453892  0.33057175  0.32566676  1
  Na  Na10  1  0.33120492  0.66730017  0.15900076  1
  Na  Na11  1  0.33120492  0.66390575  0.65900076  1
  Ta  Ta12  1  0.00442411  0.99820364  0.64653801  1
  Ta  Ta13  1  0.00442411  0.00622047  0.14653801  1
  Ta  Ta14  1  0.67109111  0.33153664  0.97987101  1
  Ta  Ta15  1  0.67109111  0.33955347  0.47987101  1
  Ta  Ta16  1  0.33775711  0.66487064  0.31320501  1
  Ta  Ta17  1  0.33775711  0.67288747  0.81320501  1
  Zn  Zn18  1  0.99346026  0.00045182  0.35078129  1
  Zn  Zn19  1  0.99346026  0.99300844  0.85078129  1
  Zn  Zn20  1  0.66012726  0.33378482  0.68411429  1
  Zn  Zn21  1  0.66012726  0.32634144  0.18411429  1
  Zn  Zn22  1  0.32679326  0.66711882  0.01744829  1
  Zn  Zn23  1  0.32679326  0.65967544  0.51744829  1
  P  P24  1  0.29535039  0.00544743  0.25326077  1
  P  P25  1  0.71098915  0.70995119  0.25072208  1
  P  P26  1  0.99767300  0.28981356  0.25260686  1
  P  P27  1  0.29535039  0.28990295  0.75326077  1
  P  P28  1  0.99767300  0.70785944  0.75260686  1
  P  P29  1  0.71098915  0.00103796  0.75072208  1
  P  P30  1  0.96201739  0.33878043  0.58659377  1
  P  P31  1  0.37765615  0.04328419  0.58405508  1
  P  P32  1  0.66434000  0.62314656  0.58593986  1
  P  P33  1  0.96201739  0.62323595  0.08659377  1
  P  P34  1  0.66434000  0.04119244  0.08593986  1
  P  P35  1  0.37765615  0.33437096  0.08405508  1
  P  P36  1  0.62868339  0.67211443  0.91992777  1
  P  P37  1  0.04432215  0.37661819  0.91738908  1
  P  P38  1  0.33100600  0.95648056  0.91927386  1
  P  P39  1  0.62868339  0.95656995  0.41992777  1
  P  P40  1  0.33100600  0.37452644  0.41927386  1
  P  P41  1  0.04432215  0.66770496  0.41738908  1
  O  O42  1  0.21289555  0.02257699  0.30948577  1
  O  O43  1  0.82464258  0.79201039  0.30428702  1
  O  O44  1  0.97524495  0.18382601  0.30670608  1
  O  O45  1  0.21289555  0.19031856  0.80948577  1
  O  O46  1  0.97524495  0.79141893  0.80670608  1
  O  O47  1  0.82464258  0.03263219  0.80428702  1
  O  O48  1  0.79595197  0.96816234  0.69281369  1
  O  O49  1  0.16666455  0.19807258  0.69725185  1
  O  O50  1  0.02874331  0.82794894  0.69520634  1
  O  O51  1  0.79595197  0.82778964  0.19281369  1
  O  O52  1  0.02874331  0.20079437  0.19520634  1
  O  O53  1  0.16666455  0.96859197  0.19725185  1
  O  O54  1  0.87956255  0.35590999  0.64281877  1
  O  O55  1  0.49130958  0.12534339  0.63762002  1
  O  O56  1  0.64191195  0.51715901  0.64003908  1
  O  O57  1  0.87956255  0.52365156  0.14281877  1
  O  O58  1  0.64191195  0.12475193  0.14003908  1
  O  O59  1  0.49130958  0.36596519  0.13762002  1
  O  O60  1  0.46261897  0.30149534  0.02614669  1
  O  O61  1  0.83333155  0.53140558  0.03058485  1
  O  O62  1  0.69541031  0.16128194  0.02853934  1
  O  O63  1  0.46261897  0.16112264  0.52614669  1
  O  O64  1  0.69541031  0.53412737  0.52853934  1
  O  O65  1  0.83333155  0.30192497  0.53058485  1
  O  O66  1  0.54622855  0.68924399  0.97615277  1
  O  O67  1  0.15797558  0.45867739  0.97095402  1
  O  O68  1  0.30857795  0.85049301  0.97337308  1
  O  O69  1  0.54622855  0.85698556  0.47615277  1
  O  O70  1  0.30857795  0.45808593  0.47337308  1
  O  O71  1  0.15797558  0.69929919  0.47095402  1
  O  O72  1  0.12928497  0.63482934  0.35948069  1
  O  O73  1  0.49999755  0.86473958  0.36391885  1
  O  O74  1  0.36207631  0.49461594  0.36187334  1
  O  O75  1  0.12928497  0.49445664  0.85948069  1
  O  O76  1  0.36207631  0.86746137  0.86187334  1
  O  O77  1  0.49999755  0.63525897  0.86391885  1
  O  O78  1  0.01938796  0.82475347  0.40923542  1
  O  O79  1  0.80851478  0.98481558  0.41072665  1
  O  O80  1  0.18330869  0.18860473  0.41072741  1
  O  O81  1  0.01938796  0.19463449  0.90923542  1
  O  O82  1  0.18330869  0.99470395  0.91072741  1
  O  O83  1  0.80851478  0.82369919  0.91072665  1
  O  O84  1  0.96538548  0.15823263  0.58976078  1
  O  O85  1  0.19332224  0.03190782  0.59062475  1
  O  O86  1  0.83852866  0.81023257  0.58988138  1
  O  O87  1  0.96538548  0.80715284  0.08976078  1
  O  O88  1  0.83852866  0.02829609  0.08988138  1
  O  O89  1  0.19332224  0.16141442  0.09062475  1
  O  O90  1  0.68605496  0.15808647  0.74256842  1
  O  O91  1  0.47518178  0.31814858  0.74405965  1
  O  O92  1  0.84997569  0.52193773  0.74406041  1
  O  O93  1  0.68605496  0.52796749  0.24256842  1
  O  O94  1  0.84997569  0.32803695  0.24406041  1
  O  O95  1  0.47518178  0.15703219  0.24405965  1
  O  O96  1  0.63205248  0.49156563  0.92309378  1
  O  O97  1  0.85998924  0.36524082  0.92395775  1
  O  O98  1  0.50519566  0.14356557  0.92321438  1
  O  O99  1  0.63205248  0.14048584  0.42309378  1
  O  O100  1  0.50519566  0.36162909  0.42321438  1
  O  O101  1  0.85998924  0.49474742  0.42395775  1
  O  O102  1  0.35272096  0.49142047  0.07590242  1
  O  O103  1  0.14184778  0.65148258  0.07739365  1
  O  O104  1  0.51664169  0.85527173  0.07739441  1
  O  O105  1  0.35272096  0.86130149  0.57590242  1
  O  O106  1  0.51664169  0.66137095  0.57739441  1
  O  O107  1  0.14184778  0.49036619  0.57739365  1
  O  O108  1  0.29871848  0.82489963  0.25642778  1
  O  O109  1  0.52665524  0.69857482  0.25729175  1
  O  O110  1  0.17186166  0.47689957  0.25654838  1
  O  O111  1  0.29871848  0.47381984  0.75642778  1
  O  O112  1  0.17186166  0.69496309  0.75654838  1
  O  O113  1  0.52665524  0.82808142  0.75729175  1
