# generated using pymatgen
data_SrSnO3
_symmetry_space_group_name_H-M   'P 1'
_cell_length_a   5.73820206
_cell_length_b   5.72649997
_cell_length_c   8.10161313
_cell_angle_alpha   90.00000000
_cell_angle_beta   90.00000000
_cell_angle_gamma   90.00000000
_symmetry_Int_Tables_number   1
_chemical_formula_structural   SrSnO3
_chemical_formula_sum   'Sr4 Sn4 O12'
_cell_volume   266.21749994
_cell_formula_units_Z   4
loop_
 _symmetry_equiv_pos_site_id
 _symmetry_equiv_pos_as_xyz
  1  'x, y, z'
loop_
 _atom_site_type_symbol
 _atom_site_label
 _atom_site_symmetry_multiplicity
 _atom_site_fract_x
 _atom_site_fract_y
 _atom_site_fract_z
 _atom_site_occupancy
  Sr  Sr0  1  0.47269566  0.49400246  0.75000000  1
  Sr  Sr1  1  0.97269566  0.00599754  0.75000000  1
  Sr  Sr2  1  0.02730334  0.99400346  0.25000000  1
  Sr  Sr3  1  0.52730334  0.50599654  0.25000000  1
  Sn  Sn4  1  0.50000100  0.00000100  -0.00000000  1
  Sn  Sn5  1  -0.00000000  0.49999900  0.50000000  1
  Sn  Sn6  1  -0.00000000  0.49999900  -0.00000000  1
  Sn  Sn7  1  0.50000000  0.00000100  0.50000000  1
  O  O8  1  0.71733019  0.28296128  0.53521656  1
  O  O9  1  0.21733019  0.21703872  0.96478344  1
  O  O10  1  0.78266981  0.78296128  0.46478444  1
  O  O11  1  0.28266981  0.71703872  0.03521556  1
  O  O12  1  0.28266981  0.71703872  0.46478444  1
  O  O13  1  0.78266981  0.78296028  0.03521556  1
  O  O14  1  0.21733019  0.21703872  0.53521656  1
  O  O15  1  0.71733019  0.28296128  0.96478344  1
  O  O16  1  0.51339140  0.93351832  0.75000000  1
  O  O17  1  0.01339140  0.56648168  0.75000000  1
  O  O18  1  0.98660860  0.43351832  0.25000000  1
  O  O19  1  0.48660860  0.06648168  0.25000000  1
