# generated using pymatgen
data_Na6Mg2Nb4Si6(SO12)3
_symmetry_space_group_name_H-M   'P 1'
_cell_length_a   8.98081798
_cell_length_b   8.98081768
_cell_length_c   22.70048472
_cell_angle_alpha   90.00000000
_cell_angle_beta   90.00000000
_cell_angle_gamma   120.00000111
_symmetry_Int_Tables_number   1
_chemical_formula_structural   Na6Mg2Nb4Si6(SO12)3
_chemical_formula_sum   'Na12 Mg4 Nb8 Si12 S6 O72'
_cell_volume   1585.61421908
_cell_formula_units_Z   2
loop_
 _symmetry_equiv_pos_site_id
 _symmetry_equiv_pos_as_xyz
  1  'x, y, z'
loop_
 _atom_site_type_symbol
 _atom_site_label
 _atom_site_symmetry_multiplicity
 _atom_site_fract_x
 _atom_site_fract_y
 _atom_site_fract_z
 _atom_site_occupancy
  Na  Na0  1  0.96700308  0.67916496  0.91642497  1
  Na  Na1  1  0.71216089  0.03299692  0.91642497  1
  Na  Na2  1  0.32083504  0.28783911  0.91642497  1
  Na  Na3  1  0.96700308  0.28783911  0.41642497  1
  Na  Na4  1  0.32083504  0.03299692  0.41642497  1
  Na  Na5  1  0.71216089  0.67916496  0.41642497  1
  Na  Na6  1  -0.00000000  0.00000000  0.49257576  1
  Na  Na7  1  -0.00000000  0.00000000  0.99257576  1
  Na  Na8  1  0.66666700  0.33333300  0.82749888  1
  Na  Na9  1  0.66666700  0.33333300  0.32749888  1
  Na  Na10  1  0.33333300  0.66666700  0.16218340  1
  Na  Na11  1  0.33333300  0.66666700  0.66218340  1
  Mg  Mg12  1  -0.00000000  0.00000000  0.35275902  1
  Mg  Mg13  1  -0.00000000  0.00000000  0.85275902  1
  Mg  Mg14  1  0.66666700  0.33333300  0.68079202  1
  Mg  Mg15  1  0.66666700  0.33333300  0.18079202  1
  Nb  Nb16  1  -0.00000000  0.00000000  0.63909661  1
  Nb  Nb17  1  -0.00000000  0.00000000  0.13909661  1
  Nb  Nb18  1  0.66666700  0.33333300  0.98290148  1
  Nb  Nb19  1  0.66666700  0.33333300  0.48290148  1
  Nb  Nb20  1  0.33333300  0.66666700  0.02315392  1
  Nb  Nb21  1  0.33333300  0.66666700  0.52315392  1
  Nb  Nb22  1  0.33333300  0.66666700  0.31492948  1
  Nb  Nb23  1  0.33333300  0.66666700  0.81492948  1
  Si  Si24  1  0.95475244  0.33943254  0.58719723  1
  Si  Si25  1  0.38468110  0.04524756  0.58719723  1
  Si  Si26  1  0.66056746  0.61531890  0.58719723  1
  Si  Si27  1  0.95475244  0.61531890  0.08719723  1
  Si  Si28  1  0.66056746  0.04524756  0.08719723  1
  Si  Si29  1  0.38468110  0.33943254  0.08719723  1
  Si  Si30  1  0.62389749  0.66557507  0.91690392  1
  Si  Si31  1  0.04167659  0.37610251  0.91690392  1
  Si  Si32  1  0.33442493  0.95832341  0.91690392  1
  Si  Si33  1  0.62389749  0.95832341  0.41690392  1
  Si  Si34  1  0.33442493  0.37610251  0.41690392  1
  Si  Si35  1  0.04167659  0.66557507  0.41690392  1
  S  S36  1  0.29128155  0.00101135  0.25139813  1
  S  S37  1  0.70972980  0.70871845  0.25139813  1
  S  S38  1  0.99898865  0.29027020  0.25139813  1
  S  S39  1  0.29128155  0.29027020  0.75139813  1
  S  S40  1  0.99898865  0.70871845  0.75139813  1
  S  S41  1  0.70972980  0.00101135  0.75139813  1
  O  O42  1  0.20703535  0.01189073  0.30603446  1
  O  O43  1  0.80485538  0.79296465  0.30603446  1
  O  O44  1  0.98810927  0.19514462  0.30603446  1
  O  O45  1  0.20703535  0.19514462  0.80603446  1
  O  O46  1  0.98810927  0.79296465  0.80603446  1
  O  O47  1  0.80485538  0.01189073  0.80603446  1
  O  O48  1  0.79966517  0.98069006  0.69912895  1
  O  O49  1  0.18102489  0.20033483  0.69912895  1
  O  O50  1  0.01930994  0.81897511  0.69912895  1
  O  O51  1  0.79966517  0.81897511  0.19912895  1
  O  O52  1  0.01930994  0.20033483  0.19912895  1
  O  O53  1  0.18102489  0.98069006  0.19912895  1
  O  O54  1  0.87968009  0.37187838  0.64452478  1
  O  O55  1  0.49219929  0.12031991  0.64452478  1
  O  O56  1  0.62812162  0.50780071  0.64452478  1
  O  O57  1  0.87968009  0.50780071  0.14452478  1
  O  O58  1  0.62812162  0.12031991  0.14452478  1
  O  O59  1  0.49219929  0.37187838  0.14452478  1
  O  O60  1  0.46485443  0.30199074  0.02507838  1
  O  O61  1  0.83713731  0.53514557  0.02507838  1
  O  O62  1  0.69800926  0.16286269  0.02507838  1
  O  O63  1  0.46485443  0.16286269  0.52507838  1
  O  O64  1  0.69800926  0.53514557  0.52507838  1
  O  O65  1  0.83713731  0.30199074  0.52507838  1
  O  O66  1  0.52708906  0.69628223  0.97132481  1
  O  O67  1  0.16919218  0.47291094  0.97132481  1
  O  O68  1  0.30371777  0.83080782  0.97132481  1
  O  O69  1  0.52708906  0.83080782  0.47132481  1
  O  O70  1  0.30371777  0.47291094  0.47132481  1
  O  O71  1  0.16919218  0.69628223  0.47132481  1
  O  O72  1  0.13823836  0.63106090  0.35867637  1
  O  O73  1  0.49282154  0.86176164  0.35867637  1
  O  O74  1  0.36893910  0.50717846  0.35867637  1
  O  O75  1  0.13823836  0.50717846  0.85867637  1
  O  O76  1  0.36893910  0.86176164  0.85867637  1
  O  O77  1  0.49282154  0.63106090  0.85867637  1
  O  O78  1  0.02038019  0.83152036  0.40974951  1
  O  O79  1  0.81114018  0.97961981  0.40974951  1
  O  O80  1  0.16847964  0.18885982  0.40974951  1
  O  O81  1  0.02038019  0.18885982  0.90974951  1
  O  O82  1  0.16847964  0.97961981  0.90974951  1
  O  O83  1  0.81114018  0.83152036  0.90974951  1
  O  O84  1  0.97536051  0.16267430  0.59349368  1
  O  O85  1  0.18731379  0.02463949  0.59349368  1
  O  O86  1  0.83732570  0.81268621  0.59349368  1
  O  O87  1  0.97536051  0.81268621  0.09349368  1
  O  O88  1  0.83732570  0.02463949  0.09349368  1
  O  O89  1  0.18731379  0.16267430  0.09349368  1
  O  O90  1  0.68687052  0.15007228  0.74733318  1
  O  O91  1  0.46320275  0.31312948  0.74733318  1
  O  O92  1  0.84992772  0.53679725  0.74733318  1
  O  O93  1  0.68687052  0.53679725  0.24733318  1
  O  O94  1  0.84992772  0.31312948  0.24733318  1
  O  O95  1  0.46320275  0.15007228  0.24733318  1
  O  O96  1  0.63083910  0.48673199  0.92063285  1
  O  O97  1  0.85589388  0.36916090  0.92063285  1
  O  O98  1  0.51326801  0.14410612  0.92063285  1
  O  O99  1  0.63083910  0.14410612  0.42063285  1
  O  O100  1  0.51326801  0.36916090  0.42063285  1
  O  O101  1  0.85589388  0.48673199  0.42063285  1
  O  O102  1  0.34710772  0.49588149  0.07333569  1
  O  O103  1  0.14877277  0.65289228  0.07333569  1
  O  O104  1  0.50411851  0.85122723  0.07333569  1
  O  O105  1  0.34710772  0.85122723  0.57333569  1
  O  O106  1  0.50411851  0.65289228  0.57333569  1
  O  O107  1  0.14877277  0.49588149  0.57333569  1
  O  O108  1  0.30178030  0.83589368  0.25346655  1
  O  O109  1  0.53411238  0.69821970  0.25346655  1
  O  O110  1  0.16410632  0.46588762  0.25346655  1
  O  O111  1  0.30178030  0.46588762  0.75346655  1
  O  O112  1  0.16410632  0.69821970  0.75346655  1
  O  O113  1  0.53411238  0.83589368  0.75346655  1
