# generated using pymatgen
data_Na10Mg4Ta4Si7S5O48
_symmetry_space_group_name_H-M   'P 1'
_cell_length_a   17.94691498
_cell_length_b   9.03573573
_cell_length_c   22.43078900
_cell_angle_alpha   89.90924730
_cell_angle_beta   89.70919126
_cell_angle_gamma   120.16617695
_symmetry_Int_Tables_number   1
_chemical_formula_structural   Na10Mg4Ta4Si7S5O48
_chemical_formula_sum   'Na30 Mg12 Ta12 Si21 S15 O144'
_cell_volume   3144.76559450
_cell_formula_units_Z   3
loop_
 _symmetry_equiv_pos_site_id
 _symmetry_equiv_pos_as_xyz
  1  'x, y, z'
loop_
 _atom_site_type_symbol
 _atom_site_label
 _atom_site_symmetry_multiplicity
 _atom_site_fract_x
 _atom_site_fract_y
 _atom_site_fract_z
 _atom_site_occupancy
  Na  Na0  1  0.32106724  0.02152522  0.25281785  1
  Na  Na1  1  0.81946640  0.02316513  0.24469019  1
  Na  Na2  1  0.17587997  0.33965674  0.25386307  1
  Na  Na3  1  0.67711212  0.34405105  0.25381913  1
  Na  Na4  1  0.82210158  0.62232199  0.75205480  1
  Na  Na5  1  0.49751235  0.36710679  0.73813824  1
  Na  Na6  1  0.17634746  0.00808039  0.75385933  1
  Na  Na7  1  0.67422029  0.01083770  0.75389719  1
  Na  Na8  1  0.65489379  0.94984725  0.07560347  1
  Na  Na9  1  0.83073120  0.70065851  0.07039976  1
  Na  Na10  1  0.00884875  0.34090640  0.08610664  1
  Na  Na11  1  0.49005851  0.69617752  0.91108336  1
  Na  Na12  1  0.98953976  0.69408046  0.91273072  1
  Na  Na13  1  0.16305160  0.29380243  0.90506182  1
  Na  Na14  1  0.49226954  0.28652102  0.41450868  1
  Na  Na15  1  0.99182334  0.28552840  0.41466764  1
  Na  Na16  1  0.16317784  0.03231429  0.40729204  1
  Na  Na17  1  0.66299510  0.03228361  0.40700043  1
  Na  Na18  1  0.99078797  0.00494681  0.49508521  1
  Na  Na19  1  0.49099101  0.00468436  0.49473745  1
  Na  Na20  1  0.99540581  0.98072810  0.99047434  1
  Na  Na21  1  0.49359400  0.99145597  0.98907299  1
  Na  Na22  1  0.33080088  0.35391078  0.82161720  1
  Na  Na23  1  0.83165273  0.34053012  0.82713884  1
  Na  Na24  1  0.33809357  0.33800108  0.32461691  1
  Na  Na25  1  0.83793096  0.33815341  0.32414943  1
  Na  Na26  1  0.15437292  0.68002096  0.16138759  1
  Na  Na27  1  0.64976751  0.66319763  0.15950069  1
  Na  Na28  1  0.15127583  0.62927018  0.66029531  1
  Na  Na29  1  0.65608440  0.64762204  0.65682837  1
  Mg  Mg30  1  0.00223140  0.01016866  0.35285030  1
  Mg  Mg31  1  0.50111417  0.01044918  0.35332636  1
  Mg  Mg32  1  0.00156705  0.99268216  0.85211302  1
  Mg  Mg33  1  0.50357024  0.99385732  0.85331998  1
  Mg  Mg34  1  0.33779400  0.35268001  0.68598495  1
  Mg  Mg35  1  0.84045006  0.34557415  0.68621019  1
  Mg  Mg36  1  0.33903624  0.33295243  0.18618266  1
  Mg  Mg37  1  0.83873509  0.32790241  0.18553833  1
  Mg  Mg38  1  0.16901064  0.68611242  0.01883681  1
  Mg  Mg39  1  0.66807200  0.67663655  0.01849284  1
  Mg  Mg40  1  0.16643730  0.65169805  0.52021748  1
  Mg  Mg41  1  0.66591316  0.65096798  0.51989327  1
  Ta  Ta42  1  0.00730648  0.01459257  0.64677989  1
  Ta  Ta43  1  0.50465461  0.00893080  0.64639396  1
  Ta  Ta44  1  0.00620646  0.00282239  0.14543336  1
  Ta  Ta45  1  0.50334026  0.99795763  0.14771768  1
  Ta  Ta46  1  0.33659085  0.34307127  0.97728949  1
  Ta  Ta47  1  0.83558242  0.33479804  0.97856654  1
  Ta  Ta48  1  0.33452019  0.32708618  0.48026268  1
  Ta  Ta49  1  0.83463476  0.32603634  0.48019717  1
  Ta  Ta50  1  0.16726018  0.66563578  0.31412059  1
  Ta  Ta51  1  0.66800600  0.66697051  0.31344072  1
  Ta  Ta52  1  0.17028787  0.66933030  0.81205705  1
  Ta  Ta53  1  0.66996510  0.67360501  0.81496720  1
  Si  Si54  1  0.14749800  0.99873026  0.25323766  1
  Si  Si55  1  0.64707198  0.99967775  0.25392938  1
  Si  Si56  1  -0.00012131  0.29610162  0.25238312  1
  Si  Si57  1  0.49892682  0.29523771  0.25255308  1
  Si  Si58  1  0.14917627  0.29727501  0.75359727  1
  Si  Si59  1  0.64727173  0.29387970  0.75224678  1
  Si  Si60  1  0.99939807  0.70388949  0.75208290  1
  Si  Si61  1  0.49716582  0.70404794  0.75369055  1
  Si  Si62  1  0.48265034  0.33797641  0.58816804  1
  Si  Si63  1  0.98342068  0.33940281  0.58671117  1
  Si  Si64  1  0.47951569  0.62321046  0.08632255  1
  Si  Si65  1  0.98240645  0.62553729  0.08463433  1
  Si  Si66  1  0.83205557  0.03692126  0.08733033  1
  Si  Si67  1  0.31196603  0.67802998  0.92146872  1
  Si  Si68  1  0.81424250  0.67076640  0.92125433  1
  Si  Si69  1  0.16669671  0.95790096  0.91859154  1
  Si  Si70  1  0.66726523  0.96571867  0.92077322  1
  Si  Si71  1  0.31245302  0.94799213  0.42136568  1
  Si  Si72  1  0.81232401  0.94753781  0.42124373  1
  Si  Si73  1  0.16738777  0.37412111  0.41944015  1
  Si  Si74  1  0.66739255  0.37452045  0.41936457  1
  S  S75  1  0.35585160  0.71160660  0.25150294  1
  S  S76  1  0.85678294  0.71321121  0.25049192  1
  S  S77  1  0.35591951  0.99387409  0.75100075  1
  S  S78  1  0.85671040  0.00120508  0.75070577  1
  S  S79  1  0.18817437  0.04220050  0.58521078  1
  S  S80  1  0.68743889  0.04141820  0.58554833  1
  S  S81  1  0.33512552  0.62582751  0.58422905  1
  S  S82  1  0.83502398  0.62630474  0.58524452  1
  S  S83  1  0.33435886  0.04327572  0.08557387  1
  S  S84  1  0.19000611  0.33396328  0.08484366  1
  S  S85  1  0.68654777  0.32989579  0.08495488  1
  S  S86  1  0.02159157  0.37781389  0.91774928  1
  S  S87  1  0.52311917  0.37685015  0.91781066  1
  S  S88  1  0.02075894  0.66495045  0.41811531  1
  S  S89  1  0.52105322  0.66476355  0.41809563  1
  O  O90  1  0.10412612  0.02004708  0.31204825  1
  O  O91  1  0.59942133  0.01435044  0.31126932  1
  O  O92  1  0.40669923  0.78987913  0.30407400  1
  O  O93  1  0.90815079  0.79206451  0.30293832  1
  O  O94  1  0.48594175  0.18298876  0.31090221  1
  O  O95  1  0.98828293  0.18234707  0.30985365  1
  O  O96  1  0.10384698  0.18646933  0.81173409  1
  O  O97  1  0.59733658  0.17377339  0.80633689  1
  O  O98  1  0.48809188  0.78690396  0.81336110  1
  O  O99  1  0.98572791  0.78996690  0.81021022  1
  O  O100  1  0.40770333  0.02068930  0.80306500  1
  O  O101  1  0.90714081  0.02447019  0.80371448  1
  O  O102  1  0.39691417  0.97029941  0.69549248  1
  O  O103  1  0.89708162  0.97153615  0.69613891  1
  O  O104  1  0.08295858  0.19654717  0.69374825  1
  O  O105  1  0.58184466  0.19991287  0.69109100  1
  O  O106  1  0.01459733  0.84031447  0.69371340  1
  O  O107  1  0.51320978  0.83847827  0.69480530  1
  O  O108  1  0.39712052  0.82165838  0.19640785  1
  O  O109  1  0.89668002  0.82174029  0.19498690  1
  O  O110  1  0.01675239  0.19772182  0.19219296  1
  O  O111  1  0.51342544  0.18855328  0.19408755  1
  O  O112  1  0.08324474  0.97148544  0.19413794  1
  O  O113  1  0.58390418  0.97108080  0.19258363  1
  O  O114  1  0.43201081  0.33957674  0.64622599  1
  O  O115  1  0.92770907  0.33884341  0.64084677  1
  O  O116  1  0.23754324  0.12756103  0.63784563  1
  O  O117  1  0.73546840  0.12577551  0.63879615  1
  O  O118  1  0.32394415  0.52477729  0.63750670  1
  O  O119  1  0.82354143  0.52856864  0.64005786  1
  O  O120  1  0.42679192  0.51521915  0.14173423  1
  O  O121  1  0.92918969  0.50781945  0.13908531  1
  O  O122  1  0.32296971  0.11807721  0.14039810  1
  O  O123  1  0.81376840  0.11578530  0.14528353  1
  O  O124  1  0.23741775  0.34704314  0.13859298  1
  O  O125  1  0.73489561  0.35216969  0.13957016  1
  O  O126  1  0.23211433  0.30968394  0.02992297  1
  O  O127  1  0.73015231  0.30120011  0.03217946  1
  O  O128  1  0.41975963  0.52722885  0.02401796  1
  O  O129  1  0.92043357  0.53809899  0.02279191  1
  O  O130  1  0.34627888  0.15579210  0.03240341  1
  O  O131  1  0.84918167  0.17440180  0.02981292  1
  O  O132  1  0.23053150  0.15507266  0.52952375  1
  O  O133  1  0.73045931  0.15422477  0.53021914  1
  O  O134  1  0.34599687  0.53662076  0.52998848  1
  O  O135  1  0.84506871  0.53263973  0.53221456  1
  O  O136  1  0.41885521  0.31445283  0.52717607  1
  O  O137  1  0.92109943  0.31330311  0.52377951  1
  O  O138  1  0.25955663  0.66881685  0.97885181  1
  O  O139  1  0.76557884  0.67198087  0.98008105  1
  O  O140  1  0.06975831  0.44726578  0.97251977  1
  O  O141  1  0.57338979  0.45746925  0.97010101  1
  O  O142  1  0.14129599  0.82571361  0.97149584  1
  O  O143  1  0.65124071  0.84561237  0.97693769  1
  O  O144  1  0.25765424  0.84545866  0.47685481  1
  O  O145  1  0.75782662  0.84520566  0.47690263  1
  O  O146  1  0.14206412  0.46118597  0.47003006  1
  O  O147  1  0.64145818  0.45978943  0.47034608  1
  O  O148  1  0.07216586  0.69357353  0.47087609  1
  O  O149  1  0.57228061  0.69321166  0.47093050  1
  O  O150  1  0.06263876  0.63117686  0.36363582  1
  O  O151  1  0.56263802  0.63128819  0.36359587  1
  O  O152  1  0.25047432  0.86537948  0.35868958  1
  O  O153  1  0.74992505  0.86389171  0.35882641  1
  O  O154  1  0.18241211  0.49676965  0.35605973  1
  O  O155  1  0.68188698  0.49689008  0.35614798  1
  O  O156  1  0.06503856  0.49495704  0.86489379  1
  O  O157  1  0.56235251  0.49066039  0.86233145  1
  O  O158  1  0.18215347  0.86726131  0.85634405  1
  O  O159  1  0.67985429  0.86324269  0.85924258  1
  O  O160  1  0.24809564  0.63514780  0.86095997  1
  O  O161  1  0.75151539  0.64289180  0.85986699  1
  O  O162  1  0.00659847  0.80688955  0.40685622  1
  O  O163  1  0.50633194  0.80616530  0.40722705  1
  O  O164  1  0.40848276  0.98442631  0.41319501  1
  O  O165  1  0.90845432  0.98447819  0.41281832  1
  O  O166  1  0.09035467  0.17817334  0.41213298  1
  O  O167  1  0.59045289  0.17824055  0.41195342  1
  O  O168  1  0.00698282  0.20639910  0.90740588  1
  O  O169  1  0.50616844  0.20505466  0.90813765  1
  O  O170  1  0.09043670  0.00257262  0.91167217  1
  O  O171  1  0.58697047  0.99405774  0.91310616  1
  O  O172  1  0.40727263  0.83348100  0.91276435  1
  O  O173  1  0.90886069  0.83387266  0.91269046  1
  O  O174  1  0.48574065  0.15081837  0.58979235  1
  O  O175  1  0.98771242  0.15313949  0.58972191  1
  O  O176  1  0.10049009  0.03232559  0.58672650  1
  O  O177  1  0.59941616  0.03011109  0.58675836  1
  O  O178  1  0.41779454  0.79768270  0.58692092  1
  O  O179  1  0.91729824  0.79777109  0.58710384  1
  O  O180  1  0.48801676  0.82293184  0.09015813  1
  O  O181  1  0.98774424  0.81821395  0.09019518  1
  O  O182  1  0.41635707  0.03363544  0.08883579  1
  O  O183  1  0.92548440  0.03389958  0.09095391  1
  O  O184  1  0.10157620  0.16895889  0.08601835  1
  O  O185  1  0.59979897  0.16224614  0.08756220  1
  O  O186  1  0.33860900  0.13584662  0.74324936  1
  O  O187  1  0.83516316  0.13531100  0.74301837  1
  O  O188  1  0.23891124  0.30293487  0.74135099  1
  O  O189  1  0.74059560  0.31345389  0.74117480  1
  O  O190  1  0.42233671  0.50887798  0.74611289  1
  O  O191  1  0.91687929  0.51773452  0.74457752  1
  O  O192  1  0.33531722  0.53522787  0.24354429  1
  O  O193  1  0.83638494  0.53694328  0.24253262  1
  O  O194  1  0.41658920  0.31684497  0.24483417  1
  O  O195  1  0.91856958  0.32145999  0.24581253  1
  O  O196  1  0.24066847  0.16913549  0.24224437  1
  O  O197  1  0.73908468  0.17309782  0.24542316  1
  O  O198  1  0.32007227  0.48983995  0.92442567  1
  O  O199  1  0.82423543  0.49271482  0.92328641  1
  O  O200  1  0.43554395  0.37066517  0.92142673  1
  O  O201  1  0.93574738  0.37281410  0.92004673  1
  O  O202  1  0.25795451  0.14935884  0.92746795  1
  O  O203  1  0.75956124  0.15294444  0.92491410  1
  O  O204  1  0.32094536  0.15088655  0.42536432  1
  O  O205  1  0.81976162  0.14967784  0.42509826  1
  O  O206  1  0.25860693  0.36610763  0.42637634  1
  O  O207  1  0.75864507  0.36675467  0.42651906  1
  O  O208  1  0.43481058  0.49869896  0.42164874  1
  O  O209  1  0.93440132  0.49986443  0.42140330  1
  O  O210  1  0.17311661  0.47488117  0.07862671  1
  O  O211  1  0.67133905  0.47148725  0.07613876  1
  O  O212  1  0.07451781  0.63663738  0.07854070  1
  O  O213  1  0.57536286  0.65606576  0.07902844  1
  O  O214  1  0.26064916  0.87087436  0.07882835  1
  O  O215  1  0.75508304  0.84307769  0.07948557  1
  O  O216  1  0.17499569  0.87197496  0.57732887  1
  O  O217  1  0.67489872  0.87152926  0.57789339  1
  O  O218  1  0.26208320  0.65235312  0.57721580  1
  O  O219  1  0.76146199  0.65161268  0.57776675  1
  O  O220  1  0.07714910  0.50225940  0.57946546  1
  O  O221  1  0.57598006  0.50222444  0.58032439  1
  O  O222  1  0.15984318  0.82719352  0.25580371  1
  O  O223  1  0.65902396  0.82790766  0.25608988  1
  O  O224  1  0.27013422  0.70999729  0.25403952  1
  O  O225  1  0.77029228  0.70948948  0.25406066  1
  O  O226  1  0.09340674  0.48529748  0.25551339  1
  O  O227  1  0.59239104  0.48331852  0.25527779  1
  O  O228  1  0.15637599  0.48785560  0.75729241  1
  O  O229  1  0.65544466  0.48717143  0.75631626  1
  O  O230  1  0.09264994  0.70228503  0.75572444  1
  O  O231  1  0.59232106  0.70026606  0.75570540  1
  O  O232  1  0.26876834  0.83099398  0.75383130  1
  O  O233  1  0.76983062  0.83087783  0.75426381  1
