# generated using pymatgen
data_Na5Y4P5SO24
_symmetry_space_group_name_H-M   'P 1'
_cell_length_a   9.29724119
_cell_length_b   9.30767134
_cell_length_c   23.59254996
_cell_angle_alpha   90.15004599
_cell_angle_beta   90.07546106
_cell_angle_gamma   119.99850951
_symmetry_Int_Tables_number   1
_chemical_formula_structural   Na5Y4P5SO24
_chemical_formula_sum   'Na15 Y12 P15 S3 O72'
_cell_volume   1768.08723443
_cell_formula_units_Z   3
loop_
 _symmetry_equiv_pos_site_id
 _symmetry_equiv_pos_as_xyz
  1  'x, y, z'
loop_
 _atom_site_type_symbol
 _atom_site_label
 _atom_site_symmetry_multiplicity
 _atom_site_fract_x
 _atom_site_fract_y
 _atom_site_fract_z
 _atom_site_occupancy
  Na  Na0  1  0.64829891  0.00022945  0.25028774  1
  Na  Na1  1  0.99618752  0.36020770  0.74916900  1
  Na  Na2  1  0.36184778  0.99939893  0.74973390  1
  Na  Na3  1  0.02656157  0.69471424  0.58137384  1
  Na  Na4  1  0.66788898  0.97254662  0.58477933  1
  Na  Na5  1  0.30608542  0.97379149  0.08013357  1
  Na  Na6  1  0.02631049  0.33358004  0.08471341  1
  Na  Na7  1  0.98236252  0.66621033  0.91738130  1
  Na  Na8  1  0.70496189  0.67504921  0.41883914  1
  Na  Na9  1  0.02101451  0.01667901  0.50101923  1
  Na  Na10  1  0.00042147  0.01313179  0.99842991  1
  Na  Na11  1  0.65389348  0.32127274  0.83394646  1
  Na  Na12  1  0.69714747  0.34617356  0.33333398  1
  Na  Na13  1  0.33849371  0.63777369  0.16783474  1
  Na  Na14  1  0.35082602  0.65011044  0.66633212  1
  Y  Y15  1  0.99767133  0.99969404  0.35027677  1
  Y  Y16  1  0.00180417  0.00928318  0.85024958  1
  Y  Y17  1  0.00157598  0.00129563  0.65073497  1
  Y  Y18  1  0.98872476  0.99097224  0.15003025  1
  Y  Y19  1  0.66411744  0.34414573  0.68255466  1
  Y  Y20  1  0.67306548  0.35211786  0.18351955  1
  Y  Y21  1  0.65970539  0.32507627  0.98301828  1
  Y  Y22  1  0.66672921  0.32284057  0.48268389  1
  Y  Y23  1  0.33972339  0.66503821  0.01662255  1
  Y  Y24  1  0.32823037  0.66601506  0.51598197  1
  Y  Y25  1  0.31720078  0.66014071  0.31626976  1
  Y  Y26  1  0.33951456  0.66925937  0.81703291  1
  P  P27  1  0.69512798  0.70007282  0.25415127  1
  P  P28  1  0.99666002  0.29678363  0.24716948  1
  P  P29  1  0.29788657  0.29824146  0.75067309  1
  P  P30  1  0.00160898  0.69971351  0.75183534  1
  P  P31  1  0.69848426  0.00281912  0.74680747  1
  P  P32  1  0.96574086  0.33371961  0.58627612  1
  P  P33  1  0.36647506  0.03125305  0.58504093  1
  P  P34  1  0.66859636  0.63706599  0.57902313  1
  P  P35  1  0.96986951  0.63445671  0.07910687  1
  P  P36  1  0.66472560  0.03778631  0.08685159  1
  P  P37  1  0.36301311  0.32875821  0.08409987  1
  P  P38  1  0.03121680  0.36828987  0.91670637  1
  P  P39  1  0.32973555  0.96538208  0.91691641  1
  P  P40  1  0.63112677  0.96286225  0.41485725  1
  P  P41  1  0.02682246  0.66783822  0.41939170  1
  S  S42  1  0.30392770  0.00161419  0.24834069  1
  S  S43  1  0.63988274  0.66660360  0.91653505  1
  S  S44  1  0.33554376  0.36924432  0.41625663  1
  O  O45  1  0.21432275  0.01327898  0.29811150  1
  O  O46  1  0.79378180  0.78060789  0.30924421  1
  O  O47  1  0.98207065  0.18331856  0.29724208  1
  O  O48  1  0.21313462  0.18959508  0.80300275  1
  O  O49  1  0.98577560  0.78557645  0.80552016  1
  O  O50  1  0.81410343  0.02296390  0.79685928  1
  O  O51  1  0.77362496  0.98404959  0.69059864  1
  O  O52  1  0.18831534  0.21402209  0.69799731  1
  O  O53  1  0.02103190  0.80463143  0.69831042  1
  O  O54  1  0.79126769  0.81306148  0.20336208  1
  O  O55  1  0.01385851  0.21904784  0.19103317  1
  O  O56  1  0.21129483  0.98672837  0.19536124  1
  O  O57  1  0.88789633  0.35644064  0.64140406  1
  O  O58  1  0.46554151  0.11125569  0.64027765  1
  O  O59  1  0.65294881  0.53123370  0.63122912  1
  O  O60  1  0.87854014  0.52107302  0.12999890  1
  O  O61  1  0.64179322  0.11626999  0.14168728  1
  O  O62  1  0.46612771  0.34756666  0.13738062  1
  O  O63  1  0.44989467  0.30960243  0.03139925  1
  O  O64  1  0.87163443  0.55829093  0.02383536  1
  O  O65  1  0.68922478  0.15290308  0.03606368  1
  O  O66  1  0.45748583  0.13953850  0.53359440  1
  O  O67  1  0.68490262  0.55381972  0.52447467  1
  O  O68  1  0.85021043  0.31213797  0.53581625  1
  O  O69  1  0.55705559  0.68000917  0.96794527  1
  O  O70  1  0.13487037  0.45539927  0.97049053  1
  O  O71  1  0.31850716  0.86146030  0.97015434  1
  O  O72  1  0.54355621  0.85521433  0.46793541  1
  O  O73  1  0.31519846  0.44780550  0.46790592  1
  O  O74  1  0.11783630  0.67733262  0.47568569  1
  O  O75  1  0.12166460  0.65165775  0.36861842  1
  O  O76  1  0.52949888  0.87332513  0.36105594  1
  O  O77  1  0.35055406  0.47044415  0.36588569  1
  O  O78  1  0.12325645  0.47265831  0.86357226  1
  O  O79  1  0.34583635  0.87857545  0.86305986  1
  O  O80  1  0.54304822  0.65403001  0.86540646  1
  O  O81  1  0.01056446  0.82586242  0.41510890  1
  O  O82  1  0.80463219  0.97476261  0.41278882  1
  O  O83  1  0.19127983  0.19973899  0.41178793  1
  O  O84  1  0.00353885  0.19075010  0.91390998  1
  O  O85  1  0.16217659  0.96577582  0.91484442  1
  O  O86  1  0.80921284  0.81516731  0.91439294  1
  O  O87  1  0.97760227  0.17377675  0.58796166  1
  O  O88  1  0.18601516  0.99845910  0.58710816  1
  O  O89  1  0.83099376  0.81029243  0.58402349  1
  O  O90  1  0.00177388  0.81354713  0.08667243  1
  O  O91  1  0.82406267  0.02390552  0.08887687  1
  O  O92  1  0.18859732  0.16724565  0.08726043  1
  O  O93  1  0.68382964  0.16330225  0.74604517  1
  O  O94  1  0.46897030  0.30949252  0.74618000  1
  O  O95  1  0.85223090  0.52079714  0.74757349  1
  O  O96  1  0.67269391  0.52535571  0.24871340  1
  O  O97  1  0.83069644  0.30101570  0.24684758  1
  O  O98  1  0.47344409  0.14901842  0.24718132  1
  O  O99  1  0.66024100  0.51816968  0.91852931  1
  O  O100  1  0.86255463  0.36661813  0.91880401  1
  O  O101  1  0.48038970  0.14245750  0.91968299  1
  O  O102  1  0.65115511  0.13733731  0.41864972  1
  O  O103  1  0.49219349  0.36350397  0.41956377  1
  O  O104  1  0.84676301  0.51550480  0.41901643  1
  O  O105  1  0.33248977  0.47800903  0.08017452  1
  O  O106  1  0.14411805  0.64683291  0.07727084  1
  O  O107  1  0.50604377  0.86654451  0.07926160  1
  O  O108  1  0.35579277  0.85809657  0.57995655  1
  O  O109  1  0.51956146  0.66793063  0.57758401  1
  O  O110  1  0.13701628  0.49300939  0.57974563  1
  O  O111  1  0.32415052  0.85232344  0.25213919  1
  O  O112  1  0.52492629  0.69535501  0.25505264  1
  O  O113  1  0.14764045  0.47336125  0.25283423  1
  O  O114  1  0.31119776  0.47041884  0.75544716  1
  O  O115  1  0.16304107  0.68609865  0.75465492  1
  O  O116  1  0.52056982  0.85264972  0.75317952  1
