# generated using pymatgen
data_Na2YSn(PO4)3
_symmetry_space_group_name_H-M   'P 1'
_cell_length_a   9.11139377
_cell_length_b   9.11139345
_cell_length_c   23.01295400
_cell_angle_alpha   89.98565906
_cell_angle_beta   90.01434094
_cell_angle_gamma   120.31007577
_symmetry_Int_Tables_number   1
_chemical_formula_structural   Na2YSn(PO4)3
_chemical_formula_sum   'Na12 Y6 Sn6 P18 O72'
_cell_volume   1649.32839757
_cell_formula_units_Z   6
loop_
 _symmetry_equiv_pos_site_id
 _symmetry_equiv_pos_as_xyz
  1  'x, y, z'
loop_
 _atom_site_type_symbol
 _atom_site_label
 _atom_site_symmetry_multiplicity
 _atom_site_fract_x
 _atom_site_fract_y
 _atom_site_fract_z
 _atom_site_occupancy
  Na  Na0  1  0.36216649  0.35544166  0.24968681  1
  Na  Na1  1  0.64455834  0.63783351  0.74968681  1
  Na  Na2  1  0.02883349  0.68877466  0.58301981  1
  Na  Na3  1  0.31122534  0.97116651  0.08301981  1
  Na  Na4  1  0.69549949  0.02210866  0.91635381  1
  Na  Na5  1  0.97789134  0.30450051  0.41635381  1
  Na  Na6  1  -0.00000930  0.99963664  0.50099297  1
  Na  Na7  1  0.00036336  0.00000930  0.00099297  1
  Na  Na8  1  0.66665770  0.33296964  0.83432597  1
  Na  Na9  1  0.66703036  0.33334230  0.33432597  1
  Na  Na10  1  0.33332370  0.66630364  0.16765997  1
  Na  Na11  1  0.33369636  0.66667630  0.66765997  1
  Y  Y12  1  0.99556099  0.98584063  0.35338967  1
  Y  Y13  1  0.01415937  0.00443901  0.85338967  1
  Y  Y14  1  0.66222799  0.31917363  0.68672267  1
  Y  Y15  1  0.68082637  0.33777201  0.18672267  1
  Y  Y16  1  0.32889399  0.65250763  0.02005667  1
  Y  Y17  1  0.34749237  0.67110601  0.52005667  1
  Sn  Sn18  1  0.00324252  0.00854036  0.64992884  1
  Sn  Sn19  1  0.99145964  0.99675748  0.14992884  1
  Sn  Sn20  1  0.66990952  0.34187336  0.98326184  1
  Sn  Sn21  1  0.65812664  0.33009048  0.48326184  1
  Sn  Sn22  1  0.33657552  0.67520736  0.31659584  1
  Sn  Sn23  1  0.32479264  0.66342448  0.81659584  1
  P  P24  1  0.28848728  0.98786733  0.24802560  1
  P  P25  1  0.69278931  0.70792731  0.24953740  1
  P  P26  1  0.01322716  0.30079007  0.25357894  1
  P  P27  1  0.29207269  0.30721069  0.74953740  1
  P  P28  1  0.01213267  0.71151272  0.74802560  1
  P  P29  1  0.69920993  0.98677284  0.75357894  1
  P  P30  1  0.95515428  0.32120033  0.58135860  1
  P  P31  1  0.35945631  0.04126031  0.58287040  1
  P  P32  1  0.67989416  0.63412307  0.58691194  1
  P  P33  1  0.95873969  0.64054369  0.08287040  1
  P  P34  1  0.67879967  0.04484572  0.08135860  1
  P  P35  1  0.36587693  0.32010584  0.08691194  1
  P  P36  1  0.62182028  0.65453433  0.91469260  1
  P  P37  1  0.02612231  0.37459431  0.91620440  1
  P  P38  1  0.34656016  0.96745707  0.92024594  1
  P  P39  1  0.62540569  0.97387769  0.41620440  1
  P  P40  1  0.34546567  0.37817972  0.41469260  1
  P  P41  1  0.03254293  0.65343984  0.42024594  1
  O  O42  1  0.20103349  0.01555165  0.29932836  1
  O  O43  1  0.79685080  0.78729581  0.30333185  1
  O  O44  1  0.99541549  0.20257567  0.30896749  1
  O  O45  1  0.21270419  0.20314920  0.80333185  1
  O  O46  1  0.98444835  0.79896651  0.79932836  1
  O  O47  1  0.79742433  0.00458451  0.80896749  1
  O  O48  1  0.78756694  0.95524060  0.69938156  1
  O  O49  1  0.18434562  0.22311921  0.69329208  1
  O  O50  1  0.03798159  0.81744456  0.69046626  1
  O  O51  1  0.77688079  0.81565438  0.19329208  1
  O  O52  1  0.04475940  0.21243306  0.19938156  1
  O  O53  1  0.18255544  0.96201841  0.19046626  1
  O  O54  1  0.86770049  0.34888465  0.63266136  1
  O  O55  1  0.46351780  0.12062881  0.63666485  1
  O  O56  1  0.66208249  0.53590867  0.64230049  1
  O  O57  1  0.87937119  0.53648220  0.13666485  1
  O  O58  1  0.65111535  0.13229951  0.13266136  1
  O  O59  1  0.46409133  0.33791751  0.14230049  1
  O  O60  1  0.45423394  0.28857360  0.03271456  1
  O  O61  1  0.85101262  0.55645221  0.02662508  1
  O  O62  1  0.70464859  0.15077756  0.02379926  1
  O  O63  1  0.44354779  0.14898738  0.52662508  1
  O  O64  1  0.71142640  0.54576606  0.53271456  1
  O  O65  1  0.84922244  0.29535141  0.52379926  1
  O  O66  1  0.53436649  0.68221865  0.96599536  1
  O  O67  1  0.13018380  0.45396281  0.96999885  1
  O  O68  1  0.32874849  0.86924267  0.97563449  1
  O  O69  1  0.54603719  0.86981620  0.46999885  1
  O  O70  1  0.31778135  0.46563351  0.46599536  1
  O  O71  1  0.13075733  0.67125151  0.47563449  1
  O  O72  1  0.12089994  0.62190760  0.36604856  1
  O  O73  1  0.51767862  0.88978621  0.35995908  1
  O  O74  1  0.37131459  0.48411156  0.35713326  1
  O  O75  1  0.11021379  0.48232138  0.85995908  1
  O  O76  1  0.37809240  0.87910006  0.86604856  1
  O  O77  1  0.51588844  0.62868541  0.85713326  1
  O  O78  1  0.00571357  0.80436698  0.41409023  1
  O  O79  1  0.80870646  0.00773203  0.41154111  1
  O  O80  1  0.18588910  0.20072108  0.41073352  1
  O  O81  1  0.99226797  0.19129354  0.91154111  1
  O  O82  1  0.19563302  0.99428643  0.91409023  1
  O  O83  1  0.79927892  0.81411090  0.91073352  1
  O  O84  1  0.96850614  0.15743975  0.58776765  1
  O  O85  1  0.17994554  0.02672550  0.58690457  1
  O  O86  1  0.84951906  0.81268142  0.58905510  1
  O  O87  1  0.97327450  0.82005446  0.08690457  1
  O  O88  1  0.84256025  0.03149386  0.08776765  1
  O  O89  1  0.18731858  0.15048094  0.08905510  1
  O  O90  1  0.67238057  0.13769998  0.74742323  1
  O  O91  1  0.47537346  0.34106503  0.74487411  1
  O  O92  1  0.85255610  0.53405408  0.74406652  1
  O  O93  1  0.65893497  0.52462654  0.24487411  1
  O  O94  1  0.86230002  0.32761943  0.24742323  1
  O  O95  1  0.46594592  0.14744390  0.24406652  1
  O  O96  1  0.63517314  0.49077275  0.92110065  1
  O  O97  1  0.84661254  0.36005850  0.92023757  1
  O  O98  1  0.51618606  0.14601442  0.92238810  1
  O  O99  1  0.63994150  0.15338746  0.42023757  1
  O  O100  1  0.50922725  0.36482686  0.42110065  1
  O  O101  1  0.85398558  0.48381394  0.42238810  1
  O  O102  1  0.33904657  0.47103398  0.08075723  1
  O  O103  1  0.14203946  0.67439903  0.07820811  1
  O  O104  1  0.51922210  0.86738808  0.07740052  1
  O  O105  1  0.32560097  0.85796054  0.57820811  1
  O  O106  1  0.52896602  0.66095343  0.58075723  1
  O  O107  1  0.13261192  0.48077790  0.57740052  1
  O  O108  1  0.30183914  0.82410675  0.25443465  1
  O  O109  1  0.51327854  0.69339250  0.25357157  1
  O  O110  1  0.18285206  0.47934842  0.25572210  1
  O  O111  1  0.30660750  0.48672146  0.75357157  1
  O  O112  1  0.17589325  0.69816086  0.75443465  1
  O  O113  1  0.52065158  0.81714794  0.75572210  1
