# generated using pymatgen
data_TaCl5
_symmetry_space_group_name_H-M   'P 1'
_cell_length_a   6.01334069
_cell_length_b   13.08497312
_cell_length_c   13.08497240
_cell_angle_alpha   87.77305237
_cell_angle_beta   89.40834142
_cell_angle_gamma   89.40833579
_symmetry_Int_Tables_number   1
_chemical_formula_structural   TaCl5
_chemical_formula_sum   'Ta6 Cl30'
_cell_volume   1028.70002294
_cell_formula_units_Z   6
loop_
 _symmetry_equiv_pos_site_id
 _symmetry_equiv_pos_as_xyz
  1  'x, y, z'
loop_
 _atom_site_type_symbol
 _atom_site_label
 _atom_site_symmetry_multiplicity
 _atom_site_fract_x
 _atom_site_fract_y
 _atom_site_fract_z
 _atom_site_occupancy
  Ta  Ta0  1  0.47604080  0.22425125  0.44254148  1
  Ta  Ta1  1  0.52395920  0.55745852  0.77574875  1
  Ta  Ta2  1  0.52395920  0.77574875  0.55745852  1
  Ta  Ta3  1  0.47604080  0.44254148  0.22425125  1
  Ta  Ta4  1  0.00000000  0.89091032  0.10908968  1
  Ta  Ta5  1  -0.00000000  0.10908968  0.89091032  1
  Cl  Cl6  1  0.24670682  0.33530948  0.52901734  1
  Cl  Cl7  1  0.75329318  0.47098266  0.66469052  1
  Cl  Cl8  1  0.75329318  0.66469052  0.47098266  1
  Cl  Cl9  1  0.24670682  0.52901734  0.33530948  1
  Cl  Cl10  1  0.70953931  0.19953330  0.57605585  1
  Cl  Cl11  1  0.29046069  0.42394415  0.80046670  1
  Cl  Cl12  1  0.77918798  0.05018615  0.05018615  1
  Cl  Cl13  1  0.22081202  0.94981385  0.94981385  1
  Cl  Cl14  1  0.76162746  0.24250528  0.86587964  1
  Cl  Cl15  1  0.23837254  0.13412036  0.75749472  1
  Cl  Cl16  1  0.23837254  0.75749472  0.13412036  1
  Cl  Cl17  1  0.76162746  0.86587964  0.24250528  1
  Cl  Cl18  1  0.21928605  0.19573388  0.00224985  1
  Cl  Cl19  1  0.78071395  0.99775015  0.80426612  1
  Cl  Cl20  1  0.78071395  0.80426612  0.99775015  1
  Cl  Cl21  1  0.21928605  0.00224985  0.19573388  1
  Cl  Cl22  1  0.26017961  0.28316987  0.28316987  1
  Cl  Cl23  1  0.73982039  0.71683013  0.71683013  1
  Cl  Cl24  1  0.24300309  0.46730014  0.09055914  1
  Cl  Cl25  1  0.75699691  0.90944086  0.53269986  1
  Cl  Cl26  1  0.75699691  0.53269986  0.90944086  1
  Cl  Cl27  1  0.24300309  0.09055914  0.46730014  1
  Cl  Cl28  1  0.70484917  0.33119284  0.13792440  1
  Cl  Cl29  1  0.29515083  0.86207560  0.66880716  1
  Cl  Cl30  1  0.29515083  0.66880716  0.86207560  1
  Cl  Cl31  1  0.70484917  0.13792440  0.33119284  1
  Cl  Cl32  1  0.69127946  0.38382848  0.38382848  1
  Cl  Cl33  1  0.30872054  0.61617152  0.61617152  1
  Cl  Cl34  1  0.70953931  0.57605585  0.19953330  1
  Cl  Cl35  1  0.29046069  0.80046670  0.42394415  1
