# generated using pymatgen
data_La2MgMoO6
_symmetry_space_group_name_H-M   'P 1'
_cell_length_a   4.35564779
_cell_length_b   4.35562759
_cell_length_c   9.18900791
_cell_angle_alpha   103.70301816
_cell_angle_beta   103.70294192
_cell_angle_gamma   89.99381218
_symmetry_Int_Tables_number   1
_chemical_formula_structural   La2MgMoO6
_chemical_formula_sum   'La2 Mg1 Mo1 O6'
_cell_volume   164.25730943
_cell_formula_units_Z   1
loop_
 _symmetry_equiv_pos_site_id
 _symmetry_equiv_pos_as_xyz
  1  'x, y, z'
loop_
 _atom_site_type_symbol
 _atom_site_label
 _atom_site_symmetry_multiplicity
 _atom_site_fract_x
 _atom_site_fract_y
 _atom_site_fract_z
 _atom_site_occupancy
  La  La0  1  0.18583000  0.18582900  0.37147200  1
  La  La1  1  0.81425600  0.81425500  0.62847900  1
  Mg  Mg2  1  0.99998100  0.99998100  0.00004100  1
  Mo  Mo3  1  0.49992400  0.49992400  0.99997600  1
  O  O4  1  0.31772300  0.82165400  0.13957100  1
  O  O5  1  0.17819700  0.17819600  0.86043600  1
  O  O6  1  0.82165300  0.31772400  0.13957200  1
  O  O7  1  0.68230300  0.68230400  0.86047700  1
  O  O8  1  0.75008000  0.25005400  0.49998800  1
  O  O9  1  0.25005400  0.75008000  0.49998900  1
