# generated using pymatgen
data_MgBe2(CoO2)4
_symmetry_space_group_name_H-M   'P 1'
_cell_length_a   5.95538059
_cell_length_b   5.95538059
_cell_length_c   5.95538059
_cell_angle_alpha   60.00000000
_cell_angle_beta   90.00000000
_cell_angle_gamma   120.00000000
_symmetry_Int_Tables_number   1
_chemical_formula_structural   MgBe2(CoO2)4
_chemical_formula_sum   'Mg1 Be2 Co4 O8'
_cell_volume   149.35286763
_cell_formula_units_Z   1
loop_
 _symmetry_equiv_pos_site_id
 _symmetry_equiv_pos_as_xyz
  1  'x, y, z'
loop_
 _atom_site_type_symbol
 _atom_site_label
 _atom_site_symmetry_multiplicity
 _atom_site_fract_x
 _atom_site_fract_y
 _atom_site_fract_z
 _atom_site_occupancy
  Mg  Mg0  1  0.75000000  0.50000000  0.75000000  1
  Be  Be1  1  0.00000000  0.00000000  0.00000000  1
  Be  Be2  1  0.25000000  0.50000000  0.25000000  1
  Co  Co3  1  0.60147700  0.20295400  0.19557000  1
  Co  Co4  1  0.60147700  0.20295400  0.60147700  1
  Co  Co5  1  0.60147700  0.79704600  0.60147700  1
  Co  Co6  1  0.19557000  0.79704600  0.60147700  1
  O  O7  1  0.89017300  0.26011600  0.36994300  1
  O  O8  1  0.87902100  0.24195500  0.87902100  1
  O  O9  1  0.87902100  0.75804500  0.36293400  1
  O  O10  1  0.36994300  0.26011600  0.36994300  1
  O  O11  1  0.36994300  0.73988400  0.36994300  1
  O  O12  1  0.36293400  0.24195500  0.87902100  1
  O  O13  1  0.87902100  0.75804500  0.87902100  1
  O  O14  1  0.36994300  0.73988400  0.89017300  1
