# generated using pymatgen
data_Na2Nb2Al6Si3(S3O16)3
_symmetry_space_group_name_H-M   'P 1'
_cell_length_a   17.04106952
_cell_length_b   8.49965353
_cell_length_c   21.99759013
_cell_angle_alpha   89.99466367
_cell_angle_beta   90.23049426
_cell_angle_gamma   120.07959739
_symmetry_Int_Tables_number   1
_chemical_formula_structural   Na2Nb2Al6Si3(S3O16)3
_chemical_formula_sum   'Na6 Nb6 Al18 Si9 S27 O144'
_cell_volume   2757.08607918
_cell_formula_units_Z   3
loop_
 _symmetry_equiv_pos_site_id
 _symmetry_equiv_pos_as_xyz
  1  'x, y, z'
loop_
 _atom_site_type_symbol
 _atom_site_label
 _atom_site_symmetry_multiplicity
 _atom_site_fract_x
 _atom_site_fract_y
 _atom_site_fract_z
 _atom_site_occupancy
  Na  Na0  1  0.99726603  0.98656227  0.49821495  1
  Na  Na1  1  0.50046077  0.01054563  0.99592636  1
  Na  Na2  1  0.34075389  0.33860762  0.83501226  1
  Na  Na3  1  0.83605464  0.34726778  0.82984546  1
  Na  Na4  1  0.33765060  0.32706890  0.33369271  1
  Na  Na5  1  0.83863663  0.33784114  0.33955887  1
  Nb  Nb6  1  0.49578076  0.00978101  0.35812400  1
  Nb  Nb7  1  0.99431676  0.97932700  0.85504572  1
  Nb  Nb8  1  0.50394989  0.99420894  0.63591650  1
  Nb  Nb9  1  0.99812550  0.00369364  0.13979048  1
  Nb  Nb10  1  0.66721531  0.65707834  0.02302051  1
  Nb  Nb11  1  0.16687163  0.67734121  0.52490892  1
  Al  Al12  1  0.99992149  0.99206214  0.35620545  1
  Al  Al13  1  0.50100636  0.01011972  0.85266630  1
  Al  Al14  1  0.99721811  0.99240110  0.64901942  1
  Al  Al15  1  0.50023071  0.00357821  0.15094383  1
  Al  Al16  1  0.33400732  0.33721796  0.68734963  1
  Al  Al17  1  0.83270137  0.33581161  0.68551464  1
  Al  Al18  1  0.33515205  0.32853245  0.18866816  1
  Al  Al19  1  0.83149527  0.32735789  0.18774276  1
  Al  Al20  1  0.33919003  0.33691325  0.97882770  1
  Al  Al21  1  0.83427849  0.33041208  0.97676759  1
  Al  Al22  1  0.33513228  0.33676777  0.47874488  1
  Al  Al23  1  0.83742239  0.34335229  0.48189746  1
  Al  Al24  1  0.17022788  0.67040186  0.02023465  1
  Al  Al25  1  0.67140845  0.67817044  0.52461526  1
  Al  Al26  1  0.16136197  0.67483018  0.31790892  1
  Al  Al27  1  0.66343727  0.66370351  0.31087365  1
  Al  Al28  1  0.16458934  0.66487219  0.80808442  1
  Al  Al29  1  0.66214616  0.64767513  0.81536058  1
  Si  Si30  1  0.50268774  0.30351132  0.24403164  1
  Si  Si31  1  0.00070058  0.69762869  0.74228201  1
  Si  Si32  1  0.70660520  0.05693376  0.58042640  1
  Si  Si33  1  0.32811724  0.59343962  0.58297108  1
  Si  Si34  1  0.82783496  0.06252988  0.08268750  1
  Si  Si35  1  0.80583116  0.64718236  0.91438466  1
  Si  Si36  1  0.51576027  0.36833974  0.91234843  1
  Si  Si37  1  0.30399652  0.96329236  0.41515281  1
  Si  Si38  1  0.01499986  0.65894775  0.41332513  1
  S  S39  1  0.14475059  -0.00028501  0.25126785  1
  S  S40  1  0.64832358  0.00258065  0.24891517  1
  S  S41  1  0.35027055  0.70434038  0.24730524  1
  S  S42  1  0.85510299  0.70674906  0.25151165  1
  S  S43  1  0.00123339  0.29372724  0.25398255  1
  S  S44  1  0.14853961  0.29345878  0.74880504  1
  S  S45  1  0.64407476  0.29145047  0.75181385  1
  S  S46  1  0.50150192  0.71027364  0.75394641  1
  S  S47  1  0.35463553  0.00235770  0.75158258  1
  S  S48  1  0.84980364  0.99477179  0.74802047  1
  S  S49  1  0.47699212  0.34425619  0.58258740  1
  S  S50  1  0.97255539  0.31808409  0.58617681  1
  S  S51  1  0.18868280  0.05927525  0.58647343  1
  S  S52  1  0.83471784  0.62569401  0.58249241  1
  S  S53  1  0.46975686  0.62304591  0.08594834  1
  S  S54  1  0.97936327  0.60987493  0.08258896  1
  S  S55  1  0.33154919  0.04293968  0.08252941  1
  S  S56  1  0.19896598  0.34654909  0.08112663  1
  S  S57  1  0.68838837  0.31846470  0.08616558  1
  S  S58  1  0.30696098  0.66265028  0.91628788  1
  S  S59  1  0.02854755  0.39317441  0.91770834  1
  S  S60  1  0.17221538  0.95298708  0.91944925  1
  S  S61  1  0.66542110  0.95482946  0.91268540  1
  S  S62  1  0.80812246  0.94862194  0.41349128  1
  S  S63  1  0.16549534  0.37643819  0.41250300  1
  S  S64  1  0.67279627  0.39788556  0.41859508  1
  S  S65  1  0.52687955  0.66131948  0.41706702  1
  O  O66  1  0.10271376  0.03405063  0.30415024  1
  O  O67  1  0.60594226  0.03331075  0.30318876  1
  O  O68  1  0.41103735  0.78149783  0.30270428  1
  O  O69  1  0.91691870  0.79277761  0.30327821  1
  O  O70  1  0.48334344  0.16485486  0.30605367  1
  O  O71  1  0.98358689  0.16939077  0.30520535  1
  O  O72  1  0.10582329  0.17849674  0.80400626  1
  O  O73  1  0.60162937  0.17357147  0.80569569  1
  O  O74  1  0.48340607  0.79780341  0.80640868  1
  O  O75  1  0.98035819  0.79448202  0.80593026  1
  O  O76  1  0.41486612  0.03996664  0.80522381  1
  O  O77  1  0.91117337  0.03084750  0.80428164  1
  O  O78  1  0.39335457  0.97141841  0.69632074  1
  O  O79  1  0.89532894  0.97119036  0.69506312  1
  O  O80  1  0.09028913  0.21363772  0.69502943  1
  O  O81  1  0.58650457  0.20510245  0.69730337  1
  O  O82  1  0.01660790  0.83876344  0.68923070  1
  O  O83  1  0.51232721  0.81844484  0.69780461  1
  O  O84  1  0.39637452  0.82048895  0.19399984  1
  O  O85  1  0.89612545  0.81830586  0.19450475  1
  O  O86  1  0.01188474  0.20334519  0.19676094  1
  O  O87  1  0.51711279  0.19716273  0.18893359  1
  O  O88  1  0.08764683  0.97144418  0.19549059  1
  O  O89  1  0.59076126  0.96651163  0.19420925  1
  O  O90  1  0.43738947  0.36994355  0.63858886  1
  O  O91  1  0.93497452  0.35581982  0.64001805  1
  O  O92  1  0.24470862  0.13582651  0.64107717  1
  O  O93  1  0.75762641  0.14640785  0.64286937  1
  O  O94  1  0.31923195  0.49140647  0.64502727  1
  O  O95  1  0.82035459  0.51713432  0.63762844  1
  O  O96  1  0.42769777  0.50798809  0.13922658  1
  O  O97  1  0.93882059  0.50828290  0.13866709  1
  O  O98  1  0.31425053  0.12304511  0.13700240  1
  O  O99  1  0.82203802  0.14852307  0.14501474  1
  O  O100  1  0.25156411  0.37196068  0.13676182  1
  O  O101  1  0.74483325  0.35408014  0.14078759  1
  O  O102  1  0.23730665  0.30783245  0.02764306  1
  O  O103  1  0.73010872  0.30108773  0.03026025  1
  O  O104  1  0.41469030  0.54507417  0.02993125  1
  O  O105  1  0.92130293  0.53953197  0.02880553  1
  O  O106  1  0.34887551  0.16109167  0.02872932  1
  O  O107  1  0.84940980  0.17810477  0.02210379  1
  O  O108  1  0.22994303  0.15793927  0.53017886  1
  O  O109  1  0.74318045  0.18417635  0.52181321  1
  O  O110  1  0.34759251  0.51994697  0.52174774  1
  O  O111  1  0.85783247  0.55291222  0.52851550  1
  O  O112  1  0.41875119  0.30196170  0.52878460  1
  O  O113  1  0.91965098  0.28672934  0.52984314  1
  O  O114  1  0.26858014  0.70021740  0.97160825  1
  O  O115  1  0.76558569  0.69046157  0.97701517  1
  O  O116  1  0.08210180  0.47581812  0.97379568  1
  O  O117  1  0.57869712  0.46285679  0.97520773  1
  O  O118  1  0.15480004  0.83995065  0.97420573  1
  O  O119  1  0.64890949  0.84572084  0.96948691  1
  O  O120  1  0.26504721  0.83997264  0.47701756  1
  O  O121  1  0.77051562  0.83419501  0.46798507  1
  O  O122  1  0.14833737  0.45068066  0.46868755  1
  O  O123  1  0.65606207  0.47514898  0.47305688  1
  O  O124  1  0.07904326  0.69150182  0.47480939  1
  O  O125  1  0.58068469  0.68500085  0.47166794  1
  O  O126  1  0.05939674  0.61856748  0.35508113  1
  O  O127  1  0.56811341  0.63672379  0.36164206  1
  O  O128  1  0.24851135  0.86946297  0.35487447  1
  O  O129  1  0.75164013  0.86156391  0.35858079  1
  O  O130  1  0.18238230  0.49330343  0.35887490  1
  O  O131  1  0.68356340  0.50360564  0.36316964  1
  O  O132  1  0.07193863  0.50570644  0.86391864  1
  O  O133  1  0.56231765  0.50048832  0.85585857  1
  O  O134  1  0.18834377  0.87441895  0.86504263  1
  O  O135  1  0.68291868  0.87339080  0.85956646  1
  O  O136  1  0.25045187  0.63419304  0.86197147  1
  O  O137  1  0.74872328  0.63031766  0.85552298  1
  O  O138  1  0.00860349  0.84318958  0.40811103  1
  O  O139  1  0.51990775  0.82846273  0.40953588  1
  O  O140  1  0.40469332  0.97329817  0.41072250  1
  O  O141  1  0.90060407  0.97344631  0.40499504  1
  O  O142  1  0.08207376  0.19564938  0.40439962  1
  O  O143  1  0.58998037  0.21014507  0.41161609  1
  O  O144  1  0.02126455  0.21298916  0.91118332  1
  O  O145  1  0.50872582  0.17083237  0.90802132  1
  O  O146  1  0.09011468  0.97178580  0.91190343  1
  O  O147  1  0.58253053  0.96893067  0.90545326  1
  O  O148  1  0.39928382  0.82027053  0.90874028  1
  O  O149  1  0.90638910  0.83776717  0.91142535  1
  O  O150  1  0.48543060  0.17727257  0.59072961  1
  O  O151  1  0.98301816  0.15548155  0.59460815  1
  O  O152  1  0.09848763  0.04478956  0.59108703  1
  O  O153  1  0.60175092  0.03540160  0.59190646  1
  O  O154  1  0.41610828  0.80362683  0.59136335  1
  O  O155  1  0.91399303  0.81459102  0.58975123  1
  O  O156  1  0.48029130  0.80658056  0.09377210  1
  O  O157  1  0.99191042  0.79995371  0.09130745  1
  O  O158  1  0.41204263  0.02019765  0.08937991  1
  O  O159  1  0.91796162  0.02949029  0.09161658  1
  O  O160  1  0.10583483  0.18017903  0.08935692  1
  O  O161  1  0.59811182  0.15127402  0.09107250  1
  O  O162  1  0.34413976  0.16606101  0.74360169  1
  O  O163  1  0.84357356  0.16031514  0.74475063  1
  O  O164  1  0.23779828  0.30271815  0.74422554  1
  O  O165  1  0.73414194  0.30885386  0.74529790  1
  O  O166  1  0.42072442  0.52458167  0.74782551  1
  O  O167  1  0.90839054  0.50482384  0.73831367  1
  O  O168  1  0.33899778  0.52084446  0.23928001  1
  O  O169  1  0.84651719  0.52524433  0.24166736  1
  O  O170  1  0.40970945  0.31123995  0.24033645  1
  O  O171  1  0.92095446  0.31687723  0.24666248  1
  O  O172  1  0.23381530  0.16633099  0.24142024  1
  O  O173  1  0.73797447  0.17384349  0.24359278  1
  O  O174  1  0.31081844  0.49329310  0.92528112  1
  O  O175  1  0.82146203  0.47931381  0.92563146  1
  O  O176  1  0.41870064  0.35489829  0.92474615  1
  O  O177  1  0.93743109  0.37281313  0.92220367  1
  O  O178  1  0.25015357  0.13653182  0.92840438  1
  O  O179  1  0.74595919  0.13802744  0.92093341  1
  O  O180  1  0.32070695  0.16324986  0.42563377  1
  O  O181  1  0.81473485  0.12700083  0.41965864  1
  O  O182  1  0.24522272  0.35313628  0.41949269  1
  O  O183  1  0.75239702  0.37666948  0.42329168  1
  O  O184  1  0.43483182  0.50150129  0.42107559  1
  O  O185  1  0.91805040  0.47953396  0.42601773  1
  O  O186  1  0.18632599  0.50373004  0.07227068  1
  O  O187  1  0.67600020  0.48114963  0.08256991  1
  O  O188  1  0.06995676  0.63262404  0.07422810  1
  O  O189  1  0.56014993  0.64222131  0.07921417  1
  O  O190  1  0.24972611  0.86160729  0.07288729  1
  O  O191  1  0.74155981  0.85811887  0.07634763  1
  O  O192  1  0.17588345  0.87063523  0.58321940  1
  O  O193  1  0.68479255  0.85297740  0.57133849  1
  O  O194  1  0.23996162  0.61950719  0.57528248  1
  O  O195  1  0.75168248  0.63464153  0.57211693  1
  O  O196  1  0.06449944  0.47863822  0.57874936  1
  O  O197  1  0.56770683  0.49972544  0.57355551  1
  O  O198  1  0.15292462  0.83776768  0.25665564  1
  O  O199  1  0.66218547  0.84796209  0.25841383  1
  O  O200  1  0.26242831  0.69062637  0.25642539  1
  O  O201  1  0.76757692  0.69220660  0.26002127  1
  O  O202  1  0.08546999  0.46722464  0.25831539  1
  O  O203  1  0.59025190  0.49086690  0.26145071  1
  O  O204  1  0.16208880  0.47622803  0.75918369  1
  O  O205  1  0.65094288  0.46966734  0.75724633  1
  O  O206  1  0.08788218  0.68679833  0.76195116  1
  O  O207  1  0.58500372  0.70326640  0.76036328  1
  O  O208  1  0.26594595  0.84154434  0.76295365  1
  O  O209  1  0.76196101  0.83252370  0.75759903  1
