# generated using pymatgen
data_C(Se2Br)2
_symmetry_space_group_name_H-M   'P 1'
_cell_length_a   4.37646079
_cell_length_b   8.57518670
_cell_length_c   21.39891138
_cell_angle_alpha   90.00000000
_cell_angle_beta   90.00000000
_cell_angle_gamma   90.00000000
_symmetry_Int_Tables_number   1
_chemical_formula_structural   C(Se2Br)2
_chemical_formula_sum   'C4 Se16 Br8'
_cell_volume   803.07906811
_cell_formula_units_Z   4
loop_
 _symmetry_equiv_pos_site_id
 _symmetry_equiv_pos_as_xyz
  1  'x, y, z'
loop_
 _atom_site_type_symbol
 _atom_site_label
 _atom_site_symmetry_multiplicity
 _atom_site_fract_x
 _atom_site_fract_y
 _atom_site_fract_z
 _atom_site_occupancy
  C  C0  1  0.57979750  0.24742621  0.87914666  1
  C  C1  1  0.42020250  0.74742621  0.12085334  1
  C  C2  1  0.92020250  0.24742621  0.37914666  1
  C  C3  1  0.07979750  0.74742621  0.62085334  1
  Se  Se4  1  0.39929856  0.23841838  0.80094482  1
  Se  Se5  1  0.60070144  0.73841838  0.19905518  1
  Se  Se6  1  0.10070144  0.23841838  0.30094482  1
  Se  Se7  1  0.89929856  0.73841838  0.69905518  1
  Se  Se8  1  0.37319936  0.51585745  0.81011441  1
  Se  Se9  1  0.62680064  0.01585745  0.18988559  1
  Se  Se10  1  0.12680064  0.51585745  0.31011441  1
  Se  Se11  1  0.87319936  0.01585745  0.68988559  1
  Se  Se12  1  0.60713829  0.44956933  0.90757034  1
  Se  Se13  1  0.39286171  0.94956933  0.09242966  1
  Se  Se14  1  0.89286171  0.44956933  0.40757034  1
  Se  Se15  1  0.10713829  0.94956933  0.59242966  1
  Se  Se16  1  0.71595810  0.07464313  0.92333348  1
  Se  Se17  1  0.28404190  0.57464313  0.07666652  1
  Se  Se18  1  0.78404190  0.07464313  0.42333348  1
  Se  Se19  1  0.21595810  0.57464313  0.57666652  1
  Br  Br20  1  0.88007995  0.25261086  0.01146217  1
  Br  Br21  1  0.11992005  0.75261086  0.98853783  1
  Br  Br22  1  0.61992005  0.25261086  0.51146217  1
  Br  Br23  1  0.38007995  0.75261086  0.48853783  1
  Br  Br24  1  0.53111652  0.90387464  0.82950309  1
  Br  Br25  1  0.46888348  0.40387464  0.17049691  1
  Br  Br26  1  0.96888348  0.90387464  0.32950309  1
  Br  Br27  1  0.03111652  0.40387464  0.67049691  1
