# generated using pymatgen
data_Sb6S2O15
_symmetry_space_group_name_H-M   'P 1'
_cell_length_a   11.19772093
_cell_length_b   11.19772093
_cell_length_c   5.88556429
_cell_angle_alpha   90.00000000
_cell_angle_beta   90.00000000
_cell_angle_gamma   114.39326326
_symmetry_Int_Tables_number   1
_chemical_formula_structural   Sb6S2O15
_chemical_formula_sum   'Sb12 S4 O30'
_cell_volume   672.10649419
_cell_formula_units_Z   2
loop_
 _symmetry_equiv_pos_site_id
 _symmetry_equiv_pos_as_xyz
  1  'x, y, z'
loop_
 _atom_site_type_symbol
 _atom_site_label
 _atom_site_symmetry_multiplicity
 _atom_site_fract_x
 _atom_site_fract_y
 _atom_site_fract_z
 _atom_site_occupancy
  Sb  Sb0  1  0.11736925  0.69993116  0.87416688  1
  Sb  Sb1  1  0.88263075  0.30006884  0.87416688  1
  Sb  Sb2  1  0.30006884  0.88263075  0.37416688  1
  Sb  Sb3  1  0.69993116  0.11736925  0.37416688  1
  Sb  Sb4  1  0.37692673  0.24589447  0.39197720  1
  Sb  Sb5  1  0.62307327  0.75410553  0.39197720  1
  Sb  Sb6  1  0.75410553  0.62307327  0.89197720  1
  Sb  Sb7  1  0.24589447  0.37692673  0.89197720  1
  Sb  Sb8  1  0.95871789  0.82526387  0.50605075  1
  Sb  Sb9  1  0.04128211  0.17473613  0.50605075  1
  Sb  Sb10  1  0.17473613  0.04128211  0.00605075  1
  Sb  Sb11  1  0.82526387  0.95871789  0.00605075  1
  S  S12  1  0.78670413  0.47729298  0.34016285  1
  S  S13  1  0.21329587  0.52270702  0.34016285  1
  S  S14  1  0.52270702  0.21329587  0.84016285  1
  S  S15  1  0.47729298  0.78670413  0.84016285  1
  O  O16  1  0.66184366  0.48840365  0.33826142  1
  O  O17  1  0.33815634  0.51159635  0.33826142  1
  O  O18  1  0.51159635  0.33815634  0.83826142  1
  O  O19  1  0.48840365  0.66184366  0.83826142  1
  O  O20  1  0.77078828  0.34134545  0.28758860  1
  O  O21  1  0.22921172  0.65865455  0.28758860  1
  O  O22  1  0.65865455  0.22921172  0.78758860  1
  O  O23  1  0.34134545  0.77078828  0.78758860  1
  O  O24  1  0.87053943  0.56246035  0.14968458  1
  O  O25  1  0.12946057  0.43753965  0.14968458  1
  O  O26  1  0.43753965  0.12946057  0.64968458  1
  O  O27  1  0.56246035  0.87053943  0.64968458  1
  O  O28  1  -0.00000000  0.00000000  0.15051534  1
  O  O29  1  -0.00000000  0.00000000  0.65051534  1
  O  O30  1  0.75722902  0.75999379  0.11763521  1
  O  O31  1  0.24277098  0.24000621  0.11763521  1
  O  O32  1  0.24000621  0.24277098  0.61763521  1
  O  O33  1  0.75999379  0.75722902  0.61763521  1
  O  O34  1  0.05124826  0.25609295  0.82821259  1
  O  O35  1  0.94875174  0.74390705  0.82821259  1
  O  O36  1  0.74390705  0.94875174  0.32821259  1
  O  O37  1  0.25609295  0.05124826  0.32821259  1
  O  O38  1  0.82704104  0.15718008  0.10662250  1
  O  O39  1  0.17295896  0.84281992  0.10662250  1
  O  O40  1  0.84281992  0.17295896  0.60662250  1
  O  O41  1  0.15718008  0.82704104  0.60662250  1
  O  O42  1  0.85810763  0.52161159  0.55420874  1
  O  O43  1  0.14189237  0.47838841  0.55420874  1
  O  O44  1  0.47838841  0.14189237  0.05420874  1
  O  O45  1  0.52161159  0.85810763  0.05420874  1
