# generated using pymatgen
data_Na2Ta5Ga3Si6(SO8)6
_symmetry_space_group_name_H-M   'P 1'
_cell_length_a   17.61801376
_cell_length_b   8.76018411
_cell_length_c   22.62670544
_cell_angle_alpha   89.77323913
_cell_angle_beta   90.15772344
_cell_angle_gamma   120.18407829
_symmetry_Int_Tables_number   1
_chemical_formula_structural   Na2Ta5Ga3Si6(SO8)6
_chemical_formula_sum   'Na6 Ta15 Ga9 Si18 S18 O144'
_cell_volume   3018.63080674
_cell_formula_units_Z   3
loop_
 _symmetry_equiv_pos_site_id
 _symmetry_equiv_pos_as_xyz
  1  'x, y, z'
loop_
 _atom_site_type_symbol
 _atom_site_label
 _atom_site_symmetry_multiplicity
 _atom_site_fract_x
 _atom_site_fract_y
 _atom_site_fract_z
 _atom_site_occupancy
  Na  Na0  1  0.99374064  0.97982995  0.49765881  1
  Na  Na1  1  0.50171225  0.99694432  0.99816847  1
  Na  Na2  1  0.33409256  0.31751288  0.84105133  1
  Na  Na3  1  0.83086248  0.33728441  0.84018705  1
  Na  Na4  1  0.32458848  0.32203867  0.33913423  1
  Na  Na5  1  0.83708859  0.34141230  0.34607695  1
  Ta  Ta6  1  0.49449044  0.99538422  0.36197301  1
  Ta  Ta7  1  0.00536189  0.00346852  0.86429374  1
  Ta  Ta8  1  0.49960370  0.00068416  0.64066174  1
  Ta  Ta9  1  0.99970071  0.01105460  0.14624756  1
  Ta  Ta10  1  0.32708242  0.33320569  0.69098174  1
  Ta  Ta11  1  0.82761317  0.32786797  0.68409168  1
  Ta  Ta12  1  0.34038546  0.34441102  0.19092720  1
  Ta  Ta13  1  0.83322328  0.32041081  0.18953163  1
  Ta  Ta14  1  0.16457906  0.66423073  0.02073649  1
  Ta  Ta15  1  0.66582496  0.66103531  0.02520486  1
  Ta  Ta16  1  0.16789386  0.67419067  0.52170518  1
  Ta  Ta17  1  0.67327689  0.66313010  0.52448667  1
  Ta  Ta18  1  0.16344982  0.67863870  0.30788184  1
  Ta  Ta19  1  0.16770060  0.67329864  0.80849317  1
  Ta  Ta20  1  0.66432148  0.64687349  0.81266079  1
  Ga  Ga21  1  0.00927642  0.00167902  0.35303392  1
  Ga  Ga22  1  0.50721934  0.04772093  0.85137718  1
  Ga  Ga23  1  0.99626999  0.00669488  0.64796063  1
  Ga  Ga24  1  0.49256304  0.96989985  0.14542870  1
  Ga  Ga25  1  0.34520374  0.33981879  0.97528859  1
  Ga  Ga26  1  0.83735676  0.32942689  0.97368207  1
  Ga  Ga27  1  0.33142076  0.33268827  0.48019293  1
  Ga  Ga28  1  0.82990561  0.36710129  0.47838356  1
  Ga  Ga29  1  0.67229128  0.66914129  0.31676532  1
  Si  Si30  1  0.14216677  0.00589083  0.24981413  1
  Si  Si31  1  0.35897686  0.72197336  0.25012455  1
  Si  Si32  1  0.99800303  0.27566379  0.25822368  1
  Si  Si33  1  0.13514984  0.27693595  0.74835934  1
  Si  Si34  1  0.64346059  0.27886293  0.75051051  1
  Si  Si35  1  0.36125131  0.00233850  0.75044633  1
  Si  Si36  1  0.69215572  0.05359345  0.57619821  1
  Si  Si37  1  0.33250935  0.61276552  0.57808460  1
  Si  Si38  1  0.84546351  0.63972600  0.58306859  1
  Si  Si39  1  0.47325018  0.62463381  0.07799214  1
  Si  Si40  1  0.83422675  0.05130174  0.07771402  1
  Si  Si41  1  0.80772162  0.65314336  0.91997033  1
  Si  Si42  1  0.01949936  0.38334515  0.91580960  1
  Si  Si43  1  0.52016935  0.36965589  0.91860169  1
  Si  Si44  1  0.17577989  0.96704400  0.91788174  1
  Si  Si45  1  0.30648965  0.96742096  0.41766746  1
  Si  Si46  1  0.67109373  0.38666419  0.41273560  1
  Si  Si47  1  0.01707571  0.66568305  0.41660336  1
  S  S48  1  0.64262836  0.99132671  0.25171370  1
  S  S49  1  0.85202375  0.71106280  0.24983999  1
  S  S50  1  0.50607218  0.29072128  0.24893468  1
  S  S51  1  0.99874484  0.71181207  0.74937511  1
  S  S52  1  0.50052258  0.71747017  0.75167800  1
  S  S53  1  0.85672287  0.00180804  0.75129092  1
  S  S54  1  0.47521801  0.33430358  0.58156937  1
  S  S55  1  0.97630158  0.33024269  0.58175391  1
  S  S56  1  0.18806254  0.04628283  0.58300397  1
  S  S57  1  0.97654447  0.62097623  0.08278396  1
  S  S58  1  0.33631554  0.04620060  0.08291246  1
  S  S59  1  0.19187881  0.33302054  0.08284403  1
  S  S60  1  0.68647943  0.32437498  0.08454654  1
  S  S61  1  0.31108515  0.66734369  0.91642489  1
  S  S62  1  0.66230937  0.94876993  0.91609730  1
  S  S63  1  0.81085737  0.95446932  0.41515317  1
  S  S64  1  0.16557813  0.37786560  0.41751426  1
  S  S65  1  0.52362000  0.66256193  0.41475663  1
  O  O66  1  0.10653289  0.05213246  0.30759449  1
  O  O67  1  0.60575878  0.03027467  0.30367510  1
  O  O68  1  0.42441432  0.80965007  0.30681572  1
  O  O69  1  0.90647865  0.77542967  0.30264972  1
  O  O70  1  0.48850609  0.17617669  0.30197213  1
  O  O71  1  0.97240774  0.14295366  0.31264932  1
  O  O72  1  0.09173179  0.14959093  0.80585234  1
  O  O73  1  0.60915816  0.16450644  0.80984732  1
  O  O74  1  0.48076938  0.78572913  0.80396761  1
  O  O75  1  0.98197962  0.78587115  0.80300296  1
  O  O76  1  0.41598043  0.03794683  0.81034353  1
  O  O77  1  0.91200320  0.02621717  0.80332368  1
  O  O78  1  0.40505374  0.97173655  0.69190219  1
  O  O79  1  0.88920679  0.96485599  0.69674076  1
  O  O80  1  0.08052755  0.19112240  0.68945446  1
  O  O81  1  0.58343299  0.18818314  0.69290806  1
  O  O82  1  0.01128179  0.81452818  0.69599078  1
  O  O83  1  0.51305159  0.82010126  0.69682449  1
  O  O84  1  0.39860450  0.84038852  0.19203646  1
  O  O85  1  0.89664783  0.81991559  0.19561298  1
  O  O86  1  0.00762517  0.18640180  0.19590025  1
  O  O87  1  0.51922643  0.21335166  0.19552094  1
  O  O88  1  0.08133870  0.97509192  0.19110792  1
  O  O89  1  0.59275127  0.96728323  0.19699331  1
  O  O90  1  0.43461732  0.35853796  0.63499627  1
  O  O91  1  0.93723029  0.35763466  0.63755912  1
  O  O92  1  0.24436833  0.12765659  0.63690551  1
  O  O93  1  0.75254585  0.13509992  0.63853876  1
  O  O94  1  0.31997052  0.49170945  0.63787090  1
  O  O95  1  0.82569976  0.50730386  0.64112660  1
  O  O96  1  0.42806306  0.50045377  0.13802046  1
  O  O97  1  0.93441928  0.50952468  0.13669848  1
  O  O98  1  0.31910300  0.12327360  0.13616528  1
  O  O99  1  0.82137422  0.14527322  0.13908953  1
  O  O100  1  0.24543036  0.35764863  0.13665938  1
  O  O101  1  0.74371259  0.35496722  0.13802047  1
  O  O102  1  0.22634014  0.29876548  0.02985231  1
  O  O103  1  0.72483654  0.29572430  0.03156825  1
  O  O104  1  0.40674296  0.52988102  0.02388128  1
  O  O105  1  0.92478046  0.54798716  0.02962753  1
  O  O106  1  0.34552385  0.14819980  0.02917904  1
  O  O107  1  0.85227553  0.18258676  0.02406200  1
  O  O108  1  0.22941346  0.15078362  0.52978141  1
  O  O109  1  0.74173142  0.18065720  0.52282987  1
  O  O110  1  0.35078380  0.52492809  0.52194802  1
  O  O111  1  0.86445373  0.56392684  0.52517348  1
  O  O112  1  0.42238381  0.30043185  0.52832341  1
  O  O113  1  0.92229622  0.30191739  0.53031152  1
  O  O114  1  0.26555856  0.68916052  0.97116483  1
  O  O115  1  0.76442678  0.69570458  0.97588300  1
  O  O116  1  0.08182710  0.47416187  0.97596392  1
  O  O117  1  0.58379546  0.47481081  0.97424898  1
  O  O118  1  0.15977489  0.83755420  0.97644230  1
  O  O119  1  0.65432741  0.84336190  0.97003798  1
  O  O120  1  0.26394842  0.84309181  0.47648502  1
  O  O121  1  0.76156389  0.83629730  0.46803929  1
  O  O122  1  0.15683922  0.46843151  0.47139035  1
  O  O123  1  0.65264178  0.47483570  0.47163720  1
  O  O124  1  0.08290277  0.69270852  0.47459273  1
  O  O125  1  0.57542112  0.68723461  0.46829663  1
  O  O126  1  0.06933888  0.64525763  0.35944511  1
  O  O127  1  0.56481340  0.64367528  0.36052005  1
  O  O128  1  0.24772370  0.87082957  0.36016812  1
  O  O129  1  0.75626575  0.87643010  0.36071706  1
  O  O130  1  0.17820267  0.48508824  0.36450217  1
  O  O131  1  0.68467901  0.50248614  0.35395806  1
  O  O132  1  0.07385907  0.51040614  0.86097652  1
  O  O133  1  0.56900213  0.48980810  0.85829195  1
  O  O134  1  0.18741989  0.87063365  0.86020775  1
  O  O135  1  0.67593099  0.86470866  0.86256937  1
  O  O136  1  0.25700353  0.64889027  0.86341703  1
  O  O137  1  0.74690687  0.63254004  0.86057303  1
  O  O138  1  0.00917418  0.84356369  0.40992123  1
  O  O139  1  0.51784920  0.82955504  0.40930508  1
  O  O140  1  0.40311648  0.98038991  0.40740565  1
  O  O141  1  0.89397691  0.95480749  0.41360679  1
  O  O142  1  0.08454529  0.20369461  0.41612293  1
  O  O143  1  0.58152233  0.19240592  0.40254555  1
  O  O144  1  0.01438750  0.19246311  0.90842202  1
  O  O145  1  0.51529390  0.18007833  0.91683131  1
  O  O146  1  0.08271905  0.96467024  0.90994805  1
  O  O147  1  0.58074040  0.95480435  0.91133112  1
  O  O148  1  0.39796093  0.82366905  0.91383800  1
  O  O149  1  0.90234618  0.82439190  0.90262328  1
  O  O150  1  0.48827909  0.17986795  0.58932731  1
  O  O151  1  0.98883162  0.17623062  0.58965563  1
  O  O152  1  0.10091726  0.02455096  0.59008275  1
  O  O153  1  0.59672202  0.02955530  0.59380207  1
  O  O154  1  0.41706209  0.80631226  0.59296407  1
  O  O155  1  0.92681983  0.83559868  0.59502873  1
  O  O156  1  0.49061691  0.82447011  0.08618132  1
  O  O157  1  0.98949921  0.79843730  0.09317643  1
  O  O158  1  0.41651903  0.03421481  0.08945631  1
  O  O159  1  0.91751481  0.02301029  0.09275261  1
  O  O160  1  0.10050311  0.18060671  0.09262371  1
  O  O161  1  0.59733119  0.17413532  0.09475427  1
  O  O162  1  0.34885381  0.17451797  0.73745118  1
  O  O163  1  0.85241271  0.16820306  0.74527558  1
  O  O164  1  0.23595039  0.30254106  0.74164958  1
  O  O165  1  0.74419335  0.31163522  0.74134239  1
  O  O166  1  0.42322959  0.53089410  0.74182335  1
  O  O167  1  0.92329020  0.52706734  0.74380322  1
  O  O168  1  0.35062727  0.52373597  0.24175637  1
  O  O169  1  0.83923305  0.52907725  0.23745066  1
  O  O170  1  0.42057949  0.29791034  0.24302939  1
  O  O171  1  0.91337065  0.30988533  0.24239614  1
  O  O172  1  0.24185731  0.17090484  0.23617489  1
  O  O173  1  0.73395870  0.15897740  0.24376586  1
  O  O174  1  0.31134920  0.50112294  0.92149496  1
  O  O175  1  0.81282711  0.47644071  0.92740231  1
  O  O176  1  0.42743156  0.36329659  0.91913448  1
  O  O177  1  0.92450501  0.36249804  0.91875453  1
  O  O178  1  0.25537911  0.16187506  0.92834404  1
  O  O179  1  0.74124566  0.12638592  0.92029557  1
  O  O180  1  0.32151626  0.16410025  0.42596752  1
  O  O181  1  0.82009945  0.12709311  0.42255101  1
  O  O182  1  0.24447732  0.35879788  0.42288865  1
  O  O183  1  0.75246041  0.35608315  0.41932906  1
  O  O184  1  0.43389245  0.51014991  0.41856954  1
  O  O185  1  0.92598269  0.48197413  0.42387976  1
  O  O186  1  0.18342410  0.49448891  0.07742717  1
  O  O187  1  0.68178475  0.49034825  0.07955897  1
  O  O188  1  0.06564823  0.63616325  0.07781630  1
  O  O189  1  0.56821498  0.63596097  0.07052838  1
  O  O190  1  0.25772430  0.86223059  0.07645254  1
  O  O191  1  0.74666751  0.86027819  0.07303281  1
  O  O192  1  0.18131596  0.86912170  0.57881491  1
  O  O193  1  0.67604601  0.85410548  0.56726254  1
  O  O194  1  0.24431099  0.62783554  0.57107378  1
  O  O195  1  0.75344247  0.64806910  0.57465969  1
  O  O196  1  0.06517585  0.49273701  0.57641903  1
  O  O197  1  0.56359647  0.49470101  0.57524819  1
  O  O198  1  0.15175626  0.83116856  0.25468404  1
  O  O199  1  0.65734685  0.84157103  0.26086261  1
  O  O200  1  0.26270583  0.68653975  0.26587386  1
  O  O201  1  0.76616380  0.69927299  0.25370592  1
  O  O202  1  0.08365532  0.46714631  0.26339312  1
  O  O203  1  0.57766250  0.47148202  0.25819688  1
  O  O204  1  0.15137166  0.47328933  0.76227154  1
  O  O205  1  0.65487867  0.47756292  0.75773012  1
  O  O206  1  0.07940228  0.69781462  0.75735020  1
  O  O207  1  0.58008102  0.70084008  0.75812606  1
  O  O208  1  0.26214714  0.83310424  0.75871429  1
  O  O209  1  0.76559073  0.85409546  0.76122308  1
