# generated using pymatgen
data_Na3Y3NbP5SO24
_symmetry_space_group_name_H-M   'P 1'
_cell_length_a   9.14308380
_cell_length_b   9.15636362
_cell_length_c   23.69675789
_cell_angle_alpha   89.93813368
_cell_angle_beta   90.18145431
_cell_angle_gamma   120.23233926
_symmetry_Int_Tables_number   1
_chemical_formula_structural   Na3Y3NbP5SO24
_chemical_formula_sum   'Na9 Y9 Nb3 P15 S3 O72'
_cell_volume   1714.00268862
_cell_formula_units_Z   3
loop_
 _symmetry_equiv_pos_site_id
 _symmetry_equiv_pos_as_xyz
  1  'x, y, z'
loop_
 _atom_site_type_symbol
 _atom_site_label
 _atom_site_symmetry_multiplicity
 _atom_site_fract_x
 _atom_site_fract_y
 _atom_site_fract_z
 _atom_site_occupancy
  Na  Na0  1  0.64947611  0.64605507  0.75014458  1
  Na  Na1  1  0.30138377  0.96048822  0.08329395  1
  Na  Na2  1  0.33321748  0.02106785  0.41508393  1
  Na  Na3  1  0.97865607  0.99944301  0.50115746  1
  Na  Na4  1  0.98526599  0.99900846  0.99798985  1
  Na  Na5  1  0.66497750  0.31843625  0.83285802  1
  Na  Na6  1  0.66417872  0.33303492  0.32892686  1
  Na  Na7  1  0.33093359  0.66116664  0.16849426  1
  Na  Na8  1  0.31649634  0.65625211  0.66288515  1
  Y  Y9  1  0.99977980  0.00233409  0.35201060  1
  Y  Y10  1  0.00525386  0.00400402  0.85306163  1
  Y  Y11  1  0.99673552  0.00213574  0.64905478  1
  Y  Y12  1  0.99874611  0.99972890  0.14419200  1
  Y  Y13  1  0.67012084  0.32961655  0.68687717  1
  Y  Y14  1  0.66349450  0.33040904  0.18527775  1
  Y  Y15  1  0.33463139  0.65935023  0.01790258  1
  Y  Y16  1  0.33558025  0.65861240  0.51808316  1
  Y  Y17  1  0.33403008  0.67118310  0.31866915  1
  Nb  Nb18  1  0.66971712  0.33738642  0.97839826  1
  Nb  Nb19  1  0.68041666  0.34729414  0.48234753  1
  Nb  Nb20  1  0.32698293  0.66521958  0.81814162  1
  P  P21  1  0.29737196  0.99627167  0.24993281  1
  P  P22  1  0.29615548  0.30567226  0.75227965  1
  P  P23  1  0.00820960  0.70777173  0.75199976  1
  P  P24  1  0.69404025  0.98968542  0.75373045  1
  P  P25  1  0.95718486  0.32924970  0.58256886  1
  P  P26  1  0.67137764  0.62687486  0.58479309  1
  P  P27  1  0.95469597  0.62376215  0.08069155  1
  P  P28  1  0.67061808  0.04954562  0.07926544  1
  P  P29  1  0.37917555  0.33052495  0.08020893  1
  P  P30  1  0.62353397  0.65793141  0.91608910  1
  P  P31  1  0.03253098  0.37612265  0.91729934  1
  P  P32  1  0.34366258  0.96460559  0.91915424  1
  P  P33  1  0.63285019  0.97486960  0.42050961  1
  P  P34  1  0.34249605  0.36824711  0.41835467  1
  P  P35  1  0.03482686  0.66484271  0.41858231  1
  S  S36  1  0.70025692  0.70336646  0.25001457  1
  S  S37  1  0.00322759  0.30021113  0.24963015  1
  S  S38  1  0.37440710  0.04426029  0.57990197  1
  O  O39  1  0.20666556  0.00726109  0.30361629  1
  O  O40  1  0.79682886  0.78961601  0.30126169  1
  O  O41  1  0.98631804  0.20072773  0.30066373  1
  O  O42  1  0.21749512  0.19586041  0.80378822  1
  O  O43  1  0.97330308  0.78866750  0.80236877  1
  O  O44  1  0.80511337  0.01613852  0.80471676  1
  O  O45  1  0.76384210  0.94616853  0.70055347  1
  O  O46  1  0.19121932  0.23202521  0.69810203  1
  O  O47  1  0.04367067  0.81325376  0.69795125  1
  O  O48  1  0.78464548  0.80318118  0.19860080  1
  O  O49  1  0.01212730  0.21284239  0.19810157  1
  O  O50  1  0.19533415  0.98533002  0.19537437  1
  O  O51  1  0.86965296  0.34046977  0.63544789  1
  O  O52  1  0.47255592  0.12692717  0.63108907  1
  O  O53  1  0.65610035  0.53106715  0.63943009  1
  O  O54  1  0.87183799  0.52410097  0.13385052  1
  O  O55  1  0.64849640  0.13043137  0.13255171  1
  O  O56  1  0.47736000  0.34633511  0.13392270  1
  O  O57  1  0.48306698  0.32073679  0.02695132  1
  O  O58  1  0.84306385  0.52178023  0.02648355  1
  O  O59  1  0.68254441  0.16394213  0.02597037  1
  O  O60  1  0.46475160  0.14463084  0.52798398  1
  O  O61  1  0.67643716  0.51465890  0.53240664  1
  O  O62  1  0.84196798  0.32163496  0.52920115  1
  O  O63  1  0.54378277  0.68311770  0.96861634  1
  O  O64  1  0.13515688  0.45534362  0.97038561  1
  O  O65  1  0.31958234  0.86701674  0.97391271  1
  O  O66  1  0.54885416  0.86460819  0.47205001  1
  O  O67  1  0.31150680  0.44692091  0.47014592  1
  O  O68  1  0.15009296  0.69772625  0.46938032  1
  O  O69  1  0.10204074  0.62457366  0.36511585  1
  O  O70  1  0.51605658  0.90276570  0.36790051  1
  O  O71  1  0.37461002  0.47450710  0.36481198  1
  O  O72  1  0.13172327  0.49590643  0.86499182  1
  O  O73  1  0.36343544  0.86188748  0.86767551  1
  O  O74  1  0.50613506  0.63264680  0.86281854  1
  O  O75  1  0.01191493  0.81941648  0.41189093  1
  O  O76  1  0.81137566  0.00418125  0.41253034  1
  O  O77  1  0.19506147  0.18329033  0.41264590  1
  O  O78  1  0.00355211  0.19942717  0.90958823  1
  O  O79  1  0.19492682  0.99186635  0.90997892  1
  O  O80  1  0.80220190  0.80585385  0.90893007  1
  O  O81  1  0.96639681  0.16606598  0.58083727  1
  O  O82  1  0.20670542  0.03303248  0.58145757  1
  O  O83  1  0.83732359  0.79763825  0.58201479  1
  O  O84  1  0.96836064  0.79996001  0.07999426  1
  O  O85  1  0.83114057  0.03614694  0.07983369  1
  O  O86  1  0.20921375  0.15911791  0.07936528  1
  O  O87  1  0.66141797  0.13704714  0.74670935  1
  O  O88  1  0.48218699  0.34679436  0.74644518  1
  O  O89  1  0.85158142  0.52826556  0.74623236  1
  O  O90  1  0.68725730  0.53519435  0.24816919  1
  O  O91  1  0.85303981  0.32204325  0.24784823  1
  O  O92  1  0.47585446  0.15717868  0.24921765  1
  O  O93  1  0.63239823  0.48946059  0.92311052  1
  O  O94  1  0.85660979  0.36947872  0.92171975  1
  O  O95  1  0.51242079  0.14252703  0.92272391  1
  O  O96  1  0.64479168  0.15360093  0.43033696  1
  O  O97  1  0.50446693  0.34806991  0.42895726  1
  O  O98  1  0.85183775  0.50562943  0.42987748  1
  O  O99  1  0.35227665  0.48142684  0.07666926  1
  O  O100  1  0.13605631  0.65345076  0.07669260  1
  O  O101  1  0.50721648  0.87618929  0.07483636  1
  O  O102  1  0.35411025  0.87339071  0.57701529  1
  O  O103  1  0.51459077  0.64527774  0.57857076  1
  O  O104  1  0.13120906  0.48961491  0.57783811  1
  O  O105  1  0.31372820  0.83527607  0.25224386  1
  O  O106  1  0.52834770  0.68278550  0.25228846  1
  O  O107  1  0.16037107  0.46821919  0.25209436  1
  O  O108  1  0.31220165  0.48709685  0.76339488  1
  O  O109  1  0.16878882  0.68790136  0.76509911  1
  O  O110  1  0.51439433  0.82193342  0.76479208  1
