# generated using pymatgen
data_NaMgTa3(PO4)6
_symmetry_space_group_name_H-M   'P 1'
_cell_length_a   8.73554717
_cell_length_b   8.73554689
_cell_length_c   22.75133457
_cell_angle_alpha   90.00000000
_cell_angle_beta   90.00000000
_cell_angle_gamma   120.00000104
_symmetry_Int_Tables_number   1
_chemical_formula_structural   NaMgTa3(PO4)6
_chemical_formula_sum   'Na3 Mg3 Ta9 P18 O72'
_cell_volume   1503.54945078
_cell_formula_units_Z   3
loop_
 _symmetry_equiv_pos_site_id
 _symmetry_equiv_pos_as_xyz
  1  'x, y, z'
loop_
 _atom_site_type_symbol
 _atom_site_label
 _atom_site_symmetry_multiplicity
 _atom_site_fract_x
 _atom_site_fract_y
 _atom_site_fract_z
 _atom_site_occupancy
  Na  Na0  1  0.00000000  0.00000000  0.98507026  1
  Na  Na1  1  0.66666700  0.33333300  0.84352036  1
  Na  Na2  1  0.66666700  0.33333300  0.34260648  1
  Mg  Mg3  1  0.00000000  0.00000000  0.85504143  1
  Mg  Mg4  1  0.66666700  0.33333300  0.97567763  1
  Mg  Mg5  1  0.66666700  0.33333300  0.48021879  1
  Ta  Ta6  1  0.00000000  0.00000000  0.36052289  1
  Ta  Ta7  1  0.00000000  0.00000000  0.64666089  1
  Ta  Ta8  1  0.00000000  0.00000000  0.14338134  1
  Ta  Ta9  1  0.66666700  0.33333300  0.68766788  1
  Ta  Ta10  1  0.66666700  0.33333300  0.18481944  1
  Ta  Ta11  1  0.33333300  0.66666700  0.01842774  1
  Ta  Ta12  1  0.33333300  0.66666700  0.52673545  1
  Ta  Ta13  1  0.33333300  0.66666700  0.31113678  1
  Ta  Ta14  1  0.33333300  0.66666700  0.81125329  1
  P  P15  1  0.28586855  0.00294185  0.25102969  1
  P  P16  1  0.71707330  0.71413145  0.25102969  1
  P  P17  1  0.99705815  0.28292670  0.25102969  1
  P  P18  1  0.28535633  0.28412198  0.75232590  1
  P  P19  1  -0.00123435  0.71464367  0.75232590  1
  P  P20  1  0.71587802  0.00123435  0.75232590  1
  P  P21  1  0.94746686  0.32795122  0.58123908  1
  P  P22  1  0.38048535  0.05253314  0.58123908  1
  P  P23  1  0.67204878  0.61951465  0.58123908  1
  P  P24  1  0.95378004  0.61826911  0.08075874  1
  P  P25  1  0.66449006  0.04621996  0.08075874  1
  P  P26  1  0.38173089  0.33550994  0.08075874  1
  P  P27  1  0.62601221  0.66718963  0.91570748  1
  P  P28  1  0.04117643  0.37398779  0.91570748  1
  P  P29  1  0.33281037  0.95882357  0.91570748  1
  P  P30  1  0.61526637  0.95503823  0.41712980  1
  P  P31  1  0.33977086  0.38473363  0.41712980  1
  P  P32  1  0.04496177  0.66022914  0.41712980  1
  O  O33  1  0.19897393  0.03224749  0.30545340  1
  O  O34  1  0.83327356  0.80102607  0.30545340  1
  O  O35  1  0.96775251  0.16672644  0.30545340  1
  O  O36  1  0.21397011  0.17163362  0.80539423  1
  O  O37  1  0.95766351  0.78602989  0.80539423  1
  O  O38  1  0.82836638  0.04233649  0.80539423  1
  O  O39  1  0.80196906  0.97452624  0.69560838  1
  O  O40  1  0.17255719  0.19803094  0.69560838  1
  O  O41  1  0.02547376  0.82744281  0.69560838  1
  O  O42  1  0.80241159  0.82803704  0.19626207  1
  O  O43  1  0.02562545  0.19758841  0.19626207  1
  O  O44  1  0.17196296  0.97437455  0.19626207  1
  O  O45  1  0.86586120  0.36332352  0.63668139  1
  O  O46  1  0.49746332  0.13413880  0.63668139  1
  O  O47  1  0.63667648  0.50253668  0.63668139  1
  O  O48  1  0.86324061  0.50526193  0.13887902  1
  O  O49  1  0.64202232  0.13675939  0.13887902  1
  O  O50  1  0.49473807  0.35797768  0.13887902  1
  O  O51  1  0.45489540  0.29118472  0.02906285  1
  O  O52  1  0.83629032  0.54510460  0.02906285  1
  O  O53  1  0.70881528  0.16370968  0.02906285  1
  O  O54  1  0.45352734  0.15871760  0.52675265  1
  O  O55  1  0.70519126  0.54647266  0.52675265  1
  O  O56  1  0.84128240  0.29480874  0.52675265  1
  O  O57  1  0.52386199  0.68431804  0.97220585  1
  O  O58  1  0.16045504  0.47613801  0.97220585  1
  O  O59  1  0.31568196  0.83954496  0.97220585  1
  O  O60  1  0.53075581  0.83622686  0.47101098  1
  O  O61  1  0.30547005  0.46924419  0.47101098  1
  O  O62  1  0.16377314  0.69452995  0.47101098  1
  O  O63  1  0.14299831  0.64599575  0.36108894  1
  O  O64  1  0.50299644  0.85700169  0.36108894  1
  O  O65  1  0.35400425  0.49700356  0.36108894  1
  O  O66  1  0.14372691  0.49375090  0.86125803  1
  O  O67  1  0.35002300  0.85627309  0.86125803  1
  O  O68  1  0.50624910  0.64997700  0.86125803  1
  O  O69  1  0.03616856  0.83438691  0.40585299  1
  O  O70  1  0.79821835  0.96383144  0.40585299  1
  O  O71  1  0.16561309  0.20178165  0.40585299  1
  O  O72  1  0.03787202  0.20081522  0.91379035  1
  O  O73  1  0.16294320  0.96212798  0.91379035  1
  O  O74  1  0.79918478  0.83705680  0.91379035  1
  O  O75  1  0.98022475  0.17357365  0.59601307  1
  O  O76  1  0.19334890  0.01977525  0.59601307  1
  O  O77  1  0.82642635  0.80665110  0.59601307  1
  O  O78  1  0.97928989  0.80717525  0.09608297  1
  O  O79  1  0.82788537  0.02071011  0.09608297  1
  O  O80  1  0.19282475  0.17211463  0.09608297  1
  O  O81  1  0.68677522  0.16209093  0.73796844  1
  O  O82  1  0.47531671  0.31322478  0.73796844  1
  O  O83  1  0.83790907  0.52468329  0.73796844  1
  O  O84  1  0.69437108  0.52778423  0.24268502  1
  O  O85  1  0.83341415  0.30562892  0.24268502  1
  O  O86  1  0.47221577  0.16658585  0.24268502  1
  O  O87  1  0.62874663  0.49665665  0.92002502  1
  O  O88  1  0.86791103  0.37125337  0.92002502  1
  O  O89  1  0.50334335  0.13208897  0.92002502  1
  O  O90  1  0.63821513  0.13585424  0.41918367  1
  O  O91  1  0.49764011  0.36178487  0.41918367  1
  O  O92  1  0.86414576  0.50235989  0.41918367  1
  O  O93  1  0.35821017  0.49694497  0.07663436  1
  O  O94  1  0.13873380  0.64178983  0.07663436  1
  O  O95  1  0.50305503  0.86126620  0.07663436  1
  O  O96  1  0.35889652  0.86242127  0.57339979  1
  O  O97  1  0.50352376  0.64110348  0.57339979  1
  O  O98  1  0.13757873  0.49647624  0.57339979  1
  O  O99  1  0.30625839  0.83878368  0.26024963  1
  O  O100  1  0.53252429  0.69374161  0.26024963  1
  O  O101  1  0.16121632  0.46747571  0.26024963  1
  O  O102  1  0.30910339  0.47156688  0.75824134  1
  O  O103  1  0.16246249  0.69089661  0.75824134  1
  O  O104  1  0.52843312  0.83753751  0.75824134  1
