# generated using pymatgen
data_Na4Ta3AlSi5SO24
_symmetry_space_group_name_H-M   'P 1'
_cell_length_a   8.91238226
_cell_length_b   8.87227839
_cell_length_c   22.38024480
_cell_angle_alpha   89.39463822
_cell_angle_beta   90.97497788
_cell_angle_gamma   119.73748168
_symmetry_Int_Tables_number   1
_chemical_formula_structural   Na4Ta3AlSi5SO24
_chemical_formula_sum   'Na12 Ta9 Al3 Si15 S3 O72'
_cell_volume   1536.39548957
_cell_formula_units_Z   3
loop_
 _symmetry_equiv_pos_site_id
 _symmetry_equiv_pos_as_xyz
  1  'x, y, z'
loop_
 _atom_site_type_symbol
 _atom_site_label
 _atom_site_symmetry_multiplicity
 _atom_site_fract_x
 _atom_site_fract_y
 _atom_site_fract_z
 _atom_site_occupancy
  Na  Na0  1  0.63480182  0.62726287  0.74390458  1
  Na  Na1  1  0.99138916  0.36186973  0.74677909  1
  Na  Na2  1  0.37249577  0.00612545  0.74397654  1
  Na  Na3  1  0.66457055  0.68882650  0.08492371  1
  Na  Na4  1  0.02348121  0.33576598  0.08417360  1
  Na  Na5  1  0.32643950  0.02765804  0.41492068  1
  Na  Na6  1  0.98532375  0.99053753  0.49354695  1
  Na  Na7  1  0.01241220  0.99604076  0.99485359  1
  Na  Na8  1  0.66724843  0.33263588  0.83412351  1
  Na  Na9  1  0.69052138  0.34210046  0.32589294  1
  Na  Na10  1  0.32825895  0.67359517  0.16844090  1
  Na  Na11  1  0.34104376  0.67271399  0.66112469  1
  Ta  Ta12  1  0.99696812  0.99871799  0.85557340  1
  Ta  Ta13  1  0.00149156  0.99328355  0.64235600  1
  Ta  Ta14  1  0.00665748  0.00985178  0.14581563  1
  Ta  Ta15  1  0.66720774  0.33376195  0.97749539  1
  Ta  Ta16  1  0.66238772  0.34041142  0.47613873  1
  Ta  Ta17  1  0.33400000  0.66737010  0.02217831  1
  Ta  Ta18  1  0.34328748  0.67821623  0.51976875  1
  Ta  Ta19  1  0.32209215  0.65736043  0.31314604  1
  Ta  Ta20  1  0.33401266  0.66751548  0.81273165  1
  Al  Al21  1  0.98757760  0.01205505  0.36079850  1
  Al  Al22  1  0.64852076  0.32870303  0.69025426  1
  Al  Al23  1  0.68786216  0.33050193  0.18149658  1
  Si  Si24  1  0.98545307  0.28402088  0.25347720  1
  Si  Si25  1  0.28792800  0.28619738  0.74911778  1
  Si  Si26  1  0.99283008  0.70395643  0.74920206  1
  Si  Si27  1  0.71221249  0.00530387  0.74652478  1
  Si  Si28  1  0.38491124  0.05149058  0.58622363  1
  Si  Si29  1  0.66139811  0.61331201  0.58769719  1
  Si  Si30  1  0.95376239  0.61810271  0.08622499  1
  Si  Si31  1  0.65926081  0.04753077  0.08721853  1
  Si  Si32  1  0.39459771  0.33164080  0.08854911  1
  Si  Si33  1  0.62468694  0.66806002  0.91799922  1
  Si  Si34  1  0.04318433  0.37681999  0.91687490  1
  Si  Si35  1  0.33453130  0.95734942  0.91588656  1
  Si  Si36  1  0.62939632  0.95646794  0.41393967  1
  Si  Si37  1  0.32148827  0.37291920  0.41742616  1
  Si  Si38  1  0.04025270  0.67279118  0.41449911  1
  S  S39  1  0.29492042  0.00594069  0.25231620  1
  S  S40  1  0.71469493  0.71287239  0.25199991  1
  S  S41  1  0.95313578  0.33558901  0.58510222  1
  O  O42  1  0.20939725  0.01502068  0.30669495  1
  O  O43  1  0.82227822  0.80244633  0.30425239  1
  O  O44  1  0.97538770  0.16268675  0.30878061  1
  O  O45  1  0.19317080  0.15919657  0.80622208  1
  O  O46  1  0.95695016  0.79707693  0.80561647  1
  O  O47  1  0.83698780  0.03881663  0.80550395  1
  O  O48  1  0.80285625  0.96363427  0.69088419  1
  O  O49  1  0.15708564  0.19870658  0.69182358  1
  O  O50  1  0.03826316  0.83739116  0.69171473  1
  O  O51  1  0.79730287  0.81551716  0.19524062  1
  O  O52  1  0.01661566  0.19355710  0.19195925  1
  O  O53  1  0.17866476  0.97978553  0.19833464  1
  O  O54  1  0.87623406  0.35408742  0.64024955  1
  O  O55  1  0.49506023  0.13694828  0.64656272  1
  O  O56  1  0.64447865  0.50536176  0.64791336  1
  O  O57  1  0.87567370  0.49185759  0.14261752  1
  O  O58  1  0.63150241  0.13134132  0.14490527  1
  O  O59  1  0.52273755  0.37144275  0.14454907  1
  O  O60  1  0.47413843  0.30074524  0.02729916  1
  O  O61  1  0.83008575  0.53783823  0.02633462  1
  O  O62  1  0.70939213  0.17289842  0.02790444  1
  O  O63  1  0.47914849  0.16227368  0.52549325  1
  O  O64  1  0.68907715  0.52125598  0.52858745  1
  O  O65  1  0.84769352  0.31527053  0.53073689  1
  O  O66  1  0.53071224  0.68701597  0.97728612  1
  O  O67  1  0.15935577  0.46735051  0.97708548  1
  O  O68  1  0.31371828  0.83455140  0.97356724  1
  O  O69  1  0.52959777  0.83520710  0.47349235  1
  O  O70  1  0.29978756  0.47288095  0.47448541  1
  O  O71  1  0.17212990  0.70949611  0.47210689  1
  O  O72  1  0.13481956  0.63612011  0.35715159  1
  O  O73  1  0.49374623  0.86504047  0.35735589  1
  O  O74  1  0.35986258  0.49999080  0.35866139  1
  O  O75  1  0.13955911  0.49560136  0.85750775  1
  O  O76  1  0.35595565  0.86577270  0.85548026  1
  O  O77  1  0.50808533  0.64665152  0.85754572  1
  O  O78  1  0.02852505  0.84515359  0.40170382  1
  O  O79  1  0.81323531  0.97027882  0.40999047  1
  O  O80  1  0.16363734  0.17904812  0.40944013  1
  O  O81  1  0.02914778  0.18817378  0.90997827  1
  O  O82  1  0.15998442  0.97061076  0.91051478  1
  O  O83  1  0.81225444  0.84121973  0.91143714  1
  O  O84  1  0.96958481  0.17538800  0.58672173  1
  O  O85  1  0.19095059  0.03546996  0.58882885  1
  O  O86  1  0.83325383  0.81118540  0.58925256  1
  O  O87  1  0.96933646  0.80971290  0.09442766  1
  O  O88  1  0.83439239  0.02100790  0.09322994  1
  O  O89  1  0.19308062  0.16467998  0.09454962  1
  O  O90  1  0.69256280  0.17674035  0.74034854  1
  O  O91  1  0.47972873  0.30840557  0.74571983  1
  O  O92  1  0.82864235  0.51136190  0.74153723  1
  O  O93  1  0.69207855  0.53816360  0.24693956  1
  O  O94  1  0.81740266  0.30848984  0.24451487  1
  O  O95  1  0.46300017  0.16069101  0.24546746  1
  O  O96  1  0.63885601  0.49337919  0.92161844  1
  O  O97  1  0.85566062  0.36271217  0.92231847  1
  O  O98  1  0.50695457  0.14493561  0.92244837  1
  O  O99  1  0.63694031  0.14391444  0.42351728  1
  O  O100  1  0.49931471  0.35775465  0.42337760  1
  O  O101  1  0.85442234  0.49741982  0.42399813  1
  O  O102  1  0.36077400  0.49935408  0.08003587  1
  O  O103  1  0.14708160  0.64098351  0.07710229  1
  O  O104  1  0.50110263  0.84752226  0.07908026  1
  O  O105  1  0.35472390  0.85264832  0.57813691  1
  O  O106  1  0.48812496  0.63355634  0.57832950  1
  O  O107  1  0.12769200  0.49070488  0.57929064  1
  O  O108  1  0.30908527  0.84292739  0.25148822  1
  O  O109  1  0.54034277  0.70375153  0.25326421  1
  O  O110  1  0.16763215  0.48130297  0.25517127  1
  O  O111  1  0.30683976  0.48017024  0.75479518  1
  O  O112  1  0.16984767  0.69027301  0.75434960  1
  O  O113  1  0.51956429  0.83075888  0.75380819  1
