# generated using pymatgen
data_CsReF8
_symmetry_space_group_name_H-M   'P 1'
_cell_length_a   7.77976452
_cell_length_b   7.77976452
_cell_length_c   5.13288672
_cell_angle_alpha   90.00000000
_cell_angle_beta   90.00000000
_cell_angle_gamma   90.00000000
_symmetry_Int_Tables_number   1
_chemical_formula_structural   CsReF8
_chemical_formula_sum   'Cs2 Re2 F16'
_cell_volume   310.66661358
_cell_formula_units_Z   2
loop_
 _symmetry_equiv_pos_site_id
 _symmetry_equiv_pos_as_xyz
  1  'x, y, z'
loop_
 _atom_site_type_symbol
 _atom_site_label
 _atom_site_symmetry_multiplicity
 _atom_site_fract_x
 _atom_site_fract_y
 _atom_site_fract_z
 _atom_site_occupancy
  Cs  Cs0  1  0.00000000  0.00000000  0.50000000  1
  Cs  Cs1  1  0.50000000  0.50000000  0.50000000  1
  Re  Re2  1  0.00000000  0.50000000  0.10835908  1
  Re  Re3  1  0.50000000  0.00000000  0.89164092  1
  F  F4  1  0.70743698  0.00000000  0.08978311  1
  F  F5  1  0.29256302  0.00000000  0.08978311  1
  F  F6  1  0.50000000  0.20743698  0.08978311  1
  F  F7  1  0.50000000  0.79256302  0.08978311  1
  F  F8  1  0.85385735  0.35385735  0.31306516  1
  F  F9  1  0.85385735  0.64614265  0.31306516  1
  F  F10  1  0.14614265  0.35385735  0.31306516  1
  F  F11  1  0.14614265  0.64614265  0.31306516  1
  F  F12  1  0.64614265  0.85385735  0.68693484  1
  F  F13  1  0.35385735  0.14614265  0.68693484  1
  F  F14  1  0.35385735  0.85385735  0.68693484  1
  F  F15  1  0.64614265  0.14614265  0.68693484  1
  F  F16  1  0.00000000  0.29256302  0.91021689  1
  F  F17  1  0.79256302  0.50000000  0.91021689  1
  F  F18  1  0.20743698  0.50000000  0.91021689  1
  F  F19  1  0.00000000  0.70743698  0.91021689  1
