# generated using pymatgen
data_Rb2PrCl5
_symmetry_space_group_name_H-M   'P 1'
_cell_length_a   8.24291579
_cell_length_b   8.97591381
_cell_length_c   13.18356891
_cell_angle_alpha   90.00000000
_cell_angle_beta   90.00000000
_cell_angle_gamma   90.00000000
_symmetry_Int_Tables_number   1
_chemical_formula_structural   Rb2PrCl5
_chemical_formula_sum   'Rb8 Pr4 Cl20'
_cell_volume   975.42196351
_cell_formula_units_Z   4
loop_
 _symmetry_equiv_pos_site_id
 _symmetry_equiv_pos_as_xyz
  1  'x, y, z'
loop_
 _atom_site_type_symbol
 _atom_site_label
 _atom_site_symmetry_multiplicity
 _atom_site_fract_x
 _atom_site_fract_y
 _atom_site_fract_z
 _atom_site_occupancy
  Rb  Rb0  1  0.44223928  0.50608475  0.67085354  1
  Rb  Rb1  1  0.94223928  0.49391525  0.82914646  1
  Rb  Rb2  1  0.55776072  0.00608475  0.32914646  1
  Rb  Rb3  1  0.05776072  0.99391525  0.17085354  1
  Rb  Rb4  1  0.94223928  0.00608475  0.82914646  1
  Rb  Rb5  1  0.44223928  0.99391525  0.67085354  1
  Rb  Rb6  1  0.05776072  0.50608475  0.17085354  1
  Rb  Rb7  1  0.55776072  0.49391525  0.32914646  1
  Pr  Pr8  1  0.92702934  0.75000000  0.50551789  1
  Pr  Pr9  1  0.42702934  0.25000000  0.99448211  1
  Pr  Pr10  1  0.07297066  0.25000000  0.49448211  1
  Pr  Pr11  1  0.57297066  0.75000000  0.00551789  1
  Cl  Cl12  1  0.33586665  0.95727024  0.92752398  1
  Cl  Cl13  1  0.83586665  0.04272976  0.57247602  1
  Cl  Cl14  1  0.66413335  0.45727024  0.07247602  1
  Cl  Cl15  1  0.16413335  0.54272976  0.42752398  1
  Cl  Cl16  1  0.66413335  0.04272976  0.07247602  1
  Cl  Cl17  1  0.16413335  0.95727024  0.42752398  1
  Cl  Cl18  1  0.33586665  0.54272976  0.92752398  1
  Cl  Cl19  1  0.83586665  0.45727024  0.57247602  1
  Cl  Cl20  1  0.38059770  0.75000000  0.17925220  1
  Cl  Cl21  1  0.88059770  0.25000000  0.32074780  1
  Cl  Cl22  1  0.61940230  0.25000000  0.82074780  1
  Cl  Cl23  1  0.11940230  0.75000000  0.67925220  1
  Cl  Cl24  1  0.08711614  0.25000000  0.99011328  1
  Cl  Cl25  1  0.58711614  0.75000000  0.50988672  1
  Cl  Cl26  1  0.91288386  0.75000000  0.00988672  1
  Cl  Cl27  1  0.41288386  0.25000000  0.49011328  1
  Cl  Cl28  1  0.65561118  0.75000000  0.79951452  1
  Cl  Cl29  1  0.15561118  0.25000000  0.70048548  1
  Cl  Cl30  1  0.34438882  0.25000000  0.20048548  1
  Cl  Cl31  1  0.84438882  0.75000000  0.29951452  1
