# generated using pymatgen
data_MgFe6(OF)6
_symmetry_space_group_name_H-M   'P 1'
_cell_length_a   5.06181132
_cell_length_b   14.37992635
_cell_length_c   3.15228707
_cell_angle_alpha   89.16829916
_cell_angle_beta   90.23533075
_cell_angle_gamma   96.19330394
_symmetry_Int_Tables_number   1
_chemical_formula_structural   MgFe6(OF)6
_chemical_formula_sum   'Mg1 Fe6 O6 F6'
_cell_volume   228.08621984
_cell_formula_units_Z   1
loop_
 _symmetry_equiv_pos_site_id
 _symmetry_equiv_pos_as_xyz
  1  'x, y, z'
loop_
 _atom_site_type_symbol
 _atom_site_label
 _atom_site_symmetry_multiplicity
 _atom_site_fract_x
 _atom_site_fract_y
 _atom_site_fract_z
 _atom_site_occupancy
  Mg  Mg0  1  0.85665924  0.82709740  0.95001375  1
  Fe  Fe1  1  0.96930139  0.01726824  0.99838120  1
  Fe  Fe2  1  0.07696925  0.31904760  0.00183148  1
  Fe  Fe3  1  0.18068044  0.62542035  0.97961698  1
  Fe  Fe4  1  0.53582213  0.19198421  0.51061924  1
  Fe  Fe5  1  0.55991276  0.47665708  0.49480562  1
  Fe  Fe6  1  0.34016252  0.84358188  0.45552343  1
  O  O7  1  0.22363520  0.26349811  0.50618653  1
  O  O8  1  0.33972793  0.58458405  0.48354959  1
  O  O9  1  0.03481332  0.92044721  0.45906539  1
  O  O10  1  0.16633574  0.75294981  0.96157154  1
  O  O11  1  0.38919867  0.42368028  0.99701961  1
  O  O12  1  0.72261183  0.24678273  0.00805683  1
  F  F13  1  0.33831330  0.10807781  0.01195294  1
  F  F14  1  0.81081035  0.55954308  0.98429089  1
  F  F15  1  0.57326926  0.91464515  0.95474619  1
  F  F16  1  0.79483160  0.08739642  0.51877396  1
  F  F17  1  0.89201978  0.40572082  0.49908244  1
  F  F18  1  0.66714627  0.76495079  0.45407942  1
