# generated using pymatgen
data_Na4Al2Si(PO6)2
_symmetry_space_group_name_H-M   'P 1'
_cell_length_a   8.71392216
_cell_length_b   8.71392189
_cell_length_c   21.51489371
_cell_angle_alpha   90.00101353
_cell_angle_beta   89.99898648
_cell_angle_gamma   120.00160682
_symmetry_Int_Tables_number   1
_chemical_formula_structural   Na4Al2Si(PO6)2
_chemical_formula_sum   'Na24 Al12 Si6 P12 O72'
_cell_volume   1414.78401200
_cell_formula_units_Z   6
loop_
 _symmetry_equiv_pos_site_id
 _symmetry_equiv_pos_as_xyz
  1  'x, y, z'
loop_
 _atom_site_type_symbol
 _atom_site_label
 _atom_site_symmetry_multiplicity
 _atom_site_fract_x
 _atom_site_fract_y
 _atom_site_fract_z
 _atom_site_occupancy
  Na  Na0  1  0.63764901  0.00275326  0.25078139  1
  Na  Na1  1  0.36229271  0.36508889  0.24928179  1
  Na  Na2  1  0.00001926  0.62902765  0.24990791  1
  Na  Na3  1  0.63491111  0.63770729  0.74928179  1
  Na  Na4  1  0.99724674  0.36235099  0.75078139  1
  Na  Na5  1  0.37097235  0.99998074  0.74990791  1
  Na  Na6  1  0.30135497  0.32982413  0.58268804  1
  Na  Na7  1  0.03711487  0.70301406  0.58196477  1
  Na  Na8  1  0.66415495  0.96752440  0.58549808  1
  Na  Na9  1  0.29698594  0.96288513  0.08196477  1
  Na  Na10  1  0.67017587  0.69864503  0.08268804  1
  Na  Na11  1  0.03247560  0.33584505  0.08549808  1
  Na  Na12  1  0.97050997  0.66979262  0.91864450  1
  Na  Na13  1  0.69620309  0.03269712  0.91458391  1
  Na  Na14  1  0.33335079  0.29748851  0.91672767  1
  Na  Na15  1  0.96730288  0.30379691  0.41458391  1
  Na  Na16  1  0.33020738  0.02949003  0.41864450  1
  Na  Na17  1  0.70251149  0.66664921  0.41672767  1
  Na  Na18  1  0.00300485  0.99818091  0.49998985  1
  Na  Na19  1  0.00181909  0.99699515  0.99998985  1
  Na  Na20  1  0.66497674  0.32825690  0.83339032  1
  Na  Na21  1  0.67174310  0.33502326  0.33339032  1
  Na  Na22  1  0.32792745  0.66310980  0.16664812  1
  Na  Na23  1  0.33689020  0.67207255  0.66664812  1
  Al  Al24  1  0.99900452  0.99880200  0.35142909  1
  Al  Al25  1  0.00119800  0.00099548  0.85142909  1
  Al  Al26  1  0.00035687  0.99878347  0.64851013  1
  Al  Al27  1  0.00121653  0.99964313  0.14851013  1
  Al  Al28  1  0.66466988  0.32416052  0.68499072  1
  Al  Al29  1  0.67583948  0.33533012  0.18499072  1
  Al  Al30  1  0.66580735  0.33391420  0.98193970  1
  Al  Al31  1  0.66608580  0.33419265  0.48193970  1
  Al  Al32  1  0.32599243  0.66904414  0.01813412  1
  Al  Al33  1  0.33095586  0.67400757  0.51813412  1
  Al  Al34  1  0.32330151  0.65909185  0.31509745  1
  Al  Al35  1  0.34090815  0.67669849  0.81509745  1
  Si  Si36  1  0.00000345  0.28799963  0.24997978  1
  Si  Si37  1  0.71200037  -0.00000345  0.74997978  1
  Si  Si38  1  0.37567955  0.04305753  0.58298029  1
  Si  Si39  1  0.95694247  0.62432045  0.08298029  1
  Si  Si40  1  0.33341526  0.95995578  0.91660210  1
  Si  Si41  1  0.04004422  0.66658474  0.41660210  1
  P  P42  1  0.29043703  0.00125270  0.24983541  1
  P  P43  1  0.70938651  0.71077419  0.25008886  1
  P  P44  1  0.28922581  0.29061349  0.75008886  1
  P  P45  1  0.99874730  0.70956297  0.74983541  1
  P  P46  1  0.95604372  0.33349969  0.58331720  1
  P  P47  1  0.66595548  0.62058574  0.58368130  1
  P  P48  1  0.66650031  0.04395628  0.08331720  1
  P  P49  1  0.37941426  0.33404452  0.08368130  1
  P  P50  1  0.62003985  0.66585232  0.91706359  1
  P  P51  1  0.04663195  0.37926484  0.91623777  1
  P  P52  1  0.62073516  0.95336805  0.41623777  1
  P  P53  1  0.33414768  0.37996015  0.41706359  1
  O  O54  1  0.20683931  0.03610723  0.30784277  1
  O  O55  1  0.82989727  0.79257772  0.30772450  1
  O  O56  1  0.96274521  0.16142367  0.31074208  1
  O  O57  1  0.20742228  0.17010273  0.80772450  1
  O  O58  1  0.96389277  0.79316069  0.80784277  1
  O  O59  1  0.83857633  0.03725479  0.81074208  1
  O  O60  1  0.80139569  0.96278409  0.68930287  1
  O  O61  1  0.17088497  0.20688246  0.69218905  1
  O  O62  1  0.03736765  0.82990416  0.69227530  1
  O  O63  1  0.79311754  0.82911503  0.19218905  1
  O  O64  1  0.03721591  0.19860431  0.18930287  1
  O  O65  1  0.17009584  0.96263235  0.19227530  1
  O  O66  1  0.87515946  0.37318175  0.64090088  1
  O  O67  1  0.50161175  0.13153533  0.64347570  1
  O  O68  1  0.63322677  0.50329356  0.64165734  1
  O  O69  1  0.86846467  0.49838825  0.14347570  1
  O  O70  1  0.62681825  0.12484054  0.14090088  1
  O  O71  1  0.49670644  0.36677323  0.14165734  1
  O  O72  1  0.46143175  0.29751448  0.02563065  1
  O  O73  1  0.82938606  0.53516715  0.02241067  1
  O  O74  1  0.70206911  0.16325367  0.02555776  1
  O  O75  1  0.46483285  0.17061394  0.52241067  1
  O  O76  1  0.70248552  0.53856825  0.52563065  1
  O  O77  1  0.83674633  0.29793089  0.52555776  1
  O  O78  1  0.53541348  0.69947536  0.97497720  1
  O  O79  1  0.16564896  0.46052543  0.97426993  1
  O  O80  1  0.29469777  0.83301629  0.97695223  1
  O  O81  1  0.53947457  0.83435104  0.47426993  1
  O  O82  1  0.30052464  0.46458652  0.47497720  1
  O  O83  1  0.16698371  0.70530223  0.47695223  1
  O  O84  1  0.12838251  0.62797032  0.35629980  1
  O  O85  1  0.50270029  0.86887083  0.35843156  1
  O  O86  1  0.37168238  0.49879836  0.35912929  1
  O  O87  1  0.13112917  0.49729971  0.85843156  1
  O  O88  1  0.37202968  0.87161749  0.85629980  1
  O  O89  1  0.50120164  0.62831762  0.85912929  1
  O  O90  1  0.02026504  0.84439663  0.40843609  1
  O  O91  1  0.80867384  0.97500517  0.41059731  1
  O  O92  1  0.16677903  0.19300070  0.41043488  1
  O  O93  1  0.02499483  0.19132616  0.91059731  1
  O  O94  1  0.15560337  0.97973496  0.90843609  1
  O  O95  1  0.80699930  0.83322097  0.91043488  1
  O  O96  1  0.97434350  0.16562341  0.58998538  1
  O  O97  1  0.17714945  0.02139898  0.59115849  1
  O  O98  1  0.83258061  0.80821942  0.58936380  1
  O  O99  1  0.97860102  0.82285055  0.09115849  1
  O  O100  1  0.83437659  0.02565650  0.08998538  1
  O  O101  1  0.19178058  0.16741939  0.08936380  1
  O  O102  1  0.69251771  0.17844989  0.74394654  1
  O  O103  1  0.47764301  0.31466025  0.74342411  1
  O  O104  1  0.83016181  0.52441640  0.74230085  1
  O  O105  1  0.68533975  0.52235699  0.24342411  1
  O  O106  1  0.82155011  0.30748229  0.24394654  1
  O  O107  1  0.47558360  0.16983819  0.24230085  1
  O  O108  1  0.64168068  0.49968839  0.92268858  1
  O  O109  1  0.85969572  0.35959457  0.92301338  1
  O  O110  1  0.51102285  0.15746958  0.92487140  1
  O  O111  1  0.64040543  0.14030428  0.42301338  1
  O  O112  1  0.50031161  0.35831932  0.42268858  1
  O  O113  1  0.84253042  0.48897715  0.42487140  1
  O  O114  1  0.36132862  0.50189631  0.07610503  1
  O  O115  1  0.15392144  0.64205389  0.07696164  1
  O  O116  1  0.50243996  0.85525307  0.07661508  1
  O  O117  1  0.35794611  0.84607856  0.57696164  1
  O  O118  1  0.49810369  0.63867138  0.57610503  1
  O  O119  1  0.14474693  0.49756004  0.57661508  1
  O  O120  1  0.31457637  0.83705113  0.25666571  1
  O  O121  1  0.52440116  0.69422016  0.25766812  1
  O  O122  1  0.17838360  0.48591215  0.25600016  1
  O  O123  1  0.30577984  0.47559884  0.75766812  1
  O  O124  1  0.16294887  0.68542363  0.75666571  1
  O  O125  1  0.51408785  0.82161640  0.75600016  1
