# generated using pymatgen
data_MgV2CoO6
_symmetry_space_group_name_H-M   'P 1'
_cell_length_a   3.82061592
_cell_length_b   5.54307432
_cell_length_c   6.82436877
_cell_angle_alpha   83.65705226
_cell_angle_beta   89.99809966
_cell_angle_gamma   110.14214495
_symmetry_Int_Tables_number   1
_chemical_formula_structural   MgV2CoO6
_chemical_formula_sum   'Mg1 V2 Co1 O6'
_cell_volume   134.74419968
_cell_formula_units_Z   1
loop_
 _symmetry_equiv_pos_site_id
 _symmetry_equiv_pos_as_xyz
  1  'x, y, z'
loop_
 _atom_site_type_symbol
 _atom_site_label
 _atom_site_symmetry_multiplicity
 _atom_site_fract_x
 _atom_site_fract_y
 _atom_site_fract_z
 _atom_site_occupancy
  Mg  Mg0  1  0.14896932  0.32155914  0.10412518  1
  V  V1  1  0.80524609  0.63444558  0.33455188  1
  V  V2  1  0.22306672  0.46978052  0.67587726  1
  Co  Co3  1  0.88232810  0.78864879  0.92236946  1
  O  O4  1  0.77445435  0.57267692  0.62378323  1
  O  O5  1  0.07047016  0.16446182  0.80272834  1
  O  O6  1  0.95748332  0.93979239  0.20409891  1
  O  O7  1  0.25383419  0.53145220  0.38409740  1
  O  O8  1  0.32544620  0.67463535  0.88620536  1
  O  O9  1  0.69570055  0.41504630  0.13623898  1
