# generated using pymatgen
data_TaAlP2SO12
_symmetry_space_group_name_H-M   'P 1'
_cell_length_a   8.54339424
_cell_length_b   8.57654348
_cell_length_c   22.02725814
_cell_angle_alpha   89.78578319
_cell_angle_beta   90.00000000
_cell_angle_gamma   119.87222550
_symmetry_Int_Tables_number   1
_chemical_formula_structural   TaAlP2SO12
_chemical_formula_sum   'Ta6 Al6 P12 S6 O72'
_cell_volume   1399.54707478
_cell_formula_units_Z   6
loop_
 _symmetry_equiv_pos_site_id
 _symmetry_equiv_pos_as_xyz
  1  'x, y, z'
loop_
 _atom_site_type_symbol
 _atom_site_label
 _atom_site_symmetry_multiplicity
 _atom_site_fract_x
 _atom_site_fract_y
 _atom_site_fract_z
 _atom_site_occupancy
  Ta  Ta0  1  0.99369092  0.00378589  0.64056784  1
  Ta  Ta1  1  0.01009498  0.00378589  0.14056784  1
  Ta  Ta2  1  0.66035792  0.33711889  0.97390084  1
  Ta  Ta3  1  0.67676198  0.33711889  0.47390084  1
  Ta  Ta4  1  0.32702392  0.67045289  0.30723484  1
  Ta  Ta5  1  0.34342798  0.67045289  0.80723484  1
  Al  Al6  1  0.00026431  0.00409039  0.35554914  1
  Al  Al7  1  0.00382608  0.00409039  0.85554914  1
  Al  Al8  1  0.66693131  0.33742339  0.68888214  1
  Al  Al9  1  0.67049308  0.33742339  0.18888214  1
  Al  Al10  1  0.33359731  0.67075739  0.02221614  1
  Al  Al11  1  0.33715908  0.67075739  0.52221614  1
  P  P12  1  0.29457108  0.02205442  0.25188226  1
  P  P13  1  0.98312344  0.27339695  0.25170150  1
  P  P14  1  0.29027351  0.27339695  0.75170150  1
  P  P15  1  0.72748334  0.02205442  0.75188226  1
  P  P16  1  0.96123808  0.35538742  0.58521526  1
  P  P17  1  0.64979044  0.60672995  0.58503450  1
  P  P18  1  0.95694051  0.60672995  0.08503450  1
  P  P19  1  0.39415034  0.35538742  0.08521526  1
  P  P20  1  0.62790408  0.68872142  0.91854926  1
  P  P21  1  0.31645644  0.94006395  0.91836850  1
  P  P22  1  0.62360651  0.94006395  0.41836850  1
  P  P23  1  0.06081634  0.68872142  0.41854926  1
  S  S24  1  0.72082692  0.70844363  0.25096883  1
  S  S25  1  0.98761671  0.70844363  0.75096883  1
  S  S26  1  0.38749392  0.04177663  0.58430183  1
  S  S27  1  0.65428371  0.04177663  0.08430183  1
  S  S28  1  0.05415992  0.37511063  0.91763583  1
  S  S29  1  0.32094971  0.37511063  0.41763583  1
  O  O30  1  0.19993708  0.04174845  0.30670237  1
  O  O31  1  0.83049853  0.79241114  0.30463699  1
  O  O32  1  0.95893816  0.15781353  0.30697790  1
  O  O33  1  0.19887537  0.15781353  0.80697790  1
  O  O34  1  0.96191262  0.79241114  0.80463699  1
  O  O35  1  0.84181137  0.04174845  0.80670237  1
  O  O36  1  0.80369933  0.97353849  0.69430852  1
  O  O37  1  0.16766307  0.19026532  0.69436800  1
  O  O38  1  0.02959304  0.82357530  0.69579131  1
  O  O39  1  0.79398225  0.82357530  0.19579131  1
  O  O40  1  0.02260225  0.19026532  0.19436800  1
  O  O41  1  0.16983916  0.97353849  0.19430852  1
  O  O42  1  0.86660408  0.37508145  0.64003537  1
  O  O43  1  0.49716553  0.12574414  0.63796999  1
  O  O44  1  0.62560516  0.49114653  0.64031090  1
  O  O45  1  0.86554237  0.49114653  0.14031090  1
  O  O46  1  0.62857962  0.12574414  0.13796999  1
  O  O47  1  0.50847837  0.37508145  0.14003537  1
  O  O48  1  0.47036633  0.30687149  0.02764152  1
  O  O49  1  0.83433007  0.52359832  0.02770100  1
  O  O50  1  0.69626004  0.15690830  0.02912431  1
  O  O51  1  0.46064925  0.15690830  0.52912431  1
  O  O52  1  0.68926925  0.52359832  0.52770100  1
  O  O53  1  0.83650616  0.30687149  0.52764152  1
  O  O54  1  0.53327008  0.70841545  0.97336937  1
  O  O55  1  0.16383153  0.45907814  0.97130399  1
  O  O56  1  0.29227116  0.82448053  0.97364490  1
  O  O57  1  0.53220837  0.82448053  0.47364490  1
  O  O58  1  0.29524562  0.45907814  0.47130399  1
  O  O59  1  0.17514437  0.70841545  0.47336937  1
  O  O60  1  0.13703233  0.64020549  0.36097552  1
  O  O61  1  0.50099607  0.85693232  0.36103500  1
  O  O62  1  0.36292604  0.49024230  0.36245831  1
  O  O63  1  0.12731525  0.49024230  0.86245831  1
  O  O64  1  0.35593525  0.85693232  0.86103500  1
  O  O65  1  0.50317216  0.64020549  0.86097552  1
  O  O66  1  0.03684223  0.84711198  0.40524870  1
  O  O67  1  0.80856040  0.96680057  0.40601322  1
  O  O68  1  0.16438167  0.19856930  0.40857037  1
  O  O69  1  0.03418763  0.19856930  0.90857037  1
  O  O70  1  0.15824018  0.96680057  0.90601322  1
  O  O71  1  0.81026975  0.84711198  0.90524870  1
  O  O72  1  0.97776697  0.18002907  0.59180292  1
  O  O73  1  0.20269807  0.02090413  0.59153623  1
  O  O74  1  0.82625753  0.79546143  0.59337391  1
  O  O75  1  0.96920389  0.79546143  0.09337391  1
  O  O76  1  0.81820606  0.02090413  0.09153623  1
  O  O77  1  0.20226210  0.18002907  0.09180292  1
  O  O78  1  0.70350923  0.18044498  0.73858170  1
  O  O79  1  0.47522740  0.30013357  0.73934622  1
  O  O80  1  0.83104867  0.53190230  0.74190337  1
  O  O81  1  0.70085463  0.53190230  0.24190337  1
  O  O82  1  0.82490718  0.30013357  0.23934622  1
  O  O83  1  0.47693675  0.18044498  0.23858170  1
  O  O84  1  0.64443397  0.51336207  0.92513592  1
  O  O85  1  0.86936507  0.35423713  0.92486923  1
  O  O86  1  0.49292453  0.12879443  0.92670691  1
  O  O87  1  0.63587089  0.12879443  0.42670691  1
  O  O88  1  0.48487306  0.35423713  0.42486923  1
  O  O89  1  0.86892910  0.51336207  0.42513592  1
  O  O90  1  0.37017523  0.51377898  0.07191570  1
  O  O91  1  0.14189340  0.63346757  0.07268022  1
  O  O92  1  0.49771467  0.86523630  0.07523737  1
  O  O93  1  0.36752063  0.86523630  0.57523737  1
  O  O94  1  0.49157318  0.63346757  0.57268022  1
  O  O95  1  0.14360275  0.51377898  0.57191570  1
  O  O96  1  0.31109997  0.84669607  0.25846992  1
  O  O97  1  0.53603107  0.68757113  0.25820323  1
  O  O98  1  0.15959053  0.46212843  0.26004091  1
  O  O99  1  0.30253689  0.46212843  0.76004091  1
  O  O100  1  0.15153906  0.68757113  0.75820323  1
  O  O101  1  0.53559510  0.84669607  0.75846992  1
