# generated using pymatgen
data_Na14Ca4Sc4Si5S7O48
_symmetry_space_group_name_H-M   'P 1'
_cell_length_a   18.74345254
_cell_length_b   9.33663173
_cell_length_c   22.63535676
_cell_angle_alpha   89.94243444
_cell_angle_beta   89.96999845
_cell_angle_gamma   119.98278155
_symmetry_Int_Tables_number   1
_chemical_formula_structural   Na14Ca4Sc4Si5S7O48
_chemical_formula_sum   'Na42 Ca12 Sc12 Si15 S21 O144'
_cell_volume   3431.09385346
_cell_formula_units_Z   3
loop_
 _symmetry_equiv_pos_site_id
 _symmetry_equiv_pos_as_xyz
  1  'x, y, z'
loop_
 _atom_site_type_symbol
 _atom_site_label
 _atom_site_symmetry_multiplicity
 _atom_site_fract_x
 _atom_site_fract_y
 _atom_site_fract_z
 _atom_site_occupancy
  Na  Na0  1  0.80773773  0.99409828  0.24521954  1
  Na  Na1  1  0.18298838  0.34564301  0.25283002  1
  Na  Na2  1  0.67910068  0.34648349  0.24987535  1
  Na  Na3  1  0.00783073  0.65487325  0.24371220  1
  Na  Na4  1  0.50677626  0.65086727  0.23195363  1
  Na  Na5  1  0.32105997  0.62032214  0.75130632  1
  Na  Na6  1  0.00534735  0.36087088  0.73234901  1
  Na  Na7  1  0.50738638  0.37541293  0.74389937  1
  Na  Na8  1  0.18413238  0.01936814  0.74957540  1
  Na  Na9  1  0.66922382  0.00182767  0.75190818  1
  Na  Na10  1  0.14811661  0.31714640  0.58475517  1
  Na  Na11  1  0.65517890  0.31637492  0.58533990  1
  Na  Na12  1  0.32167743  0.97393521  0.59427987  1
  Na  Na13  1  0.83443716  0.99589709  0.58915257  1
  Na  Na14  1  0.16080561  0.00098176  0.07133428  1
  Na  Na15  1  0.64690881  0.97670160  0.07583645  1
  Na  Na16  1  0.33747788  0.67585569  0.08281937  1
  Na  Na17  1  0.81930137  0.66965163  0.08466533  1
  Na  Na18  1  0.48461621  0.67740334  0.91744782  1
  Na  Na19  1  0.98976835  0.67809277  0.91447087  1
  Na  Na20  1  0.34141164  0.03628284  0.91050619  1
  Na  Na21  1  0.83879551  0.02097313  0.91087315  1
  Na  Na22  1  0.17005457  0.28015433  0.91426720  1
  Na  Na23  1  0.66588585  0.27470407  0.91489373  1
  Na  Na24  1  0.49154564  0.30340911  0.42099495  1
  Na  Na25  1  0.98893961  0.29790398  0.43511559  1
  Na  Na26  1  0.16653746  0.06038740  0.42231447  1
  Na  Na27  1  0.66716671  0.05491006  0.42156022  1
  Na  Na28  1  0.34436884  0.65899410  0.41877611  1
  Na  Na29  1  0.83855129  0.64927919  0.41850661  1
  Na  Na30  1  0.01504046  0.01968917  0.50886221  1
  Na  Na31  1  0.51914632  0.00552997  0.50683368  1
  Na  Na32  1  0.01636109  0.03473084  0.00211716  1
  Na  Na33  1  0.51535218  0.00971508  0.00406795  1
  Na  Na34  1  0.32932913  0.33705758  0.82621110  1
  Na  Na35  1  0.80919154  0.32528586  0.82665272  1
  Na  Na36  1  0.31504857  0.29716773  0.32861655  1
  Na  Na37  1  0.80849363  0.31027011  0.33496882  1
  Na  Na38  1  0.17280325  0.67307210  0.16484919  1
  Na  Na39  1  0.65096226  0.64116444  0.16112557  1
  Na  Na40  1  0.15316227  0.65814478  0.66372043  1
  Na  Na41  1  0.66208705  0.67083162  0.67009442  1
  Ca  Ca42  1  0.01087409  0.01524663  0.34998954  1
  Ca  Ca43  1  0.50768983  0.01248624  0.34888549  1
  Ca  Ca44  1  0.00654501  0.00182569  0.84798085  1
  Ca  Ca45  1  0.50975985  0.99737852  0.84659783  1
  Ca  Ca46  1  0.33237547  0.33344548  0.67863414  1
  Ca  Ca47  1  0.82740290  0.33101034  0.17676681  1
  Ca  Ca48  1  0.33190409  0.33393238  0.98890790  1
  Ca  Ca49  1  0.82567369  0.31922864  0.98617438  1
  Ca  Ca50  1  0.32541391  0.33211215  0.48755250  1
  Ca  Ca51  1  0.83124875  0.32970673  0.49120625  1
  Ca  Ca52  1  0.66327801  0.66004940  0.31495961  1
  Ca  Ca53  1  0.16454543  0.66524640  0.81404168  1
  Sc  Sc54  1  0.00755590  0.00783725  0.64990155  1
  Sc  Sc55  1  0.51269174  0.99867157  0.65653291  1
  Sc  Sc56  1  0.01213226  0.01021878  0.15155380  1
  Sc  Sc57  1  0.50865156  0.00836677  0.14901001  1
  Sc  Sc58  1  0.82892219  0.32214998  0.67745029  1
  Sc  Sc59  1  0.33017855  0.33453910  0.17756901  1
  Sc  Sc60  1  0.16576516  0.66599602  0.01748617  1
  Sc  Sc61  1  0.65360214  0.66199046  0.02193166  1
  Sc  Sc62  1  0.15489407  0.64644695  0.52379088  1
  Sc  Sc63  1  0.66562837  0.66419433  0.51812403  1
  Sc  Sc64  1  0.17119614  0.67286192  0.31428021  1
  Sc  Sc65  1  0.66605385  0.67031966  0.81134852  1
  Si  Si66  1  0.15709891  0.00049476  0.24981935  1
  Si  Si67  1  0.65324143  0.00055266  0.25190891  1
  Si  Si68  1  0.15172864  0.30698870  0.75154473  1
  Si  Si69  1  0.65811197  0.31179744  0.74972225  1
  Si  Si70  1  0.49911875  0.69104361  0.75680057  1
  Si  Si71  1  0.98375070  0.32425350  0.58458397  1
  Si  Si72  1  0.17654723  0.01677727  0.58205137  1
  Si  Si73  1  0.67875945  0.01897255  0.58106704  1
  Si  Si74  1  0.48318340  0.64166340  0.08453836  1
  Si  Si75  1  0.17994695  0.33980710  0.08363477  1
  Si  Si76  1  0.67610727  0.33812485  0.08386945  1
  Si  Si77  1  0.16751102  0.96625808  0.91708759  1
  Si  Si78  1  0.66891700  0.96071860  0.91739057  1
  Si  Si79  1  0.16807823  0.37900344  0.41557178  1
  Si  Si80  1  0.66792175  0.36849840  0.41601915  1
  S  S81  1  0.34759454  0.69373794  0.25123553  1
  S  S82  1  0.85567033  0.70801976  0.24926314  1
  S  S83  1  0.00195554  0.30404837  0.25040168  1
  S  S84  1  0.49271586  0.29611136  0.24977246  1
  S  S85  1  0.99324663  0.68959010  0.74934379  1
  S  S86  1  0.35351256  0.99890036  0.74859192  1
  S  S87  1  0.84926478  0.00437236  0.75046489  1
  S  S88  1  0.48919896  0.32852473  0.58024884  1
  S  S89  1  0.33604790  0.65616146  0.58166676  1
  S  S90  1  0.83146728  0.63716417  0.58167778  1
  S  S91  1  0.98975953  0.64865778  0.08418196  1
  S  S92  1  0.33141867  0.02608442  0.08297276  1
  S  S93  1  0.83721158  0.01805192  0.08425219  1
  S  S94  1  0.31518190  0.67203120  0.91895124  1
  S  S95  1  0.81192163  0.66822025  0.91849981  1
  S  S96  1  0.01716451  0.37102657  0.91874607  1
  S  S97  1  0.52030113  0.37540175  0.91408610  1
  S  S98  1  0.31172599  0.95680737  0.41745689  1
  S  S99  1  0.81594882  0.96233500  0.41672703  1
  S  S100  1  0.02075828  0.66286083  0.41299138  1
  S  S101  1  0.51644917  0.66257635  0.41789760  1
  O  O102  1  0.12267476  0.04046063  0.31027830  1
  O  O103  1  0.61591003  0.01715029  0.31488063  1
  O  O104  1  0.39156217  0.77208041  0.30605356  1
  O  O105  1  0.89842088  0.79162457  0.30429636  1
  O  O106  1  0.48599901  0.22003420  0.30841129  1
  O  O107  1  0.98727799  0.21456399  0.30706425  1
  O  O108  1  0.11305117  0.21707955  0.81465864  1
  O  O109  1  0.62607768  0.20293734  0.81061420  1
  O  O110  1  0.47767412  0.74792978  0.81886409  1
  O  O111  1  0.98578013  0.75095112  0.80821956  1
  O  O112  1  0.39692765  0.00632152  0.80423712  1
  O  O113  1  0.89374545  0.01658553  0.80582886  1
  O  O114  1  0.40038111  0.99378648  0.69603997  1
  O  O115  1  0.89292099  0.98970916  0.69822482  1
  O  O116  1  0.08953306  0.18761630  0.69798700  1
  O  O117  1  0.59276916  0.21148112  0.69447019  1
  O  O118  1  0.99409777  0.80102994  0.70244799  1
  O  O119  1  0.51229064  0.83092293  0.70645790  1
  O  O120  1  0.39053681  0.79431113  0.19832971  1
  O  O121  1  0.90084659  0.81055183  0.19680148  1
  O  O122  1  0.00897869  0.20370425  0.20216407  1
  O  O123  1  0.49402291  0.18821607  0.20244645  1
  O  O124  1  0.08986134  0.97034444  0.19589875  1
  O  O125  1  0.59186550  0.99766419  0.19840419  1
  O  O126  1  0.45054136  0.34829877  0.63408374  1
  O  O127  1  0.93369992  0.34344324  0.64071671  1
  O  O128  1  0.24020566  0.09811781  0.63740790  1
  O  O129  1  0.74508626  0.12344682  0.63469282  1
  O  O130  1  0.32601055  0.55012835  0.63305567  1
  O  O131  1  0.81957605  0.51361325  0.62739878  1
  O  O132  1  0.43455292  0.52386885  0.14221413  1
  O  O133  1  0.95296030  0.55588841  0.13903552  1
  O  O134  1  0.31984501  0.12449904  0.12933686  1
  O  O135  1  0.82932767  0.10176762  0.13732435  1
  O  O136  1  0.24367640  0.36620075  0.13893997  1
  O  O137  1  0.73549878  0.38278370  0.14216642  1
  O  O138  1  0.21111381  0.28938704  0.02437096  1
  O  O139  1  0.71653560  0.29253582  0.02799284  1
  O  O140  1  0.43189810  0.57048932  0.02402028  1
  O  O141  1  0.93986230  0.56264811  0.03174068  1
  O  O142  1  0.34569575  0.10805075  0.02525271  1
  O  O143  1  0.85102906  0.11916474  0.03059871  1
  O  O144  1  0.21140053  0.13490078  0.52305596  1
  O  O145  1  0.71120646  0.12432941  0.52020541  1
  O  O146  1  0.34917085  0.58614791  0.52672707  1
  O  O147  1  0.84686293  0.58646216  0.52363823  1
  O  O148  1  0.44166721  0.31879591  0.52661825  1
  O  O149  1  0.93500572  0.30015890  0.52305272  1
  O  O150  1  0.26611730  0.66833839  0.97210413  1
  O  O151  1  0.77108098  0.67323059  0.97409772  1
  O  O152  1  0.07441819  0.46378156  0.96845464  1
  O  O153  1  0.57134773  0.46514574  0.96611738  1
  O  O154  1  0.16536306  0.84952530  0.97483274  1
  O  O155  1  0.66942396  0.86005281  0.97724713  1
  O  O156  1  0.26989511  0.86660568  0.47187390  1
  O  O157  1  0.76781652  0.86420060  0.46926844  1
  O  O158  1  0.16647426  0.48336948  0.47317000  1
  O  O159  1  0.66677654  0.48804401  0.47067705  1
  O  O160  1  0.07243811  0.67586503  0.46460207  1
  O  O161  1  0.57369211  0.68321048  0.46722991  1
  O  O162  1  0.06377233  0.66027739  0.35731783  1
  O  O163  1  0.55217414  0.65240785  0.36107209  1
  O  O164  1  0.25889658  0.87147219  0.36475608  1
  O  O165  1  0.77029393  0.88420682  0.36156682  1
  O  O166  1  0.17007380  0.48552116  0.35573797  1
  O  O167  1  0.67240087  0.45603169  0.35249734  1
  O  O168  1  0.05341877  0.45361763  0.86215686  1
  O  O169  1  0.56313552  0.46545612  0.85911879  1
  O  O170  1  0.17064802  0.87928445  0.85570079  1
  O  O171  1  0.67371553  0.85673716  0.86007532  1
  O  O172  1  0.26879085  0.65785220  0.86435363  1
  O  O173  1  0.75941481  0.64888117  0.86676841  1
  O  O174  1  0.00924289  0.80944892  0.41367367  1
  O  O175  1  0.50216369  0.80610491  0.41995888  1
  O  O176  1  0.39216416  0.96252136  0.41267619  1
  O  O177  1  0.89637976  0.96540402  0.41797197  1
  O  O178  1  0.08380330  0.19618766  0.42040105  1
  O  O179  1  0.58170391  0.18821173  0.42403335  1
  O  O180  1  0.00212905  0.19841179  0.92059373  1
  O  O181  1  0.50838892  0.20551538  0.91443694  1
  O  O182  1  0.08132753  0.97455582  0.92384683  1
  O  O183  1  0.58546756  0.97674726  0.92185262  1
  O  O184  1  0.39416638  0.83168512  0.92125452  1
  O  O185  1  0.89297481  0.82524947  0.91462645  1
  O  O186  1  0.49377351  0.17335258  0.58348346  1
  O  O187  1  0.98902424  0.15209371  0.59185180  1
  O  O188  1  0.08491583  0.99750254  0.59271692  1
  O  O189  1  0.58863537  0.00586427  0.59278348  1
  O  O190  1  0.40573451  0.82828502  0.58937157  1
  O  O191  1  0.89922546  0.80619223  0.59546130  1
  O  O192  1  0.48981862  0.82548857  0.09329389  1
  O  O193  1  0.99433347  0.81492165  0.08649912  1
  O  O194  1  0.39918875  0.99240351  0.09650984  1
  O  O195  1  0.90670784  0.98366666  0.09063879  1
  O  O196  1  0.08777738  0.17475397  0.09561773  1
  O  O197  1  0.58392545  0.17301649  0.09152612  1
  O  O198  1  0.34513470  0.14866858  0.74663111  1
  O  O199  1  0.84365318  0.15932287  0.74630166  1
  O  O200  1  0.24332107  0.32495429  0.74696900  1
  O  O201  1  0.74783946  0.32323228  0.73660430  1
  O  O202  1  0.42502606  0.50496265  0.74328224  1
  O  O203  1  0.92415218  0.51781350  0.74238370  1
  O  O204  1  0.34072281  0.52603107  0.24782619  1
  O  O205  1  0.85261145  0.54564491  0.24744760  1
  O  O206  1  0.42310004  0.32849361  0.24339295  1
  O  O207  1  0.93326619  0.33605708  0.24027533  1
  O  O208  1  0.24694762  0.16744662  0.23799355  1
  O  O209  1  0.74677718  0.16416862  0.24772814  1
  O  O210  1  0.32874222  0.52884099  0.92032556  1
  O  O211  1  0.82797379  0.52621225  0.91857826  1
  O  O212  1  0.43848510  0.36451220  0.91610539  1
  O  O213  1  0.93781013  0.36814850  0.92574264  1
  O  O214  1  0.25183717  0.14927665  0.91821060  1
  O  O215  1  0.75306795  0.14510169  0.91301688  1
  O  O216  1  0.32635209  0.12946990  0.41728330  1
  O  O217  1  0.82955996  0.13268484  0.41848106  1
  O  O218  1  0.25214077  0.36400288  0.41207078  1
  O  O219  1  0.75215481  0.35447098  0.41892266  1
  O  O220  1  0.43622510  0.50728092  0.42452539  1
  O  O221  1  0.93945373  0.51009026  0.41469315  1
  O  O222  1  0.17693778  0.51339481  0.07997102  1
  O  O223  1  0.67069920  0.50714995  0.07407077  1
  O  O224  1  0.07579073  0.67860530  0.07960930  1
  O  O225  1  0.57883233  0.67731754  0.08281964  1
  O  O226  1  0.25244685  0.86010450  0.08226268  1
  O  O227  1  0.75941268  0.85395635  0.08003416  1
  O  O228  1  0.17007769  0.83558697  0.57322833  1
  O  O229  1  0.67590460  0.83873311  0.57831424  1
  O  O230  1  0.25855110  0.66583866  0.57794220  1
  O  O231  1  0.75253468  0.64444002  0.58063484  1
  O  O232  1  0.08020070  0.47909328  0.58370372  1
  O  O233  1  0.57554903  0.47289162  0.57689766  1
  O  O234  1  0.15775241  0.82270109  0.25226858  1
  O  O235  1  0.65846976  0.83025494  0.24402075  1
  O  O236  1  0.26128224  0.66651059  0.25164134  1
  O  O237  1  0.77095715  0.68538371  0.24725963  1
  O  O238  1  0.08116927  0.46758201  0.25078189  1
  O  O239  1  0.57183039  0.45930406  0.24501433  1
  O  O240  1  0.15692566  0.48686229  0.74306367  1
  O  O241  1  0.66179088  0.49145815  0.75375598  1
  O  O242  1  0.07275320  0.68752068  0.74487145  1
  O  O243  1  0.58771063  0.68817552  0.75497902  1
  O  O244  1  0.27076078  0.84668738  0.74644444  1
  O  O245  1  0.76385909  0.85967817  0.75130926  1
