# generated using pymatgen
data_Na14Zn2Si9Ge6(SO16)3
_symmetry_space_group_name_H-M   'P 1'
_cell_length_a   17.66460739
_cell_length_b   8.91858260
_cell_length_c   21.74410706
_cell_angle_alpha   90.59293967
_cell_angle_beta   89.73084847
_cell_angle_gamma   120.21253954
_symmetry_Int_Tables_number   1
_chemical_formula_structural   Na14Zn2Si9Ge6(SO16)3
_chemical_formula_sum   'Na42 Zn6 Si27 Ge18 S9 O144'
_cell_volume   2960.15595521
_cell_formula_units_Z   3
loop_
 _symmetry_equiv_pos_site_id
 _symmetry_equiv_pos_as_xyz
  1  'x, y, z'
loop_
 _atom_site_type_symbol
 _atom_site_label
 _atom_site_symmetry_multiplicity
 _atom_site_fract_x
 _atom_site_fract_y
 _atom_site_fract_z
 _atom_site_occupancy
  Na  Na0  1  0.31147239  0.00885809  0.24522554  1
  Na  Na1  1  0.81495758  0.01509530  0.24812975  1
  Na  Na2  1  0.19062473  0.37112637  0.25304109  1
  Na  Na3  1  0.69158766  0.36762642  0.25009075  1
  Na  Na4  1  0.99032320  0.61519670  0.25325239  1
  Na  Na5  1  0.49386947  0.62275002  0.24806082  1
  Na  Na6  1  0.31475766  0.61668082  0.74340889  1
  Na  Na7  1  0.81293277  0.61790644  0.74165486  1
  Na  Na8  1  0.99302820  0.35802838  0.74330788  1
  Na  Na9  1  0.49197380  0.37079858  0.74807206  1
  Na  Na10  1  0.19257214  0.01976462  0.74546803  1
  Na  Na11  1  0.69230415  0.01175795  0.74942244  1
  Na  Na12  1  0.15532916  0.34017900  0.58398911  1
  Na  Na13  1  0.65515157  0.34777823  0.57845462  1
  Na  Na14  1  0.01402948  0.69558704  0.58068392  1
  Na  Na15  1  0.51537725  0.69029452  0.57394750  1
  Na  Na16  1  0.33101207  0.96932221  0.58560693  1
  Na  Na17  1  0.82881801  0.95690669  0.57408851  1
  Na  Na18  1  0.15476482  0.96382049  0.08514558  1
  Na  Na19  1  0.65638068  0.97094651  0.08782925  1
  Na  Na20  1  0.33012079  0.69615950  0.08316196  1
  Na  Na21  1  0.83008056  0.69188847  0.08875692  1
  Na  Na22  1  0.01559321  0.33598750  0.07876592  1
  Na  Na23  1  0.51554591  0.33302524  0.08613182  1
  Na  Na24  1  0.98441380  0.67096199  0.91846695  1
  Na  Na25  1  0.35005779  0.03154519  0.91291637  1
  Na  Na26  1  0.16532788  0.30199331  0.91782620  1
  Na  Na27  1  0.48639573  0.30139898  0.41885250  1
  Na  Na28  1  0.66878404  0.03060162  0.41596265  1
  Na  Na29  1  0.84993075  0.67242584  0.41954051  1
  Na  Na30  1  0.00271968  0.00355141  0.49544781  1
  Na  Na31  1  0.49417132  0.98849427  0.49658095  1
  Na  Na32  1  0.99228517  0.99937104  0.99738383  1
  Na  Na33  1  0.50927540  0.00915391  0.99842871  1
  Na  Na34  1  0.33932484  0.34401605  0.82854709  1
  Na  Na35  1  0.82517193  0.31851453  0.83191340  1
  Na  Na36  1  0.32607076  0.33310363  0.33276516  1
  Na  Na37  1  0.83759253  0.33196511  0.33014139  1
  Na  Na38  1  0.17060859  0.67364677  0.16619007  1
  Na  Na39  1  0.66877612  0.67372513  0.16769783  1
  Na  Na40  1  0.16786642  0.66263814  0.66315526  1
  Na  Na41  1  0.67184946  0.66828079  0.66331712  1
  Zn  Zn42  1  0.32413104  0.33418997  0.68715165  1
  Zn  Zn43  1  0.83681355  0.33525581  0.68128799  1
  Zn  Zn44  1  0.33557604  0.33549378  0.18395353  1
  Zn  Zn45  1  0.82312430  0.31487097  0.18890383  1
  Zn  Zn46  1  0.16527958  0.67994496  0.01015667  1
  Zn  Zn47  1  0.67497984  0.66507807  0.50432037  1
  Si  Si48  1  0.13939407  0.00176849  0.25023234  1
  Si  Si49  1  0.63707610  0.98669615  0.25309906  1
  Si  Si50  1  0.35595375  0.71814466  0.25059972  1
  Si  Si51  1  0.85000065  0.70846330  0.25394612  1
  Si  Si52  1  0.00453425  0.29447203  0.25469408  1
  Si  Si53  1  0.13713470  0.28601160  0.75408771  1
  Si  Si54  1  0.64335128  0.28545972  0.74766520  1
  Si  Si55  1  0.50468947  0.71830449  0.75593304  1
  Si  Si56  1  0.35152987  0.99059401  0.75420755  1
  Si  Si57  1  0.85599988  0.99342263  0.75103069  1
  Si  Si58  1  0.98084177  0.34205760  0.58115371  1
  Si  Si59  1  0.18906113  0.04731640  0.58481641  1
  Si  Si60  1  0.33435286  0.62775617  0.58294125  1
  Si  Si61  1  0.83312719  0.62648093  0.58532243  1
  Si  Si62  1  0.47967209  0.61812479  0.08046095  1
  Si  Si63  1  0.33278464  0.03088749  0.08648842  1
  Si  Si64  1  0.83417865  0.04077469  0.08227401  1
  Si  Si65  1  0.68908603  0.33068861  0.08461883  1
  Si  Si66  1  0.80802453  0.65811104  0.91523616  1
  Si  Si67  1  0.01757814  0.37593446  0.91944935  1
  Si  Si68  1  0.52783406  0.37670050  0.91395199  1
  Si  Si69  1  0.16640481  0.96678243  0.91746273  1
  Si  Si70  1  0.30840311  0.95765223  0.41584962  1
  Si  Si71  1  0.82319505  0.97857006  0.41811470  1
  Si  Si72  1  0.66507308  0.36988944  0.41605109  1
  Si  Si73  1  0.02906453  0.68024950  0.41410935  1
  Si  Si74  1  0.51774667  0.65914975  0.41952167  1
  Ge  Ge75  1  0.99674107  0.99203761  0.35163809  1
  Ge  Ge76  1  0.49654884  0.97802661  0.35945121  1
  Ge  Ge77  1  0.99571226  0.01306295  0.85903467  1
  Ge  Ge78  1  0.50542007  0.01912661  0.84741296  1
  Ge  Ge79  1  0.99616629  0.01722248  0.63991949  1
  Ge  Ge80  1  0.49408152  0.97646729  0.65600445  1
  Ge  Ge81  1  0.98998169  0.00657595  0.15858915  1
  Ge  Ge82  1  0.49715790  0.97864229  0.14239433  1
  Ge  Ge83  1  0.34808750  0.31889282  0.98012131  1
  Ge  Ge84  1  0.82837237  0.31956429  0.97804955  1
  Ge  Ge85  1  0.32799784  0.33599212  0.47790074  1
  Ge  Ge86  1  0.84968370  0.35900724  0.47272450  1
  Ge  Ge87  1  0.66917226  0.65188075  0.02016661  1
  Ge  Ge88  1  0.16943299  0.68358056  0.51905197  1
  Ge  Ge89  1  0.16609480  0.68718497  0.30800714  1
  Ge  Ge90  1  0.67345510  0.68639366  0.32153520  1
  Ge  Ge91  1  0.16464263  0.66767069  0.81590667  1
  Ge  Ge92  1  0.66622410  0.64703431  0.80801132  1
  S  S93  1  0.50266602  0.28654449  0.25102557  1
  S  S94  1  0.00418818  0.71741493  0.75303444  1
  S  S95  1  0.47869069  0.32827049  0.58552985  1
  S  S96  1  0.68146182  0.03791056  0.58467540  1
  S  S97  1  0.97834594  0.62807565  0.08449559  1
  S  S98  1  0.18538443  0.32769298  0.08166802  1
  S  S99  1  0.31769603  0.66686593  0.91607951  1
  S  S100  1  0.66617932  0.95703392  0.91653229  1
  S  S101  1  0.16832271  0.37985253  0.41670687  1
  O  O102  1  0.09425070  0.03415173  0.30977178  1
  O  O103  1  0.59141115  0.02198109  0.31185877  1
  O  O104  1  0.41917205  0.81323715  0.30846582  1
  O  O105  1  0.91394664  0.79829773  0.31255256  1
  O  O106  1  0.49215386  0.18508269  0.30604238  1
  O  O107  1  0.98513282  0.15637826  0.30835812  1
  O  O108  1  0.09281024  0.16134652  0.81332243  1
  O  O109  1  0.60128983  0.16643043  0.80877151  1
  O  O110  1  0.48543243  0.81807537  0.81219175  1
  O  O111  1  0.99493682  0.80024501  0.80918816  1
  O  O112  1  0.41224500  0.02310088  0.81542136  1
  O  O113  1  0.91884157  0.02532821  0.80943973  1
  O  O114  1  0.39367990  0.94584323  0.69276487  1
  O  O115  1  0.89739887  0.95472450  0.68780673  1
  O  O116  1  0.07689225  0.20303150  0.69077833  1
  O  O117  1  0.57520267  0.18908103  0.68849349  1
  O  O118  1  0.01573564  0.81574731  0.69656964  1
  O  O119  1  0.52549943  0.83535927  0.69199516  1
  O  O120  1  0.39573906  0.83612327  0.18696343  1
  O  O121  1  0.89033300  0.83556832  0.19134008  1
  O  O122  1  0.02563174  0.21887196  0.18888986  1
  O  O123  1  0.51230745  0.20410862  0.19319653  1
  O  O124  1  0.07498443  0.96401759  0.18739660  1
  O  O125  1  0.57786673  0.95193835  0.18890457  1
  O  O126  1  0.43630033  0.34361846  0.64157498  1
  O  O127  1  0.95226061  0.38992047  0.64543309  1
  O  O128  1  0.24747466  0.10793889  0.64599466  1
  O  O129  1  0.73253367  0.11607774  0.64142234  1
  O  O130  1  0.31135630  0.51910282  0.64520290  1
  O  O131  1  0.81568865  0.51231098  0.64598561  1
  O  O132  1  0.44909725  0.50713033  0.14238062  1
  O  O133  1  0.93606548  0.52892250  0.13956984  1
  O  O134  1  0.31009492  0.11285303  0.14437183  1
  O  O135  1  0.81137112  0.10549365  0.14455785  1
  O  O136  1  0.23673099  0.35297321  0.13779190  1
  O  O137  1  0.74803603  0.38847196  0.14500049  1
  O  O138  1  0.22888055  0.30836103  0.02497907  1
  O  O139  1  0.73432442  0.28435430  0.02569726  1
  O  O140  1  0.40757370  0.51875882  0.02335988  1
  O  O141  1  0.92621237  0.54598185  0.02679766  1
  O  O142  1  0.35425492  0.15473523  0.02313294  1
  O  O143  1  0.85793103  0.17707270  0.02424410  1
  O  O144  1  0.23457150  0.18590403  0.52741789  1
  O  O145  1  0.72224805  0.14056474  0.52931854  1
  O  O146  1  0.35763349  0.53556722  0.52528284  1
  O  O147  1  0.85211140  0.53483330  0.52345713  1
  O  O148  1  0.42495056  0.30227593  0.52876151  1
  O  O149  1  0.91065531  0.29910295  0.52552377  1
  O  O150  1  0.27796674  0.69028699  0.97214421  1
  O  O151  1  0.76695093  0.69789926  0.97638754  1
  O  O152  1  0.07863589  0.45149565  0.97931984  1
  O  O153  1  0.58363744  0.46483482  0.97589328  1
  O  O154  1  0.14402691  0.85784418  0.97931234  1
  O  O155  1  0.65712009  0.85919950  0.97298834  1
  O  O156  1  0.26817814  0.83724940  0.47676195  1
  O  O157  1  0.78632504  0.85754418  0.47732397  1
  O  O158  1  0.16019662  0.46382443  0.47378356  1
  O  O159  1  0.63697916  0.42921261  0.47785687  1
  O  O160  1  0.08418462  0.69783497  0.47617296  1
  O  O161  1  0.57672786  0.70070321  0.47996934  1
  O  O162  1  0.06940867  0.63825727  0.35287089  1
  O  O163  1  0.56556355  0.62245228  0.35888509  1
  O  O164  1  0.24923753  0.87240277  0.35368269  1
  O  O165  1  0.75385714  0.88722980  0.35882458  1
  O  O166  1  0.18036158  0.48103243  0.36068979  1
  O  O167  1  0.68664305  0.50856649  0.35820715  1
  O  O168  1  0.06557511  0.51342363  0.86032292  1
  O  O169  1  0.56782351  0.49327596  0.85253413  1
  O  O170  1  0.19026142  0.87487241  0.85874743  1
  O  O171  1  0.67747636  0.87717815  0.86021108  1
  O  O172  1  0.26061702  0.64148481  0.86033939  1
  O  O173  1  0.74846727  0.62585254  0.85355426  1
  O  O174  1  0.01546219  0.84942834  0.41057164  1
  O  O175  1  0.50873510  0.83347176  0.41289615  1
  O  O176  1  0.40959937  0.99181643  0.40846260  1
  O  O177  1  0.91856137  0.99047976  0.40942693  1
  O  O178  1  0.09087085  0.20502898  0.41461431  1
  O  O179  1  0.57828556  0.17335529  0.40672776  1
  O  O180  1  0.00862644  0.18395126  0.91295930  1
  O  O181  1  0.51116714  0.17332458  0.91053149  1
  O  O182  1  0.07946355  0.98639035  0.90825507  1
  O  O183  1  0.58747046  0.97776406  0.91388690  1
  O  O184  1  0.40490105  0.82707931  0.91204047  1
  O  O185  1  0.90948669  0.82742445  0.90843539  1
  O  O186  1  0.48669007  0.16710075  0.58601769  1
  O  O187  1  0.98646195  0.16095977  0.58360918  1
  O  O188  1  0.09110370  0.02956883  0.59183027  1
  O  O189  1  0.59276704  0.02925086  0.58771530  1
  O  O190  1  0.42633784  0.82685969  0.58961353  1
  O  O191  1  0.92662154  0.82109104  0.58837202  1
  O  O192  1  0.48507273  0.80951732  0.08331520  1
  O  O193  1  0.98734284  0.80530191  0.08488502  1
  O  O194  1  0.42635793  0.02788720  0.08908625  1
  O  O195  1  0.92602225  0.02309148  0.08940531  1
  O  O196  1  0.09799734  0.16260951  0.08297764  1
  O  O197  1  0.59121907  0.15265415  0.09079126  1
  O  O198  1  0.34348252  0.16036647  0.75177219  1
  O  O199  1  0.84477593  0.16192309  0.74712000  1
  O  O200  1  0.23420524  0.31367171  0.75301565  1
  O  O201  1  0.73988643  0.31156541  0.74686874  1
  O  O202  1  0.42063366  0.52839519  0.75014636  1
  O  O203  1  0.92796076  0.53981806  0.75218767  1
  O  O204  1  0.34471220  0.52676200  0.24615859  1
  O  O205  1  0.84214026  0.52271326  0.24938929  1
  O  O206  1  0.42468848  0.30800823  0.24924092  1
  O  O207  1  0.92108468  0.31825238  0.24818089  1
  O  O208  1  0.23651706  0.16839157  0.24828130  1
  O  O209  1  0.73335950  0.15469056  0.25220288  1
  O  O210  1  0.32313264  0.50699584  0.91666213  1
  O  O211  1  0.82164011  0.48863855  0.92555251  1
  O  O212  1  0.42664950  0.34755696  0.91960316  1
  O  O213  1  0.92097196  0.36399005  0.92226856  1
  O  O214  1  0.25694281  0.16662449  0.92433927  1
  O  O215  1  0.74795707  0.13571493  0.91892083  1
  O  O216  1  0.32076380  0.15379329  0.42634546  1
  O  O217  1  0.82351372  0.16374079  0.42288316  1
  O  O218  1  0.25049238  0.36535700  0.41982065  1
  O  O219  1  0.75495579  0.35571520  0.42237137  1
  O  O220  1  0.42086723  0.47713325  0.42206519  1
  O  O221  1  0.92896094  0.50865042  0.41787045  1
  O  O222  1  0.17297336  0.47885945  0.07857843  1
  O  O223  1  0.67359231  0.49898618  0.07574081  1
  O  O224  1  0.06646357  0.64625817  0.08174524  1
  O  O225  1  0.58011468  0.65575330  0.06824685  1
  O  O226  1  0.25044510  0.83580706  0.07697024  1
  O  O227  1  0.74818759  0.84335544  0.07223150  1
  O  O228  1  0.17412849  0.84884503  0.57558673  1
  O  O229  1  0.66766079  0.86061206  0.58167709  1
  O  O230  1  0.24932812  0.65522185  0.57283662  1
  O  O231  1  0.74936361  0.65391253  0.57922606  1
  O  O232  1  0.08148801  0.50589107  0.56996371  1
  O  O233  1  0.56586064  0.48418880  0.58261653  1
  O  O234  1  0.14539371  0.82083109  0.25013593  1
  O  O235  1  0.64323643  0.80607186  0.25846825  1
  O  O236  1  0.25857414  0.70361694  0.25622271  1
  O  O237  1  0.75332804  0.69848377  0.25836760  1
  O  O238  1  0.09679837  0.48507209  0.25808638  1
  O  O239  1  0.58373012  0.46145212  0.25229131  1
  O  O240  1  0.14427972  0.48114225  0.76094671  1
  O  O241  1  0.64664241  0.47481218  0.74937878  1
  O  O242  1  0.08790881  0.70644087  0.75541895  1
  O  O243  1  0.59585241  0.70878375  0.76000161  1
  O  O244  1  0.25430316  0.80690086  0.75850937  1
  O  O245  1  0.75881817  0.81427535  0.75694127  1
