# generated using pymatgen
data_ScGa(SO4)3
_symmetry_space_group_name_H-M   'P 1'
_cell_length_a   8.63346804
_cell_length_b   8.63346778
_cell_length_c   22.43118919
_cell_angle_alpha   90.00000000
_cell_angle_beta   90.00000000
_cell_angle_gamma   120.00000101
_symmetry_Int_Tables_number   1
_chemical_formula_structural   ScGa(SO4)3
_chemical_formula_sum   'Sc6 Ga6 S18 O72'
_cell_volume   1447.94972769
_cell_formula_units_Z   6
loop_
 _symmetry_equiv_pos_site_id
 _symmetry_equiv_pos_as_xyz
  1  'x, y, z'
loop_
 _atom_site_type_symbol
 _atom_site_label
 _atom_site_symmetry_multiplicity
 _atom_site_fract_x
 _atom_site_fract_y
 _atom_site_fract_z
 _atom_site_occupancy
  Sc  Sc0  1  -0.00000000  0.00000000  0.85336302  1
  Sc  Sc1  1  0.66666700  0.33333300  0.97996768  1
  Sc  Sc2  1  0.33333300  0.66666700  0.02424662  1
  Sc  Sc3  1  0.33333300  0.66666700  0.52197764  1
  Sc  Sc4  1  0.33333300  0.66666700  0.31135904  1
  Sc  Sc5  1  0.33333300  0.66666700  0.80908682  1
  Ga  Ga6  1  -0.00000000  0.00000000  0.35253268  1
  Ga  Ga7  1  -0.00000000  -0.00000000  0.64605948  1
  Ga  Ga8  1  -0.00000000  -0.00000000  0.14758723  1
  Ga  Ga9  1  0.66666700  0.33333300  0.68574820  1
  Ga  Ga10  1  0.66666700  0.33333300  0.18727563  1
  Ga  Ga11  1  0.66666700  0.33333300  0.48079928  1
  S  S12  1  0.28920267  0.00646814  0.24872529  1
  S  S13  1  0.71726546  0.71079733  0.24872529  1
  S  S14  1  0.99353186  0.28273454  0.24872529  1
  S  S15  1  0.29357405  0.28655723  0.74669594  1
  S  S16  1  0.99298318  0.70642595  0.74669594  1
  S  S17  1  0.71344277  0.00701682  0.74669594  1
  S  S18  1  0.94939763  0.32685905  0.58460523  1
  S  S19  1  0.37746242  0.05060237  0.58460523  1
  S  S20  1  0.67314095  0.62253758  0.58460523  1
  S  S21  1  0.95322521  0.62691791  0.08663816  1
  S  S22  1  0.67369370  0.04677479  0.08663816  1
  S  S23  1  0.37308209  0.32630630  0.08663816  1
  S  S24  1  0.62300674  0.66666726  0.91666728  1
  S  S25  1  0.04365952  0.37699326  0.91666728  1
  S  S26  1  0.33333274  0.95634048  0.91666728  1
  S  S27  1  0.63173240  0.96506230  0.41666679  1
  S  S28  1  0.33332890  0.36826760  0.41666679  1
  S  S29  1  0.03493770  0.66667110  0.41666679  1
  O  O30  1  0.21026918  0.03888657  0.30299416  1
  O  O31  1  0.82861738  0.78973082  0.30299416  1
  O  O32  1  0.96111343  0.17138262  0.30299416  1
  O  O33  1  0.21486783  0.17703112  0.80077142  1
  O  O34  1  0.96216329  0.78513217  0.80077142  1
  O  O35  1  0.82296888  0.03783671  0.80077142  1
  O  O36  1  0.79431363  0.97144786  0.69385861  1
  O  O37  1  0.17713424  0.20568637  0.69385861  1
  O  O38  1  0.02855214  0.82286576  0.69385861  1
  O  O39  1  0.79579038  0.82491187  0.19541599  1
  O  O40  1  0.02912149  0.20420962  0.19541599  1
  O  O41  1  0.17508813  0.97087851  0.19541599  1
  O  O42  1  0.87087508  0.36245564  0.63791589  1
  O  O43  1  0.49158156  0.12912492  0.63791589  1
  O  O44  1  0.63754436  0.50841844  0.63791589  1
  O  O45  1  0.87235289  0.51046540  0.13947395  1
  O  O46  1  0.63811351  0.12764711  0.13947395  1
  O  O47  1  0.48953460  0.36188649  0.13947395  1
  O  O48  1  0.45179751  0.29549618  0.03256207  1
  O  O49  1  0.84369967  0.54820249  0.03256207  1
  O  O50  1  0.70450382  0.15630033  0.03256207  1
  O  O51  1  0.45640113  0.16195413  0.53033911  1
  O  O52  1  0.70555400  0.54359887  0.53033911  1
  O  O53  1  0.83804587  0.29444600  0.53033911  1
  O  O54  1  0.54188395  0.69629858  0.97021458  1
  O  O55  1  0.15441363  0.45811605  0.97021458  1
  O  O56  1  0.30370142  0.84558637  0.97021458  1
  O  O57  1  0.55068585  0.85090575  0.46979996  1
  O  O58  1  0.30021891  0.44931415  0.46979996  1
  O  O59  1  0.14909425  0.69978109  0.46979996  1
  O  O60  1  0.11598352  0.63355270  0.36353436  1
  O  O61  1  0.51756818  0.88401648  0.36353436  1
  O  O62  1  0.36644730  0.48243182  0.36353436  1
  O  O63  1  0.12477873  0.48775045  0.86311976  1
  O  O64  1  0.36297072  0.87522127  0.86311976  1
  O  O65  1  0.51224955  0.63702928  0.86311976  1
  O  O66  1  0.01819551  0.82791756  0.40733494  1
  O  O67  1  0.80972205  0.98180449  0.40733494  1
  O  O68  1  0.17208244  0.19027795  0.40733494  1
  O  O69  1  0.02507173  0.19947546  0.90906723  1
  O  O70  1  0.17440374  0.97492827  0.90906723  1
  O  O71  1  0.80052454  0.82559626  0.90906723  1
  O  O72  1  0.96862139  0.16701254  0.59289418  1
  O  O73  1  0.19839115  0.03137861  0.59289418  1
  O  O74  1  0.83298746  0.80160885  0.59289418  1
  O  O75  1  0.97184560  0.80548880  0.09449462  1
  O  O76  1  0.83364319  0.02815440  0.09449462  1
  O  O77  1  0.19451120  0.16635681  0.09449462  1
  O  O78  1  0.69481979  0.16697752  0.73883855  1
  O  O79  1  0.47215873  0.30518021  0.73883855  1
  O  O80  1  0.83302248  0.52784127  0.73883855  1
  O  O81  1  0.69804378  0.53172489  0.24043911  1
  O  O82  1  0.83368211  0.30195622  0.24043911  1
  O  O83  1  0.46827511  0.16631789  0.24043911  1
  O  O84  1  0.64159448  0.50773952  0.92426588  1
  O  O85  1  0.86614604  0.35840552  0.92426588  1
  O  O86  1  0.49226048  0.13385396  0.92426588  1
  O  O87  1  0.64847450  0.14305747  0.42599841  1
  O  O88  1  0.49458397  0.35152550  0.42599841  1
  O  O89  1  0.85694253  0.50541603  0.42599841  1
  O  O90  1  0.35531666  0.48562177  0.07851108  1
  O  O91  1  0.13030411  0.64468334  0.07851108  1
  O  O92  1  0.51437823  0.86969589  0.07851108  1
  O  O93  1  0.35913531  0.87295630  0.57626382  1
  O  O94  1  0.51381999  0.64086469  0.57626382  1
  O  O95  1  0.12704370  0.48618001  0.57626382  1
  O  O96  1  0.30752943  0.84715804  0.25706946  1
  O  O97  1  0.53962760  0.69247057  0.25706946  1
  O  O98  1  0.15284196  0.46037240  0.25706946  1
  O  O99  1  0.31134757  0.46363216  0.75482305  1
  O  O100  1  0.15228359  0.68865243  0.75482305  1
  O  O101  1  0.53636784  0.84771641  0.75482305  1
