# generated using pymatgen
data_Na6Nb3Al5Si6(SO8)6
_symmetry_space_group_name_H-M   'P 1'
_cell_length_a   17.36965470
_cell_length_b   8.66290754
_cell_length_c   22.22267223
_cell_angle_alpha   89.86448323
_cell_angle_beta   90.21928901
_cell_angle_gamma   119.67887297
_symmetry_Int_Tables_number   1
_chemical_formula_structural   Na6Nb3Al5Si6(SO8)6
_chemical_formula_sum   'Na18 Nb9 Al15 Si18 S18 O144'
_cell_volume   2905.19163525
_cell_formula_units_Z   3
loop_
 _symmetry_equiv_pos_site_id
 _symmetry_equiv_pos_as_xyz
  1  'x, y, z'
loop_
 _atom_site_type_symbol
 _atom_site_label
 _atom_site_symmetry_multiplicity
 _atom_site_fract_x
 _atom_site_fract_y
 _atom_site_fract_z
 _atom_site_occupancy
  Na  Na0  1  0.48055906  0.67371713  0.91245773  1
  Na  Na1  1  0.16768839  0.31520269  0.91333758  1
  Na  Na2  1  0.48554197  0.30130995  0.41646258  1
  Na  Na3  1  0.97950310  0.29521322  0.41111627  1
  Na  Na4  1  0.16591240  0.02533378  0.41377090  1
  Na  Na5  1  0.66766393  0.02962827  0.41870976  1
  Na  Na6  1  0.98748225  0.97616769  0.49377038  1
  Na  Na7  1  0.49497602  0.98784694  0.49538877  1
  Na  Na8  1  0.99465927  0.99385945  0.99629981  1
  Na  Na9  1  0.50110716  0.00320441  0.99115985  1
  Na  Na10  1  0.33377380  0.32833214  0.82494771  1
  Na  Na11  1  0.83200437  0.33407185  0.82920164  1
  Na  Na12  1  0.33656275  0.33665598  0.33073429  1
  Na  Na13  1  0.83660089  0.33999217  0.33330474  1
  Na  Na14  1  0.15759330  0.65988365  0.16233448  1
  Na  Na15  1  0.66621858  0.65623834  0.16440952  1
  Na  Na16  1  0.16893440  0.67059547  0.66811951  1
  Na  Na17  1  0.66268965  0.65836613  0.66148551  1
  Nb  Nb18  1  0.00505850  0.99869597  0.64543293  1
  Nb  Nb19  1  0.50042344  0.00511294  0.64951815  1
  Nb  Nb20  1  0.00602818  0.00112278  0.14555254  1
  Nb  Nb21  1  0.50491459  0.01793189  0.14316709  1
  Nb  Nb22  1  0.83346504  0.33846584  0.97719503  1
  Nb  Nb23  1  0.15882449  0.67305342  0.31081713  1
  Nb  Nb24  1  0.66247611  0.65684859  0.31843252  1
  Nb  Nb25  1  0.16679768  0.65224054  0.80839234  1
  Nb  Nb26  1  0.66301229  0.67061323  0.80821329  1
  Al  Al27  1  0.99456525  0.99221863  0.35184169  1
  Al  Al28  1  0.49565509  0.00843708  0.36036680  1
  Al  Al29  1  0.00524278  0.00651520  0.85051292  1
  Al  Al30  1  0.49875850  0.98905848  0.85233541  1
  Al  Al31  1  0.33519590  0.33341082  0.69435099  1
  Al  Al32  1  0.83122360  0.34737133  0.68979987  1
  Al  Al33  1  0.33390746  0.32563650  0.19181604  1
  Al  Al34  1  0.84456454  0.35436949  0.18291046  1
  Al  Al35  1  0.33226175  0.33595866  0.98040605  1
  Al  Al36  1  0.33805250  0.33771934  0.47811643  1
  Al  Al37  1  0.83410017  0.33404513  0.47415163  1
  Al  Al38  1  0.15827992  0.64761536  0.01359218  1
  Al  Al39  1  0.66697529  0.66496386  0.01933429  1
  Al  Al40  1  0.16985110  0.67905831  0.51475471  1
  Al  Al41  1  0.66609342  0.67132099  0.50843471  1
  Si  Si42  1  0.14839419  0.02009663  0.25445362  1
  Si  Si43  1  0.99075800  0.28064144  0.25238290  1
  Si  Si44  1  0.49807799  0.29232633  0.25398580  1
  Si  Si45  1  0.14772758  0.28084849  0.75179431  1
  Si  Si46  1  0.64682074  0.27699224  0.75486749  1
  Si  Si47  1  0.99366139  0.70350881  0.75610104  1
  Si  Si48  1  0.49290728  0.70826063  0.75149800  1
  Si  Si49  1  0.35994923  0.01022021  0.75512102  1
  Si  Si50  1  0.98652147  0.62250466  0.08312342  1
  Si  Si51  1  0.69742277  0.35514599  0.08544266  1
  Si  Si52  1  0.31308129  0.67489336  0.92372984  1
  Si  Si53  1  0.02085702  0.36495723  0.91617517  1
  Si  Si54  1  0.66349543  0.95238228  0.92129680  1
  Si  Si55  1  0.31186843  0.95502782  0.42166984  1
  Si  Si56  1  0.81584546  0.95405930  0.41995742  1
  Si  Si57  1  0.66813551  0.37412587  0.42270242  1
  Si  Si58  1  0.01830646  0.67163610  0.42221493  1
  Si  Si59  1  0.51604322  0.67033593  0.42048442  1
  S  S60  1  0.64726728  0.00764437  0.25056609  1
  S  S61  1  0.35854998  0.70948062  0.24981503  1
  S  S62  1  0.85620642  0.70824880  0.25034013  1
  S  S63  1  0.85876643  0.00858588  0.74933221  1
  S  S64  1  0.47689230  0.34164699  0.58222584  1
  S  S65  1  0.97672784  0.34125888  0.58213434  1
  S  S66  1  0.19490537  0.04688570  0.58170267  1
  S  S67  1  0.69503267  0.04854235  0.58253286  1
  S  S68  1  0.32819856  0.60966616  0.58107165  1
  S  S69  1  0.82837610  0.61152609  0.58178416  1
  S  S70  1  0.47421069  0.60947104  0.08355610  1
  S  S71  1  0.32942432  0.05137411  0.08234881  1
  S  S72  1  0.82854116  0.03952744  0.08445697  1
  S  S73  1  0.19703924  0.34216750  0.08374679  1
  S  S74  1  0.81221274  0.67742992  0.91714193  1
  S  S75  1  0.52126674  0.37404451  0.92108443  1
  S  S76  1  0.16823869  0.95731740  0.92018853  1
  S  S77  1  0.17012548  0.38370431  0.42097047  1
  O  O78  1  0.09857993  0.03212647  0.31314359  1
  O  O79  1  0.60384806  0.02499206  0.30444886  1
  O  O80  1  0.41287620  0.79015447  0.30345889  1
  O  O81  1  0.90996333  0.79055576  0.30444072  1
  O  O82  1  0.48631211  0.16833842  0.31081667  1
  O  O83  1  0.98294346  0.16658401  0.31193136  1
  O  O84  1  0.10262555  0.16917822  0.81151529  1
  O  O85  1  0.59772010  0.15921098  0.81180520  1
  O  O86  1  0.48270883  0.78788076  0.81342136  1
  O  O87  1  0.97772257  0.80497312  0.81095434  1
  O  O88  1  0.42150279  0.03698613  0.81166522  1
  O  O89  1  0.91089128  0.03296002  0.80403643  1
  O  O90  1  0.40121168  0.96557560  0.69220987  1
  O  O91  1  0.89720411  0.97339842  0.69428858  1
  O  O92  1  0.08129231  0.19084569  0.69154595  1
  O  O93  1  0.58370141  0.20444549  0.69183121  1
  O  O94  1  0.00870722  0.83063522  0.69337085  1
  O  O95  1  0.51891167  0.83657767  0.69084166  1
  O  O96  1  0.39865332  0.82022721  0.19450736  1
  O  O97  1  0.89780439  0.81629054  0.19486110  1
  O  O98  1  0.00824062  0.18730080  0.19189443  1
  O  O99  1  0.51194193  0.19239052  0.19314310  1
  O  O100  1  0.08460961  0.96942658  0.19316714  1
  O  O101  1  0.58837535  0.97556415  0.19507636  1
  O  O102  1  0.43161878  0.35633956  0.63555722  1
  O  O103  1  0.93401520  0.36054553  0.63647410  1
  O  O104  1  0.24525594  0.13302780  0.63548317  1
  O  O105  1  0.74861273  0.13818658  0.63668157  1
  O  O106  1  0.31960802  0.50748081  0.63588747  1
  O  O107  1  0.82120675  0.51034448  0.63728235  1
  O  O108  1  0.43005711  0.50157234  0.13691056  1
  O  O109  1  0.93982847  0.50605084  0.14178736  1
  O  O110  1  0.32238120  0.13951313  0.13709876  1
  O  O111  1  0.81644799  0.12217329  0.13817459  1
  O  O112  1  0.24986859  0.35616883  0.13728944  1
  O  O113  1  0.75355040  0.36539612  0.14414528  1
  O  O114  1  0.23470585  0.30909398  0.02827465  1
  O  O115  1  0.73353491  0.30482687  0.02472442  1
  O  O116  1  0.42174961  0.52995316  0.02753401  1
  O  O117  1  0.91975178  0.52868109  0.02491718  1
  O  O118  1  0.34612172  0.16480077  0.02804088  1
  O  O119  1  0.84600445  0.14940742  0.02922370  1
  O  O120  1  0.23221644  0.15239848  0.52622084  1
  O  O121  1  0.73589490  0.15498959  0.52735990  1
  O  O122  1  0.33974201  0.52208998  0.52690535  1
  O  O123  1  0.84481337  0.53171034  0.52847481  1
  O  O124  1  0.42347148  0.31520243  0.52635351  1
  O  O125  1  0.92362337  0.31504526  0.52694895  1
  O  O126  1  0.26146521  0.69740390  0.98019560  1
  O  O127  1  0.76900748  0.69411539  0.97162947  1
  O  O128  1  0.08474618  0.44906538  0.97407573  1
  O  O129  1  0.57796030  0.46212316  0.97390605  1
  O  O130  1  0.15380003  0.84557908  0.97349813  1
  O  O131  1  0.64910999  0.81784782  0.97645852  1
  O  O132  1  0.26757535  0.82981778  0.47898496  1
  O  O133  1  0.76845899  0.82750086  0.47694005  1
  O  O134  1  0.15300027  0.46812898  0.47354376  1
  O  O135  1  0.64141982  0.46341905  0.47645239  1
  O  O136  1  0.08735281  0.70835632  0.47685743  1
  O  O137  1  0.58475584  0.71658378  0.47612749  1
  O  O138  1  0.06236763  0.62531315  0.36085301  1
  O  O139  1  0.56092467  0.61762590  0.36146160  1
  O  O140  1  0.24588563  0.86353268  0.36177887  1
  O  O141  1  0.74870953  0.87016955  0.35953097  1
  O  O142  1  0.18615171  0.48819774  0.36517556  1
  O  O143  1  0.68659560  0.49994041  0.36069341  1
  O  O144  1  0.06528420  0.49616523  0.85787412  1
  O  O145  1  0.55858469  0.48843977  0.86550114  1
  O  O146  1  0.18556613  0.88828288  0.86476413  1
  O  O147  1  0.67911359  0.85385526  0.86132250  1
  O  O148  1  0.24662972  0.62364776  0.86334724  1
  O  O149  1  0.75837309  0.64688820  0.86221457  1
  O  O150  1  0.01539272  0.85134086  0.40859579  1
  O  O151  1  0.51377441  0.84734356  0.40315684  1
  O  O152  1  0.41007390  0.98647410  0.41186232  1
  O  O153  1  0.91456746  0.98479308  0.40910037  1
  O  O154  1  0.08996043  0.20551563  0.41605068  1
  O  O155  1  0.58191725  0.18238699  0.40913955  1
  O  O156  1  0.01080172  0.16861323  0.90623489  1
  O  O157  1  0.51286192  0.19998180  0.91412241  1
  O  O158  1  0.08852964  0.98043504  0.91449800  1
  O  O159  1  0.57702573  0.97187823  0.91231007  1
  O  O160  1  0.41035815  0.84338547  0.91344017  1
  O  O161  1  0.90075569  0.83486123  0.91201185  1
  O  O162  1  0.48574031  0.17609602  0.58433045  1
  O  O163  1  0.98441252  0.17358587  0.58664523  1
  O  O164  1  0.10106383  0.02660558  0.58492642  1
  O  O165  1  0.60409717  0.03160815  0.58565154  1
  O  O166  1  0.40946382  0.79198368  0.58326239  1
  O  O167  1  0.90967373  0.79674409  0.58707596  1
  O  O168  1  0.48201238  0.79039205  0.08846952  1
  O  O169  1  0.98949061  0.81897109  0.08683074  1
  O  O170  1  0.41218628  0.03111993  0.08712311  1
  O  O171  1  0.90888186  0.01737668  0.08874399  1
  O  O172  1  0.10542200  0.17820533  0.08710914  1
  O  O173  1  0.59528291  0.16771599  0.09077433  1
  O  O174  1  0.34798371  0.17641033  0.73898044  1
  O  O175  1  0.84752870  0.16292550  0.73969276  1
  O  O176  1  0.24204596  0.30436316  0.73804007  1
  O  O177  1  0.74160804  0.29657395  0.73972009  1
  O  O178  1  0.41293663  0.51586841  0.73863463  1
  O  O179  1  0.91202271  0.51073093  0.74013311  1
  O  O180  1  0.34943952  0.53213522  0.24005091  1
  O  O181  1  0.84574844  0.52936750  0.24451525  1
  O  O182  1  0.41384729  0.31631162  0.24066260  1
  O  O183  1  0.90496252  0.30461338  0.24175524  1
  O  O184  1  0.24272933  0.18988519  0.24104438  1
  O  O185  1  0.73356395  0.16605235  0.24219355  1
  O  O186  1  0.32275421  0.49083802  0.92998112  1
  O  O187  1  0.82045324  0.51290924  0.91990046  1
  O  O188  1  0.43193854  0.36165994  0.92814060  1
  O  O189  1  0.92377063  0.34963198  0.92267501  1
  O  O190  1  0.24745590  0.14226216  0.92907217  1
  O  O191  1  0.75375511  0.14513798  0.92333738  1
  O  O192  1  0.31728386  0.15028218  0.42852940  1
  O  O193  1  0.82386369  0.14937485  0.42770114  1
  O  O194  1  0.24772253  0.35731046  0.42934464  1
  O  O195  1  0.75301687  0.34846395  0.42819588  1
  O  O196  1  0.42156634  0.48977868  0.42702977  1
  O  O197  1  0.92544618  0.49089586  0.42814193  1
  O  O198  1  0.18685928  0.49961374  0.07965136  1
  O  O199  1  0.67887467  0.51863052  0.07330610  1
  O  O200  1  0.08492324  0.65128064  0.07192971  1
  O  O201  1  0.56385563  0.63173149  0.07858811  1
  O  O202  1  0.25258765  0.87594355  0.07733035  1
  O  O203  1  0.74953453  0.86138256  0.07663700  1
  O  O204  1  0.18136620  0.86346158  0.57790919  1
  O  O205  1  0.68430940  0.86723240  0.57916423  1
  O  O206  1  0.24681098  0.62759919  0.57560183  1
  O  O207  1  0.74894357  0.63119002  0.57803536  1
  O  O208  1  0.06814786  0.49603911  0.57675933  1
  O  O209  1  0.56615944  0.50043924  0.57821358  1
  O  O210  1  0.15717507  0.83664147  0.25439474  1
  O  O211  1  0.65447960  0.84273097  0.25163822  1
  O  O212  1  0.26858209  0.68977100  0.25499337  1
  O  O213  1  0.76839978  0.69846905  0.25324364  1
  O  O214  1  0.08584572  0.47419288  0.25670229  1
  O  O215  1  0.58997503  0.48668027  0.25305978  1
  O  O216  1  0.15173380  0.47434655  0.75074424  1
  O  O217  1  0.66014877  0.48084458  0.76100893  1
  O  O218  1  0.08737946  0.70464474  0.75759035  1
  O  O219  1  0.58520285  0.68945590  0.75436744  1
  O  O220  1  0.26174162  0.83115931  0.75870325  1
  O  O221  1  0.76950369  0.84251863  0.75372276  1
