# generated using pymatgen
data_Na7Y2Zn2P5SO24
_symmetry_space_group_name_H-M   'P 1'
_cell_length_a   9.20887958
_cell_length_b   9.23934526
_cell_length_c   23.07726791
_cell_angle_alpha   90.22617604
_cell_angle_beta   89.75381058
_cell_angle_gamma   119.96819706
_symmetry_Int_Tables_number   1
_chemical_formula_structural   Na7Y2Zn2P5SO24
_chemical_formula_sum   'Na21 Y6 Zn6 P15 S3 O72'
_cell_volume   1700.97195940
_cell_formula_units_Z   3
loop_
 _symmetry_equiv_pos_site_id
 _symmetry_equiv_pos_as_xyz
  1  'x, y, z'
loop_
 _atom_site_type_symbol
 _atom_site_label
 _atom_site_symmetry_multiplicity
 _atom_site_fract_x
 _atom_site_fract_y
 _atom_site_fract_z
 _atom_site_occupancy
  Na  Na0  1  0.63853699  0.99363927  0.25172813  1
  Na  Na1  1  0.00308881  0.63058032  0.25310077  1
  Na  Na2  1  0.63043255  0.63926225  0.74937292  1
  Na  Na3  1  0.00872074  0.36995882  0.75189109  1
  Na  Na4  1  0.36226589  0.99132768  0.75197057  1
  Na  Na5  1  0.29740396  0.33268392  0.58535243  1
  Na  Na6  1  0.03631252  0.70318948  0.58286561  1
  Na  Na7  1  0.66739647  0.96295589  0.58372012  1
  Na  Na8  1  0.29774423  0.96393030  0.08135373  1
  Na  Na9  1  0.66583616  0.70126610  0.08556925  1
  Na  Na10  1  0.03697606  0.33394011  0.08391732  1
  Na  Na11  1  0.98140656  0.66857448  0.91665830  1
  Na  Na12  1  0.32924004  0.29887318  0.91851159  1
  Na  Na13  1  0.96563725  0.30586218  0.41511706  1
  Na  Na14  1  0.70132320  0.67252728  0.41796693  1
  Na  Na15  1  0.00308053  0.99387138  0.50511253  1
  Na  Na16  1  0.99941088  0.00583698  0.00456730  1
  Na  Na17  1  0.66796651  0.31919699  0.83342503  1
  Na  Na18  1  0.66301818  0.33049748  0.33300421  1
  Na  Na19  1  0.33450186  0.65244148  0.16750622  1
  Na  Na20  1  0.33381872  0.66735306  0.66639789  1
  Y  Y21  1  0.00009903  0.99742698  0.35056396  1
  Y  Y22  1  0.99758128  0.00454287  0.85038256  1
  Y  Y23  1  0.66693846  0.33352077  0.68089160  1
  Y  Y24  1  0.66513789  0.33753901  0.18188798  1
  Y  Y25  1  0.66790833  0.32196626  0.98385665  1
  Y  Y26  1  0.66420159  0.32577963  0.48394199  1
  Zn  Zn27  1  0.99934275  0.99949072  0.65417388  1
  Zn  Zn28  1  0.99012553  0.00592419  0.15236002  1
  Zn  Zn29  1  0.32288602  0.66754896  0.01520966  1
  Zn  Zn30  1  0.33515456  0.68319780  0.51470508  1
  Zn  Zn31  1  0.33351483  0.66168387  0.31897981  1
  Zn  Zn32  1  0.32479961  0.67175087  0.81803989  1
  P  P33  1  0.69951075  0.70578334  0.24918637  1
  P  P34  1  0.00723355  0.30168290  0.24932594  1
  P  P35  1  0.29518575  0.30046298  0.74918937  1
  P  P36  1  0.00354536  0.70614345  0.74917285  1
  P  P37  1  0.70008012  0.99413625  0.74781784  1
  P  P38  1  0.97486095  0.33364321  0.58275239  1
  P  P39  1  0.35975534  0.02813894  0.58436083  1
  P  P40  1  0.66537775  0.63854089  0.58235309  1
  P  P41  1  0.97105208  0.63968820  0.08289716  1
  P  P42  1  0.66503989  0.02572954  0.08495400  1
  P  P43  1  0.36137659  0.33340616  0.08166078  1
  P  P44  1  0.04945018  0.38284484  0.91654328  1
  P  P45  1  0.33355221  0.95519512  0.91617092  1
  P  P46  1  0.61908772  0.95320788  0.41547428  1
  P  P47  1  0.04629923  0.66668338  0.41657677  1
  S  S48  1  0.29467235  0.99605728  0.24812312  1
  S  S49  1  0.62163629  0.66610781  0.91718557  1
  S  S50  1  0.33390942  0.38109883  0.41740664  1
  O  O51  1  0.21691727  0.02183374  0.30036165  1
  O  O52  1  0.81107181  0.78427148  0.30404201  1
  O  O53  1  0.97751794  0.19286781  0.30439412  1
  O  O54  1  0.21851231  0.19109462  0.80414669  1
  O  O55  1  0.97151089  0.78213972  0.80455018  1
  O  O56  1  0.81367060  0.02779826  0.80103022  1
  O  O57  1  0.78109144  0.96803203  0.69293220  1
  O  O58  1  0.18546362  0.21687577  0.69528762  1
  O  O59  1  0.02896187  0.81517225  0.69539876  1
  O  O60  1  0.78554479  0.81471063  0.19499382  1
  O  O61  1  0.02671997  0.21622755  0.19463471  1
  O  O62  1  0.19269716  0.97492108  0.19567683  1
  O  O63  1  0.89198979  0.36507278  0.63662917  1
  O  O64  1  0.47106774  0.10697775  0.63882227  1
  O  O65  1  0.63545409  0.52607945  0.63641413  1
  O  O66  1  0.88819909  0.52525293  0.13647016  1
  O  O67  1  0.63246438  0.10536252  0.13934329  1
  O  O68  1  0.47971874  0.36442174  0.13350690  1
  O  O69  1  0.44211490  0.30235904  0.02684487  1
  O  O70  1  0.85697581  0.55647371  0.02911313  1
  O  O71  1  0.69948890  0.14536880  0.03323333  1
  O  O72  1  0.44722467  0.14688843  0.53258227  1
  O  O73  1  0.69487358  0.55305326  0.52865731  1
  O  O74  1  0.85900681  0.30257274  0.52938354  1
  O  O75  1  0.54452199  0.68622491  0.97012279  1
  O  O76  1  0.15438497  0.46070966  0.97170224  1
  O  O77  1  0.30911033  0.85213184  0.97143916  1
  O  O78  1  0.54393005  0.84798109  0.47075169  1
  O  O79  1  0.30871012  0.45373816  0.47098954  1
  O  O80  1  0.14353685  0.68392828  0.47247728  1
  O  O81  1  0.12458846  0.63913187  0.36117950  1
  O  O82  1  0.51971990  0.87226747  0.35982611  1
  O  O83  1  0.35875892  0.48263821  0.36536235  1
  O  O84  1  0.12802414  0.48496953  0.86074956  1
  O  O85  1  0.35574361  0.87673994  0.86029646  1
  O  O86  1  0.52294542  0.64337763  0.86379774  1
  O  O87  1  0.01677035  0.81921582  0.41295526  1
  O  O88  1  0.80194787  0.97573018  0.41242840  1
  O  O89  1  0.18131428  0.21108571  0.41180606  1
  O  O90  1  0.03152608  0.20571725  0.91295522  1
  O  O91  1  0.16995842  0.97073462  0.91313662  1
  O  O92  1  0.79639485  0.81170566  0.91312107  1
  O  O93  1  0.98691919  0.17279800  0.58866440  1
  O  O94  1  0.18479163  0.01292784  0.58983886  1
  O  O95  1  0.82641073  0.81166958  0.58835658  1
  O  O96  1  0.98687612  0.81410913  0.09003780  1
  O  O97  1  0.82640668  0.01229978  0.08961529  1
  O  O98  1  0.18768585  0.17244357  0.08905402  1
  O  O99  1  0.68143468  0.15378883  0.74450511  1
  O  O100  1  0.47323004  0.31800585  0.74497153  1
  O  O101  1  0.84415870  0.52789785  0.74500102  1
  O  O102  1  0.68955484  0.53225413  0.24514330  1
  O  O103  1  0.84082149  0.31234499  0.24567091  1
  O  O104  1  0.46755275  0.14422514  0.24485401  1
  O  O105  1  0.63959793  0.51135673  0.92077115  1
  O  O106  1  0.87340999  0.37014799  0.92050940  1
  O  O107  1  0.48368343  0.13908865  0.91939703  1
  O  O108  1  0.64988940  0.13575085  0.41940339  1
  O  O109  1  0.48768044  0.36410200  0.42112538  1
  O  O110  1  0.86391487  0.50639302  0.41982709  1
  O  O111  1  0.34707409  0.49324985  0.07642668  1
  O  O112  1  0.14548984  0.65311106  0.07736736  1
  O  O113  1  0.50675784  0.85202919  0.07670808  1
  O  O114  1  0.34713240  0.85497808  0.57760455  1
  O  O115  1  0.50472352  0.65171297  0.57649688  1
  O  O116  1  0.14875725  0.49282104  0.57616658  1
  O  O117  1  0.30916318  0.84299405  0.25370743  1
  O  O118  1  0.52751996  0.69601002  0.25608045  1
  O  O119  1  0.15730245  0.48180010  0.25521730  1
  O  O120  1  0.31507038  0.47702831  0.75583510  1
  O  O121  1  0.16172808  0.68714527  0.75434179  1
  O  O122  1  0.52441788  0.83573465  0.75516800  1
