# generated using pymatgen
data_NaMgGa(SO4)3
_symmetry_space_group_name_H-M   'P 1'
_cell_length_a   8.53918022
_cell_length_b   8.53917995
_cell_length_c   22.30266937
_cell_angle_alpha   90.00000000
_cell_angle_beta   90.00000000
_cell_angle_gamma   120.00000103
_symmetry_Int_Tables_number   1
_chemical_formula_structural   NaMgGa(SO4)3
_chemical_formula_sum   'Na6 Mg6 Ga6 S18 O72'
_cell_volume   1408.37990125
_cell_formula_units_Z   6
loop_
 _symmetry_equiv_pos_site_id
 _symmetry_equiv_pos_as_xyz
  1  'x, y, z'
loop_
 _atom_site_type_symbol
 _atom_site_label
 _atom_site_symmetry_multiplicity
 _atom_site_fract_x
 _atom_site_fract_y
 _atom_site_fract_z
 _atom_site_occupancy
  Na  Na0  1  0.00000000  -0.00000000  0.49897711  1
  Na  Na1  1  0.00000000  -0.00000000  0.99897711  1
  Na  Na2  1  0.66666700  0.33333300  0.83231011  1
  Na  Na3  1  0.66666700  0.33333300  0.33231011  1
  Na  Na4  1  0.33333300  0.66666700  0.16564411  1
  Na  Na5  1  0.33333300  0.66666700  0.66564411  1
  Mg  Mg6  1  0.00000000  -0.00000000  0.35232127  1
  Mg  Mg7  1  0.00000000  -0.00000000  0.85232127  1
  Mg  Mg8  1  0.66666700  0.33333300  0.68565427  1
  Mg  Mg9  1  0.66666700  0.33333300  0.18565427  1
  Mg  Mg10  1  0.33333300  0.66666700  0.01898827  1
  Mg  Mg11  1  0.33333300  0.66666700  0.51898827  1
  Ga  Ga12  1  0.00000000  -0.00000000  0.65018056  1
  Ga  Ga13  1  0.00000000  -0.00000000  0.15018056  1
  Ga  Ga14  1  0.66666700  0.33333300  0.98351356  1
  Ga  Ga15  1  0.66666700  0.33333300  0.48351356  1
  Ga  Ga16  1  0.33333300  0.66666700  0.31684756  1
  Ga  Ga17  1  0.33333300  0.66666700  0.81684756  1
  S  S18  1  0.29050294  0.99638797  0.25086521  1
  S  S19  1  0.70588503  0.70949706  0.25086521  1
  S  S20  1  0.00361203  0.29411497  0.25086521  1
  S  S21  1  0.29050294  0.29411497  0.75086521  1
  S  S22  1  0.00361203  0.70949706  0.75086521  1
  S  S23  1  0.70588503  0.99638797  0.75086521  1
  S  S24  1  0.95716994  0.32972097  0.58419821  1
  S  S25  1  0.37255203  0.04283006  0.58419821  1
  S  S26  1  0.67027903  0.62744797  0.58419821  1
  S  S27  1  0.95716994  0.62744797  0.08419821  1
  S  S28  1  0.67027903  0.04283006  0.08419821  1
  S  S29  1  0.37255203  0.32972097  0.08419821  1
  S  S30  1  0.62383594  0.66305497  0.91753221  1
  S  S31  1  0.03921803  0.37616406  0.91753221  1
  S  S32  1  0.33694503  0.96078197  0.91753221  1
  S  S33  1  0.62383594  0.96078197  0.41753221  1
  S  S34  1  0.33694503  0.37616406  0.41753221  1
  S  S35  1  0.03921803  0.66305497  0.41753221  1
  O  O36  1  0.20642817  0.02164838  0.30383925  1
  O  O37  1  0.81522022  0.79357183  0.30383925  1
  O  O38  1  0.97835162  0.18477978  0.30383925  1
  O  O39  1  0.20642817  0.18477978  0.80383925  1
  O  O40  1  0.97835162  0.79357183  0.80383925  1
  O  O41  1  0.81522022  0.02164838  0.80383925  1
  O  O42  1  0.78468319  0.96376925  0.69506098  1
  O  O43  1  0.17908606  0.21531681  0.69506098  1
  O  O44  1  0.03623075  0.82091394  0.69506098  1
  O  O45  1  0.78468319  0.82091394  0.19506098  1
  O  O46  1  0.03623075  0.21531681  0.19506098  1
  O  O47  1  0.17908606  0.96376925  0.19506098  1
  O  O48  1  0.87309517  0.35498138  0.63717225  1
  O  O49  1  0.48188722  0.12690483  0.63717225  1
  O  O50  1  0.64501862  0.51811278  0.63717225  1
  O  O51  1  0.87309517  0.51811278  0.13717225  1
  O  O52  1  0.64501862  0.12690483  0.13717225  1
  O  O53  1  0.48188722  0.35498138  0.13717225  1
  O  O54  1  0.45135019  0.29710225  0.02839398  1
  O  O55  1  0.84575306  0.54864981  0.02839398  1
  O  O56  1  0.70289775  0.15424694  0.02839398  1
  O  O57  1  0.45135019  0.15424694  0.52839398  1
  O  O58  1  0.70289775  0.54864981  0.52839398  1
  O  O59  1  0.84575306  0.29710225  0.52839398  1
  O  O60  1  0.53976117  0.68831538  0.97050625  1
  O  O61  1  0.14855322  0.46023883  0.97050625  1
  O  O62  1  0.31168462  0.85144678  0.97050625  1
  O  O63  1  0.53976117  0.85144678  0.47050625  1
  O  O64  1  0.31168462  0.46023883  0.47050625  1
  O  O65  1  0.14855322  0.68831538  0.47050625  1
  O  O66  1  0.11801619  0.63043625  0.36172798  1
  O  O67  1  0.51241906  0.88198381  0.36172798  1
  O  O68  1  0.36956375  0.48758094  0.36172798  1
  O  O69  1  0.11801619  0.48758094  0.86172798  1
  O  O70  1  0.36956375  0.88198381  0.86172798  1
  O  O71  1  0.51241906  0.63043625  0.86172798  1
  O  O72  1  0.01712533  0.82198506  0.41037696  1
  O  O73  1  0.80485973  0.98287467  0.41037696  1
  O  O74  1  0.17801494  0.19514027  0.41037696  1
  O  O75  1  0.01712533  0.19514027  0.91037696  1
  O  O76  1  0.17801494  0.98287467  0.91037696  1
  O  O77  1  0.80485973  0.82198506  0.91037696  1
  O  O78  1  0.97396627  0.16300681  0.58936462  1
  O  O79  1  0.18904054  0.02603373  0.58936462  1
  O  O80  1  0.83699319  0.81095946  0.58936462  1
  O  O81  1  0.97396627  0.81095946  0.08936462  1
  O  O82  1  0.83699319  0.02603373  0.08936462  1
  O  O83  1  0.18904054  0.16300681  0.08936462  1
  O  O84  1  0.68379233  0.15531806  0.74370996  1
  O  O85  1  0.47152673  0.31620767  0.74370996  1
  O  O86  1  0.84468194  0.52847327  0.74370996  1
  O  O87  1  0.68379233  0.52847327  0.24370996  1
  O  O88  1  0.84468194  0.31620767  0.24370996  1
  O  O89  1  0.47152673  0.15531806  0.24370996  1
  O  O90  1  0.64063327  0.49633981  0.92269762  1
  O  O91  1  0.85570754  0.35936673  0.92269762  1
  O  O92  1  0.50366019  0.14429246  0.92269762  1
  O  O93  1  0.64063327  0.14429246  0.42269762  1
  O  O94  1  0.50366019  0.35936673  0.42269762  1
  O  O95  1  0.85570754  0.49633981  0.42269762  1
  O  O96  1  0.35045833  0.48865206  0.07704396  1
  O  O97  1  0.13819273  0.64954167  0.07704396  1
  O  O98  1  0.51134794  0.86180727  0.07704396  1
  O  O99  1  0.35045833  0.86180727  0.57704396  1
  O  O100  1  0.51134794  0.64954167  0.57704396  1
  O  O101  1  0.13819273  0.48865206  0.57704396  1
  O  O102  1  0.30729927  0.82967381  0.25603162  1
  O  O103  1  0.52237354  0.69270073  0.25603162  1
  O  O104  1  0.17032619  0.47762646  0.25603162  1
  O  O105  1  0.30729927  0.47762646  0.75603162  1
  O  O106  1  0.17032619  0.69270073  0.75603162  1
  O  O107  1  0.52237354  0.82967381  0.75603162  1
