# generated using pymatgen
data_NaCaLa3(SO4)6
_symmetry_space_group_name_H-M   'P 1'
_cell_length_a   9.50161919
_cell_length_b   9.50161884
_cell_length_c   24.99542361
_cell_angle_alpha   90.00000000
_cell_angle_beta   90.00000000
_cell_angle_gamma   120.00000125
_symmetry_Int_Tables_number   1
_chemical_formula_structural   NaCaLa3(SO4)6
_chemical_formula_sum   'Na3 Ca3 La9 S18 O72'
_cell_volume   1954.27804401
_cell_formula_units_Z   3
loop_
 _symmetry_equiv_pos_site_id
 _symmetry_equiv_pos_as_xyz
  1  'x, y, z'
loop_
 _atom_site_type_symbol
 _atom_site_label
 _atom_site_symmetry_multiplicity
 _atom_site_fract_x
 _atom_site_fract_y
 _atom_site_fract_z
 _atom_site_occupancy
  Na  Na0  1  -0.00000000  0.00000000  0.99464013  1
  Na  Na1  1  0.66666700  0.33333300  0.83890436  1
  Na  Na2  1  0.66666700  0.33333300  0.33314233  1
  Ca  Ca3  1  -0.00000000  0.00000000  0.35455485  1
  Ca  Ca4  1  -0.00000000  0.00000000  0.85125132  1
  Ca  Ca5  1  0.66666700  0.33333300  0.98181821  1
  La  La6  1  -0.00000000  0.00000000  0.64749189  1
  La  La7  1  -0.00000000  0.00000000  0.14945429  1
  La  La8  1  0.66666700  0.33333300  0.68610775  1
  La  La9  1  0.66666700  0.33333300  0.18353039  1
  La  La10  1  0.66666700  0.33333300  0.48100698  1
  La  La11  1  0.33333300  0.66666700  0.01870592  1
  La  La12  1  0.33333300  0.66666700  0.51814842  1
  La  La13  1  0.33333300  0.66666700  0.31198901  1
  La  La14  1  0.33333300  0.66666700  0.81434774  1
  S  S15  1  0.29325127  0.00535234  0.25269044  1
  S  S16  1  0.71210107  0.70674873  0.25269044  1
  S  S17  1  0.99464766  0.28789893  0.25269044  1
  S  S18  1  0.29223484  0.28880072  0.75219446  1
  S  S19  1  0.99656587  0.70776516  0.75219446  1
  S  S20  1  0.71119928  0.00343413  0.75219446  1
  S  S21  1  0.96021277  0.33390982  0.58331789  1
  S  S22  1  0.37369804  0.03978723  0.58331789  1
  S  S23  1  0.66609018  0.62630196  0.58331789  1
  S  S24  1  0.95617305  0.62700195  0.08088239  1
  S  S25  1  0.67082990  0.04382695  0.08088239  1
  S  S26  1  0.37299805  0.32917010  0.08088239  1
  S  S27  1  0.63500444  0.66669543  0.91657920  1
  S  S28  1  0.03168999  0.36499556  0.91657920  1
  S  S29  1  0.33330457  0.96831001  0.91657920  1
  S  S30  1  0.63086911  0.96234408  0.41499560  1
  S  S31  1  0.33147397  0.36913089  0.41499560  1
  S  S32  1  0.03765592  0.66852603  0.41499560  1
  O  O33  1  0.21234267  0.02509323  0.29928825  1
  O  O34  1  0.81275056  0.78765733  0.29928825  1
  O  O35  1  0.97490677  0.18724944  0.29928825  1
  O  O36  1  0.21218055  0.18784342  0.79922048  1
  O  O37  1  0.97566287  0.78781945  0.79922048  1
  O  O38  1  0.81215658  0.02433713  0.79922048  1
  O  O39  1  0.78660167  0.98619345  0.70247364  1
  O  O40  1  0.19959179  0.21339833  0.70247364  1
  O  O41  1  0.01380655  0.80040821  0.70247364  1
  O  O42  1  0.78743333  0.79960927  0.20243655  1
  O  O43  1  0.01217595  0.21256667  0.20243655  1
  O  O44  1  0.20039073  0.98782405  0.20243655  1
  O  O45  1  0.88122134  0.35642415  0.63135914  1
  O  O46  1  0.47520381  0.11877866  0.63135914  1
  O  O47  1  0.64357585  0.52479619  0.63135914  1
  O  O48  1  0.88069624  0.53342566  0.13082426  1
  O  O49  1  0.65273042  0.11930376  0.13082426  1
  O  O50  1  0.46657434  0.34726958  0.13082426  1
  O  O51  1  0.45403776  0.30871495  0.03415358  1
  O  O52  1  0.85467819  0.54596224  0.03415358  1
  O  O53  1  0.69128505  0.14532181  0.03415358  1
  O  O54  1  0.45261108  0.14151948  0.53546197  1
  O  O55  1  0.68890940  0.54738892  0.53546197  1
  O  O56  1  0.85848052  0.31109060  0.53546197  1
  O  O57  1  0.55212891  0.68525369  0.96495306  1
  O  O58  1  0.13312378  0.44787109  0.96495306  1
  O  O59  1  0.31474631  0.86687622  0.96495306  1
  O  O60  1  0.55060209  0.86681797  0.46389372  1
  O  O61  1  0.31621488  0.44939791  0.46389372  1
  O  O62  1  0.13318203  0.68378512  0.46389372  1
  O  O63  1  0.11767684  0.64234722  0.36773550  1
  O  O64  1  0.52466939  0.88232316  0.36773550  1
  O  O65  1  0.35765278  0.47533061  0.36773550  1
  O  O66  1  0.11445333  0.46638916  0.86845151  1
  O  O67  1  0.35193484  0.88554667  0.86845151  1
  O  O68  1  0.53361084  0.64806516  0.86845151  1
  O  O69  1  0.02120572  0.81209320  0.40793612  1
  O  O70  1  0.79088748  0.97879428  0.40793612  1
  O  O71  1  0.18790680  0.20911252  0.40793612  1
  O  O72  1  0.01719178  0.20257840  0.91175203  1
  O  O73  1  0.18538662  0.98280822  0.91175203  1
  O  O74  1  0.79742160  0.81461338  0.91175203  1
  O  O75  1  0.97673556  0.18851571  0.59056593  1
  O  O76  1  0.21178015  0.02326444  0.59056593  1
  O  O77  1  0.81148429  0.78821985  0.59056593  1
  O  O78  1  0.97531847  0.79339203  0.08653255  1
  O  O79  1  0.81807356  0.02468153  0.08653255  1
  O  O80  1  0.20660797  0.18192644  0.08653255  1
  O  O81  1  0.69171523  0.15099234  0.74695765  1
  O  O82  1  0.45927811  0.30828477  0.74695765  1
  O  O83  1  0.84900766  0.54072189  0.74695765  1
  O  O84  1  0.69225817  0.53950737  0.24708506  1
  O  O85  1  0.84725021  0.30774183  0.24708506  1
  O  O86  1  0.46049263  0.15274979  0.24708506  1
  O  O87  1  0.64950753  0.51875135  0.92161577  1
  O  O88  1  0.86924482  0.35049247  0.92161577  1
  O  O89  1  0.48124865  0.13075518  0.92161577  1
  O  O90  1  0.64691036  0.12816077  0.42011976  1
  O  O91  1  0.48125140  0.35308964  0.42011976  1
  O  O92  1  0.87183923  0.51874860  0.42011976  1
  O  O93  1  0.35494735  0.47481495  0.07503041  1
  O  O94  1  0.11986660  0.64505265  0.07503041  1
  O  O95  1  0.52518505  0.88013340  0.07503041  1
  O  O96  1  0.35728176  0.87792528  0.57601455  1
  O  O97  1  0.52064252  0.64271824  0.57601455  1
  O  O98  1  0.12207472  0.47935748  0.57601455  1
  O  O99  1  0.31162438  0.85995822  0.25782968  1
  O  O100  1  0.54833284  0.68837562  0.25782968  1
  O  O101  1  0.14004178  0.45166716  0.25782968  1
  O  O102  1  0.31114801  0.45286830  0.75817297  1
  O  O103  1  0.14171929  0.68885199  0.75817297  1
  O  O104  1  0.54713170  0.85828071  0.75817297  1
