# generated using pymatgen
data_MgNbBi3O7
_symmetry_space_group_name_H-M   'P 1'
_cell_length_a   4.96146971
_cell_length_b   4.90689687
_cell_length_c   18.37460737
_cell_angle_alpha   47.81249887
_cell_angle_beta   46.27402060
_cell_angle_gamma   46.33419289
_symmetry_Int_Tables_number   1
_chemical_formula_structural   MgNbBi3O7
_chemical_formula_sum   'Mg1 Nb1 Bi3 O7'
_cell_volume   217.09158676
_cell_formula_units_Z   1
loop_
 _symmetry_equiv_pos_site_id
 _symmetry_equiv_pos_as_xyz
  1  'x, y, z'
loop_
 _atom_site_type_symbol
 _atom_site_label
 _atom_site_symmetry_multiplicity
 _atom_site_fract_x
 _atom_site_fract_y
 _atom_site_fract_z
 _atom_site_occupancy
  Mg  Mg0  1  0.47928564  0.42105542  0.62861015  1
  Nb  Nb1  1  0.02498439  0.92731548  0.49246400  1
  Bi  Bi2  1  -0.00367229  0.71915177  0.04469927  1
  Bi  Bi3  1  0.02547979  0.03823194  0.26472695  1
  Bi  Bi4  1  0.91294376  0.92414202  0.79470686  1
  O  O5  1  0.33115060  0.19311559  0.34634891  1
  O  O6  1  0.81084022  0.71859777  0.19124427  1
  O  O7  1  0.47822059  0.38763008  0.52377542  1
  O  O8  1  0.82607727  0.71977488  0.49302634  1
  O  O9  1  0.33127741  0.31609367  0.77683892  1
  O  O10  1  0.90690608  0.84562494  0.63642492  1
  O  O11  1  0.61917254  0.68259946  0.96296699  1
