# generated using pymatgen
data_Na18Mg8Nb16Si21(S5O48)3
_symmetry_space_group_name_H-M   'P 1'
_cell_length_a   17.85805077
_cell_length_b   8.93235494
_cell_length_c   22.80390496
_cell_angle_alpha   89.85181305
_cell_angle_beta   90.32527100
_cell_angle_gamma   120.09161473
_symmetry_Int_Tables_number   1
_chemical_formula_structural   Na18Mg8Nb16Si21(S5O48)3
_chemical_formula_sum   'Na18 Mg8 Nb16 Si21 S15 O144'
_cell_volume   3147.24964054
_cell_formula_units_Z   1
loop_
 _symmetry_equiv_pos_site_id
 _symmetry_equiv_pos_as_xyz
  1  'x, y, z'
loop_
 _atom_site_type_symbol
 _atom_site_label
 _atom_site_symmetry_multiplicity
 _atom_site_fract_x
 _atom_site_fract_y
 _atom_site_fract_z
 _atom_site_occupancy
  Na  Na0  1  0.31975664  0.01566209  0.23985954  1
  Na  Na1  1  0.81689052  0.01388580  0.24084841  1
  Na  Na2  1  0.99682500  0.63641052  0.24158668  1
  Na  Na3  1  0.32581945  0.62302079  0.74421606  1
  Na  Na4  1  0.81723499  0.61945094  0.74205380  1
  Na  Na5  1  0.49387863  0.35906059  0.74023953  1
  Na  Na6  1  0.99030158  0.98369186  0.48976429  1
  Na  Na7  1  0.49089303  0.98902308  0.49252580  1
  Na  Na8  1  0.99098463  0.99378164  0.98686878  1
  Na  Na9  1  0.49143138  0.99741777  0.98753990  1
  Na  Na10  1  0.32716510  0.33658107  0.82527159  1
  Na  Na11  1  0.82433346  0.31889115  0.82748307  1
  Na  Na12  1  0.32751315  0.33194305  0.32998855  1
  Na  Na13  1  0.81529816  0.31356232  0.33284240  1
  Na  Na14  1  0.16831777  0.67040274  0.16016208  1
  Na  Na15  1  0.65642481  0.66417913  0.16197893  1
  Na  Na16  1  0.15978327  0.65220890  0.66414894  1
  Na  Na17  1  0.66314301  0.66548656  0.66380147  1
  Mg  Mg18  1  0.00150672  0.99726644  0.35813795  1
  Mg  Mg19  1  0.50222804  0.99724881  0.35779211  1
  Mg  Mg20  1  0.00040476  0.00576729  0.85730680  1
  Mg  Mg21  1  0.50016622  0.99712346  0.85544475  1
  Mg  Mg22  1  0.33643887  0.34903864  0.68574309  1
  Mg  Mg23  1  0.83320270  0.33818598  0.68413916  1
  Mg  Mg24  1  0.33380782  0.32758761  0.18411687  1
  Mg  Mg25  1  0.82865799  0.32258072  0.18255912  1
  Nb  Nb26  1  0.00097747  0.01283240  0.64256193  1
  Nb  Nb27  1  0.50346998  0.99921989  0.64512518  1
  Nb  Nb28  1  0.00212404  0.99153888  0.14070927  1
  Nb  Nb29  1  0.50136332  0.98919260  0.14191020  1
  Nb  Nb30  1  0.34530246  0.34540795  0.97678990  1
  Nb  Nb31  1  0.84372029  0.34459452  0.97757167  1
  Nb  Nb32  1  0.34483158  0.34321224  0.47963567  1
  Nb  Nb33  1  0.84411856  0.34239754  0.47812651  1
  Nb  Nb34  1  0.16904411  0.66998138  0.01990117  1
  Nb  Nb35  1  0.66948996  0.66857863  0.01953466  1
  Nb  Nb36  1  0.16964782  0.67332111  0.52164469  1
  Nb  Nb37  1  0.66899129  0.67011714  0.52163129  1
  Nb  Nb38  1  0.16589332  0.68053933  0.31511126  1
  Nb  Nb39  1  0.65991865  0.67818999  0.31410728  1
  Nb  Nb40  1  0.16215244  0.64283320  0.81298574  1
  Nb  Nb41  1  0.66145642  0.64871004  0.81132579  1
  Si  Si42  1  0.14822479  0.01779464  0.25402038  1
  Si  Si43  1  0.64725867  0.01714723  0.25399644  1
  Si  Si44  1  0.14561784  0.27484556  0.75419874  1
  Si  Si45  1  0.64809061  0.27612335  0.75380595  1
  Si  Si46  1  0.49996501  0.71204788  0.75470195  1
  Si  Si47  1  0.48078350  0.33261132  0.58839406  1
  Si  Si48  1  0.97885435  0.34249783  0.58705784  1
  Si  Si49  1  0.33472194  0.62306792  0.58653209  1
  Si  Si50  1  0.83439597  0.61995527  0.58724472  1
  Si  Si51  1  0.47900184  0.61361315  0.08667270  1
  Si  Si52  1  0.97889673  0.61284395  0.08851900  1
  Si  Si53  1  0.33341290  0.04751125  0.08752205  1
  Si  Si54  1  0.83284220  0.04576458  0.08695971  1
  Si  Si55  1  0.31484099  0.66672419  0.91732814  1
  Si  Si56  1  0.81460477  0.66825379  0.91554286  1
  Si  Si57  1  0.02232790  0.36775423  0.91847904  1
  Si  Si58  1  0.52356295  0.36637568  0.91673649  1
  Si  Si59  1  0.31629142  0.96753545  0.41804643  1
  Si  Si60  1  0.81430507  0.96259599  0.41690870  1
  Si  Si61  1  0.02178261  0.67518076  0.41770414  1
  Si  Si62  1  0.52118101  0.67741695  0.41925125  1
  S  S63  1  0.35548832  0.70825548  0.25032431  1
  S  S64  1  0.85388243  0.70944611  0.24973417  1
  S  S65  1  0.00281807  0.28864288  0.25142955  1
  S  S66  1  0.50257861  0.28821542  0.25144907  1
  S  S67  1  0.00261028  0.71671214  0.75160186  1
  S  S68  1  0.35248236  0.99660846  0.74998752  1
  S  S69  1  0.85685390  0.00371326  0.75008892  1
  S  S70  1  0.18954638  0.04748972  0.58445224  1
  S  S71  1  0.69038253  0.04724166  0.58335868  1
  S  S72  1  0.18980760  0.33441665  0.08448672  1
  S  S73  1  0.68873901  0.33321568  0.08383075  1
  S  S74  1  0.16753505  0.95532476  0.91612240  1
  S  S75  1  0.66809635  0.95659551  0.91721015  1
  S  S76  1  0.16728731  0.38070448  0.41693328  1
  S  S77  1  0.66717052  0.38126600  0.41646876  1
  O  O78  1  0.09405273  0.01495728  0.30824590  1
  O  O79  1  0.59782520  0.02427497  0.30937978  1
  O  O80  1  0.40495623  0.79250876  0.30271072  1
  O  O81  1  0.90605859  0.79269758  0.30160498  1
  O  O82  1  0.48952291  0.18220047  0.30322874  1
  O  O83  1  0.99020912  0.18341457  0.30313708  1
  O  O84  1  0.09528844  0.17021030  0.80966409  1
  O  O85  1  0.59692426  0.17817170  0.80996963  1
  O  O86  1  0.47659977  0.79685253  0.80701758  1
  O  O87  1  0.98954340  0.79623886  0.80330578  1
  O  O88  1  0.40378546  0.02507765  0.80293101  1
  O  O89  1  0.90680634  0.02015240  0.80245312  1
  O  O90  1  0.39303594  0.96291566  0.69687392  1
  O  O91  1  0.89818033  0.97263289  0.69560162  1
  O  O92  1  0.08384940  0.18621335  0.69312427  1
  O  O93  1  0.58530902  0.19528567  0.69295794  1
  O  O94  1  0.01212564  0.81923140  0.69709707  1
  O  O95  1  0.51142463  0.83244271  0.69359589  1
  O  O96  1  0.39533950  0.82219890  0.19610111  1
  O  O97  1  0.89537335  0.82218568  0.19550928  1
  O  O98  1  0.01090929  0.20520897  0.19697374  1
  O  O99  1  0.51207693  0.20551576  0.19714501  1
  O  O100  1  0.08453226  0.97781497  0.19310837  1
  O  O101  1  0.58614768  0.98532314  0.19300581  1
  O  O102  1  0.44076559  0.35977619  0.64616613  1
  O  O103  1  0.93570687  0.36550040  0.64310436  1
  O  O104  1  0.24031273  0.12275119  0.63704211  1
  O  O105  1  0.73957766  0.12062376  0.63676709  1
  O  O106  1  0.31349237  0.51978918  0.64616327  1
  O  O107  1  0.81455345  0.51943266  0.64751456  1
  O  O108  1  0.43575046  0.50626121  0.14334208  1
  O  O109  1  0.93940084  0.51856216  0.14889075  1
  O  O110  1  0.31325891  0.10696378  0.14792742  1
  O  O111  1  0.81567942  0.11006374  0.14737732  1
  O  O112  1  0.23873384  0.35713555  0.13791514  1
  O  O113  1  0.73892638  0.35897195  0.13701793  1
  O  O114  1  0.22593379  0.30586963  0.03106266  1
  O  O115  1  0.72611182  0.30555432  0.03060378  1
  O  O116  1  0.41896919  0.53246658  0.02579524  1
  O  O117  1  0.91658932  0.52592142  0.02932802  1
  O  O118  1  0.34408695  0.17057870  0.02965323  1
  O  O119  1  0.84411760  0.16908801  0.02931436  1
  O  O120  1  0.22661029  0.14703623  0.53013019  1
  O  O121  1  0.73048246  0.14757813  0.52966168  1
  O  O122  1  0.34347292  0.51816839  0.52825313  1
  O  O123  1  0.84478571  0.51753173  0.52891052  1
  O  O124  1  0.41810596  0.30608334  0.52825099  1
  O  O125  1  0.91911553  0.30501486  0.52555123  1
  O  O126  1  0.25794064  0.67917478  0.97259525  1
  O  O127  1  0.76091319  0.68568354  0.97187360  1
  O  O128  1  0.07972640  0.48611069  0.97407059  1
  O  O129  1  0.58186414  0.48714452  0.97206519  1
  O  O130  1  0.16010118  0.85223130  0.97072960  1
  O  O131  1  0.66150002  0.85417091  0.97150538  1
  O  O132  1  0.26110146  0.83842702  0.47228890  1
  O  O133  1  0.76063061  0.83638062  0.47208235  1
  O  O134  1  0.15967638  0.46795955  0.47016166  1
  O  O135  1  0.66026309  0.46862121  0.47022896  1
  O  O136  1  0.08142193  0.67457759  0.47190408  1
  O  O137  1  0.58124593  0.67616046  0.47310316  1
  O  O138  1  0.06709487  0.64052199  0.35734271  1
  O  O139  1  0.56636632  0.64109728  0.35933516  1
  O  O140  1  0.25166370  0.86322515  0.35830933  1
  O  O141  1  0.75049548  0.85970153  0.35749363  1
  O  O142  1  0.17981024  0.49220951  0.36351387  1
  O  O143  1  0.68027555  0.49157482  0.36343974  1
  O  O144  1  0.06757063  0.49463296  0.85960528  1
  O  O145  1  0.56626684  0.49133885  0.85704725  1
  O  O146  1  0.18062753  0.87156151  0.86400071  1
  O  O147  1  0.68163756  0.87445368  0.86492376  1
  O  O148  1  0.25097975  0.64175292  0.85844993  1
  O  O149  1  0.75325107  0.64602557  0.85713012  1
  O  O150  1  0.01308353  0.84108157  0.41620321  1
  O  O151  1  0.51286522  0.84346221  0.41745592  1
  O  O152  1  0.40924771  0.99301341  0.41011025  1
  O  O153  1  0.90819458  0.99099921  0.40977755  1
  O  O154  1  0.08900448  0.21396059  0.41185483  1
  O  O155  1  0.58917628  0.21414907  0.41239525  1
  O  O156  1  0.01335851  0.18454188  0.91734785  1
  O  O157  1  0.51385836  0.18293684  0.91554728  1
  O  O158  1  0.08933578  0.96550463  0.91303411  1
  O  O159  1  0.59070355  0.96932293  0.91463232  1
  O  O160  1  0.40707103  0.83089179  0.91502004  1
  O  O161  1  0.90968623  0.82602259  0.91130230  1
  O  O162  1  0.49073360  0.15953732  0.58940436  1
  O  O163  1  0.98873185  0.16447044  0.59034849  1
  O  O164  1  0.09925934  0.02098154  0.58899391  1
  O  O165  1  0.60166938  0.02652484  0.58603302  1
  O  O166  1  0.42188412  0.81689742  0.58890878  1
  O  O167  1  0.92280971  0.81442879  0.59169851  1
  O  O168  1  0.48888548  0.81251243  0.09125912  1
  O  O169  1  0.98826539  0.81099361  0.09058057  1
  O  O170  1  0.42205872  0.03013578  0.09334009  1
  O  O171  1  0.92251106  0.02942753  0.09272322  1
  O  O172  1  0.09862022  0.17758576  0.08986157  1
  O  O173  1  0.59856754  0.17778307  0.08909397  1
  O  O174  1  0.33953795  0.14424046  0.74005298  1
  O  O175  1  0.84495176  0.15214823  0.74166531  1
  O  O176  1  0.24368731  0.32137431  0.74673739  1
  O  O177  1  0.74681801  0.32047062  0.74769174  1
  O  O178  1  0.42402461  0.51282832  0.74724682  1
  O  O179  1  0.92851450  0.53874445  0.74602222  1
  O  O180  1  0.34269039  0.53536230  0.24228680  1
  O  O181  1  0.84515290  0.53776364  0.24222868  1
  O  O182  1  0.42864188  0.31836981  0.24600115  1
  O  O183  1  0.92898917  0.32145132  0.24690082  1
  O  O184  1  0.24711274  0.16848195  0.24862587  1
  O  O185  1  0.74671652  0.16880694  0.24765199  1
  O  O186  1  0.30994681  0.47746286  0.92569074  1
  O  O187  1  0.81111011  0.48019918  0.92662652  1
  O  O188  1  0.42808614  0.36079455  0.92217874  1
  O  O189  1  0.92723869  0.36259453  0.92234763  1
  O  O190  1  0.24648326  0.12833643  0.92261545  1
  O  O191  1  0.74771486  0.13038402  0.92340697  1
  O  O192  1  0.30988109  0.14429879  0.42510718  1
  O  O193  1  0.80967945  0.14238351  0.42425215  1
  O  O194  1  0.24628431  0.36631453  0.42111282  1
  O  O195  1  0.74639061  0.36612424  0.42155657  1
  O  O196  1  0.42657342  0.49229385  0.42204623  1
  O  O197  1  0.92675673  0.49146281  0.42076008  1
  O  O198  1  0.17614400  0.48677720  0.07863534  1
  O  O199  1  0.67628651  0.48682850  0.07767478  1
  O  O200  1  0.07681583  0.64868889  0.07627239  1
  O  O201  1  0.57714033  0.65064444  0.07427082  1
  O  O202  1  0.25310841  0.84944288  0.07278356  1
  O  O203  1  0.75311086  0.84826670  0.07311068  1
  O  O204  1  0.17657946  0.86651026  0.57809600  1
  O  O205  1  0.67738640  0.86657876  0.57762630  1
  O  O206  1  0.25237425  0.65471349  0.57093214  1
  O  O207  1  0.75367123  0.65549096  0.57178183  1
  O  O208  1  0.07685596  0.50331341  0.57400406  1
  O  O209  1  0.57689486  0.50190238  0.57379671  1
  O  O210  1  0.15241905  0.82259928  0.25555756  1
  O  O211  1  0.65426644  0.82673578  0.25545794  1
  O  O212  1  0.26684358  0.69803577  0.25292554  1
  O  O213  1  0.76640163  0.69531682  0.25232526  1
  O  O214  1  0.08474930  0.46597109  0.25461001  1
  O  O215  1  0.58592755  0.46334284  0.25572606  1
  O  O216  1  0.15249560  0.47960070  0.75617063  1
  O  O217  1  0.65486589  0.48105411  0.75508262  1
  O  O218  1  0.08592808  0.70917019  0.75589608  1
  O  O219  1  0.59379524  0.70898245  0.75792795  1
  O  O220  1  0.26456904  0.83130145  0.75411438  1
  O  O221  1  0.77021337  0.83745252  0.75160322  1
