# generated using pymatgen
data_MgMn2V2(BiO5)2
_symmetry_space_group_name_H-M   'P 1'
_cell_length_a   5.48655419
_cell_length_b   7.14215667
_cell_length_c   7.24772493
_cell_angle_alpha   110.20641971
_cell_angle_beta   102.95664204
_cell_angle_gamma   97.13788466
_symmetry_Int_Tables_number   1
_chemical_formula_structural   MgMn2V2(BiO5)2
_chemical_formula_sum   'Mg1 Mn2 V2 Bi2 O10'
_cell_volume   253.34714102
_cell_formula_units_Z   1
loop_
 _symmetry_equiv_pos_site_id
 _symmetry_equiv_pos_as_xyz
  1  'x, y, z'
loop_
 _atom_site_type_symbol
 _atom_site_label
 _atom_site_symmetry_multiplicity
 _atom_site_fract_x
 _atom_site_fract_y
 _atom_site_fract_z
 _atom_site_occupancy
  Mg  Mg0  1  0.78937400  0.53424700  0.15708000  1
  Mn  Mn1  1  0.31793900  0.36296500  0.23637800  1
  Mn  Mn2  1  0.65746200  0.61607000  0.75767400  1
  V  V3  1  0.67086100  0.16245000  0.86448500  1
  V  V4  1  0.32432900  0.81675400  0.11776500  1
  Bi  Bi5  1  0.14665200  0.77663300  0.59222500  1
  Bi  Bi6  1  0.86747000  0.23509800  0.43186900  1
  O  O7  1  0.16904300  0.65904900  0.23476600  1
  O  O8  1  0.43080200  0.09153300  0.27764700  1
  O  O9  1  0.60925500  0.72760500  0.07195600  1
  O  O10  1  0.57735500  0.88813900  0.70969300  1
  O  O11  1  0.74320200  0.51262200  0.42467500  1
  O  O12  1  0.77314800  0.33387200  0.73893100  1
  O  O13  1  0.91898000  0.24057700  0.11374600  1
  O  O14  1  0.07574700  0.78095700  0.88551300  1
  O  O15  1  0.45572700  0.29818300  0.97541500  1
  O  O16  1  0.25836900  0.49102400  0.54907100  1
