# generated using pymatgen
data_La6MgWO12
_symmetry_space_group_name_H-M   'P 1'
_cell_length_a   6.90821657
_cell_length_b   6.90821688
_cell_length_c   6.90821684
_cell_angle_alpha   94.79676263
_cell_angle_beta   94.79675767
_cell_angle_gamma   94.79674778
_symmetry_Int_Tables_number   1
_chemical_formula_structural   La6MgWO12
_chemical_formula_sum   'La6 Mg1 W1 O12'
_cell_volume   326.01278932
_cell_formula_units_Z   1
loop_
 _symmetry_equiv_pos_site_id
 _symmetry_equiv_pos_as_xyz
  1  'x, y, z'
loop_
 _atom_site_type_symbol
 _atom_site_label
 _atom_site_symmetry_multiplicity
 _atom_site_fract_x
 _atom_site_fract_y
 _atom_site_fract_z
 _atom_site_occupancy
  La  La0  1  0.42732300  0.91175700  0.73129500  1
  La  La1  1  0.26870500  0.57267700  0.08824300  1
  La  La2  1  0.08824300  0.26870500  0.57267700  1
  La  La3  1  0.91175700  0.73129500  0.42732300  1
  La  La4  1  0.73129500  0.42732300  0.91175700  1
  La  La5  1  0.57267700  0.08824300  0.26870500  1
  Mg  Mg6  1  0.50000000  0.50000000  0.50000000  1
  W  W7  1  0.00000000  0.00000000  0.00000000  1
  O  O8  1  0.06514700  0.93668600  0.70663900  1
  O  O9  1  0.29336100  0.93485200  0.06331400  1
  O  O10  1  0.19922100  0.54913600  0.41766300  1
  O  O11  1  0.58233700  0.80077900  0.45086400  1
  O  O12  1  0.06331400  0.29336100  0.93485200  1
  O  O13  1  0.45086400  0.58233700  0.80077900  1
  O  O14  1  0.54913600  0.41766300  0.19922100  1
  O  O15  1  0.93668600  0.70663900  0.06514700  1
  O  O16  1  0.41766300  0.19922100  0.54913600  1
  O  O17  1  0.80077900  0.45086400  0.58233700  1
  O  O18  1  0.70663900  0.06514700  0.93668600  1
  O  O19  1  0.93485200  0.06331400  0.29336100  1
