# generated using pymatgen
data_Na6CaSi4Sn3(SO12)2
_symmetry_space_group_name_H-M   'P 1'
_cell_length_a   9.16356760
_cell_length_b   9.16358700
_cell_length_c   22.87351401
_cell_angle_alpha   90.77149180
_cell_angle_beta   89.70877086
_cell_angle_gamma   120.12086993
_symmetry_Int_Tables_number   1
_chemical_formula_structural   Na6CaSi4Sn3(SO12)2
_chemical_formula_sum   'Na18 Ca3 Si12 Sn9 S6 O72'
_cell_volume   1661.20483228
_cell_formula_units_Z   3
loop_
 _symmetry_equiv_pos_site_id
 _symmetry_equiv_pos_as_xyz
  1  'x, y, z'
loop_
 _atom_site_type_symbol
 _atom_site_label
 _atom_site_symmetry_multiplicity
 _atom_site_fract_x
 _atom_site_fract_y
 _atom_site_fract_z
 _atom_site_occupancy
  Na  Na0  1  0.98932971  0.35025146  0.75614044  1
  Na  Na1  1  0.39376139  0.02017962  0.75184817  1
  Na  Na2  1  0.32192290  0.33733570  0.58567662  1
  Na  Na3  1  0.02793010  0.70296382  0.57500817  1
  Na  Na4  1  0.65383262  0.96292009  0.58869720  1
  Na  Na5  1  0.31553261  0.97527290  0.08285647  1
  Na  Na6  1  0.65812025  0.68075455  0.08513337  1
  Na  Na7  1  0.02346339  0.33883617  0.08295965  1
  Na  Na8  1  0.33152305  0.29472675  0.92273227  1
  Na  Na9  1  0.96727729  0.29161702  0.41345061  1
  Na  Na10  1  0.32231191  0.03275260  0.41586869  1
  Na  Na11  1  0.71150693  0.67977278  0.41628163  1
  Na  Na12  1  0.00044798  0.99417589  0.49190996  1
  Na  Na13  1  0.99948266  0.99793543  0.99963912  1
  Na  Na14  1  0.66308102  0.31797265  0.83465186  1
  Na  Na15  1  0.66663978  0.33351970  0.33031065  1
  Na  Na16  1  0.33327932  0.66775527  0.16329799  1
  Na  Na17  1  0.36775087  0.67403342  0.67014167  1
  Ca  Ca18  1  0.00173577  0.99894215  0.35259480  1
  Ca  Ca19  1  0.65240934  0.33128692  0.68607369  1
  Ca  Ca20  1  0.66337538  0.33082511  0.17992758  1
  Si  Si21  1  0.28999828  0.29650483  0.75246852  1
  Si  Si22  1  0.70671066  0.99135999  0.75251906  1
  Si  Si23  1  0.36492927  0.02971334  0.58384876  1
  Si  Si24  1  0.66651741  0.63501047  0.58206459  1
  Si  Si25  1  0.95907072  0.62471798  0.08284855  1
  Si  Si26  1  0.66320684  0.02894803  0.08355116  1
  Si  Si27  1  0.37321588  0.33975520  0.08049241  1
  Si  Si28  1  0.03540072  0.37783335  0.91535629  1
  Si  Si29  1  0.33276177  0.96238537  0.91533294  1
  Si  Si30  1  0.62425002  0.96613221  0.41823316  1
  Si  Si31  1  0.33733664  0.38198959  0.41807888  1
  Si  Si32  1  0.03744215  0.65566644  0.41938363  1
  Sn  Sn33  1  0.00526346  0.01308418  0.85563092  1
  Sn  Sn34  1  0.99607280  0.99805510  0.65094531  1
  Sn  Sn35  1  0.00338520  0.00147220  0.14641292  1
  Sn  Sn36  1  0.67202642  0.31808214  0.98439306  1
  Sn  Sn37  1  0.65445083  0.33752422  0.48020844  1
  Sn  Sn38  1  0.32347846  0.66866876  0.01571212  1
  Sn  Sn39  1  0.34300429  0.67610818  0.51437959  1
  Sn  Sn40  1  0.33332180  0.66853394  0.31928340  1
  Sn  Sn41  1  0.33827745  0.66849430  0.81650734  1
  S  S42  1  0.29641844  0.98859880  0.25092664  1
  S  S43  1  0.69204438  0.70441957  0.25096926  1
  S  S44  1  0.01152783  0.30667845  0.25145092  1
  S  S45  1  0.00569143  0.71261292  0.75186126  1
  S  S46  1  0.96498510  0.33406244  0.58264904  1
  S  S47  1  0.63072562  0.66708312  0.91638711  1
  O  O48  1  0.21334475  0.00121663  0.30400166  1
  O  O49  1  0.78671218  0.78884968  0.30414378  1
  O  O50  1  0.00048104  0.21177029  0.30386965  1
  O  O51  1  0.19863949  0.17277293  0.80792585  1
  O  O52  1  0.98361692  0.79733773  0.80288819  1
  O  O53  1  0.82791565  0.00843400  0.80672880  1
  O  O54  1  0.78219028  0.96147580  0.68909407  1
  O  O55  1  0.16990073  0.21389373  0.69149064  1
  O  O56  1  0.03069423  0.81116300  0.69606110  1
  O  O57  1  0.77889354  0.80753168  0.19691119  1
  O  O58  1  0.02915559  0.21981437  0.19642167  1
  O  O59  1  0.19176465  0.96988739  0.19648857  1
  O  O60  1  0.89208923  0.36071458  0.63600058  1
  O  O61  1  0.48176943  0.09234728  0.64066404  1
  O  O62  1  0.62333279  0.51397207  0.63593878  1
  O  O63  1  0.89738324  0.50847840  0.13860526  1
  O  O64  1  0.60095699  0.08922116  0.13864773  1
  O  O65  1  0.49124784  0.39269787  0.13628616  1
  O  O66  1  0.44984414  0.29281114  0.02121945  1
  O  O67  1  0.82900667  0.54441441  0.02606292  1
  O  O68  1  0.72209235  0.15717057  0.02701349  1
  O  O69  1  0.44739444  0.15419523  0.52551288  1
  O  O70  1  0.71396593  0.55922170  0.52231832  1
  O  O71  1  0.85781183  0.30734331  0.53013069  1
  O  O72  1  0.55650440  0.69669599  0.96977016  1
  O  O73  1  0.16382017  0.46018614  0.97110913  1
  O  O74  1  0.30974702  0.85426712  0.97390488  1
  O  O75  1  0.55106469  0.85395836  0.47755924  1
  O  O76  1  0.30199260  0.45988279  0.47819673  1
  O  O77  1  0.14992847  0.68713605  0.47867583  1
  O  O78  1  0.12078645  0.61417453  0.36193474  1
  O  O79  1  0.49391725  0.88236477  0.36215965  1
  O  O80  1  0.38103967  0.50880523  0.36226618  1
  O  O81  1  0.12485398  0.48729856  0.85564207  1
  O  O82  1  0.36277773  0.87792237  0.85569820  1
  O  O83  1  0.52069242  0.63827845  0.86392745  1
  O  O84  1  0.01726519  0.82029797  0.41622880  1
  O  O85  1  0.80944579  0.98906711  0.41380877  1
  O  O86  1  0.17581629  0.19524626  0.41560895  1
  O  O87  1  0.02535423  0.19091669  0.91392264  1
  O  O88  1  0.15943966  0.97911599  0.91103020  1
  O  O89  1  0.80119272  0.81753523  0.91004982  1
  O  O90  1  0.98056284  0.17836798  0.58511976  1
  O  O91  1  0.17665633  0.01833088  0.59030980  1
  O  O92  1  0.83858718  0.82745406  0.58709872  1
  O  O93  1  0.97999439  0.81733142  0.09039946  1
  O  O94  1  0.83599989  0.01302338  0.09232958  1
  O  O95  1  0.18240209  0.16462430  0.08909177  1
  O  O96  1  0.70077420  0.16506728  0.75227795  1
  O  O97  1  0.47026177  0.30954270  0.75248427  1
  O  O98  1  0.86437849  0.54106891  0.74702639  1
  O  O99  1  0.67221268  0.53627015  0.24719722  1
  O  O100  1  0.86256370  0.32506502  0.24776837  1
  O  O101  1  0.46386498  0.13761993  0.24765114  1
  O  O102  1  0.63926174  0.51074997  0.92020837  1
  O  O103  1  0.85089921  0.36351926  0.92088873  1
  O  O104  1  0.49517013  0.15799492  0.92048719  1
  O  O105  1  0.63562916  0.15120474  0.42450252  1
  O  O106  1  0.51221308  0.37146528  0.41998641  1
  O  O107  1  0.85335610  0.47964820  0.42402896  1
  O  O108  1  0.34148617  0.49952482  0.07000516  1
  O  O109  1  0.15389788  0.66140674  0.07397491  1
  O  O110  1  0.50723435  0.83621876  0.06993094  1
  O  O111  1  0.32839326  0.83416424  0.57527413  1
  O  O112  1  0.49681214  0.65559925  0.57560320  1
  O  O113  1  0.13718497  0.48398061  0.57704377  1
  O  O114  1  0.30411848  0.82691542  0.25140675  1
  O  O115  1  0.52133715  0.69521869  0.25193589  1
  O  O116  1  0.17306035  0.47692836  0.25213272  1
  O  O117  1  0.28877052  0.47792945  0.75654235  1
  O  O118  1  0.16734436  0.70723620  0.75479359  1
  O  O119  1  0.51213562  0.82598537  0.75615121  1
