# generated using pymatgen
data_Na2La2Ta6Si7S5O48
_symmetry_space_group_name_H-M   'P 1'
_cell_length_a   17.94549254
_cell_length_b   9.02924624
_cell_length_c   23.46595813
_cell_angle_alpha   90.02072674
_cell_angle_beta   89.99918305
_cell_angle_gamma   120.22774880
_symmetry_Int_Tables_number   1
_chemical_formula_structural   Na2La2Ta6Si7S5O48
_chemical_formula_sum   'Na6 La6 Ta18 Si21 S15 O144'
_cell_volume   3285.29597277
_cell_formula_units_Z   3
loop_
 _symmetry_equiv_pos_site_id
 _symmetry_equiv_pos_as_xyz
  1  'x, y, z'
loop_
 _atom_site_type_symbol
 _atom_site_label
 _atom_site_symmetry_multiplicity
 _atom_site_fract_x
 _atom_site_fract_y
 _atom_site_fract_z
 _atom_site_occupancy
  Na  Na0  1  0.99429697  0.00068943  0.49691929  1
  Na  Na1  1  0.49542894  0.00262320  0.99304599  1
  Na  Na2  1  0.33690657  0.32175558  0.83236373  1
  Na  Na3  1  0.82387105  0.33879044  0.82997113  1
  Na  Na4  1  0.32453670  0.31024109  0.33526762  1
  Na  Na5  1  0.83527101  0.35209922  0.34008798  1
  La  La6  1  0.99882236  0.97656669  0.35427206  1
  La  La7  1  0.49973532  0.02194217  0.85213821  1
  La  La8  1  0.99134161  0.01692732  0.64962671  1
  La  La9  1  0.49340213  0.97973097  0.15458297  1
  La  La10  1  0.83960726  0.33597580  0.97796458  1
  La  La11  1  0.33811227  0.34140264  0.47807097  1
  Ta  Ta12  1  0.50149900  0.99649596  0.35740125  1
  Ta  Ta13  1  0.00194326  0.00393289  0.85458229  1
  Ta  Ta14  1  0.50287910  0.00661188  0.64662806  1
  Ta  Ta15  1  0.00185347  0.99921469  0.14721599  1
  Ta  Ta16  1  0.32220266  0.33337453  0.68708139  1
  Ta  Ta17  1  0.83287966  0.30710527  0.68534137  1
  Ta  Ta18  1  0.33129709  0.34912904  0.18796614  1
  Ta  Ta19  1  0.82283099  0.31019789  0.18860467  1
  Ta  Ta20  1  0.32302453  0.32624207  0.97276739  1
  Ta  Ta21  1  0.82715095  0.31831592  0.47470636  1
  Ta  Ta22  1  0.16711618  0.66753549  0.02162688  1
  Ta  Ta23  1  0.67996837  0.67515430  0.01941426  1
  Ta  Ta24  1  0.17232614  0.67350789  0.52395962  1
  Ta  Ta25  1  0.66909399  0.66594867  0.52250890  1
  Ta  Ta26  1  0.16298575  0.68052123  0.31222383  1
  Ta  Ta27  1  0.68305699  0.67961853  0.31156205  1
  Ta  Ta28  1  0.18243646  0.68604968  0.81040556  1
  Ta  Ta29  1  0.66166347  0.64416856  0.81043237  1
  Si  Si30  1  0.14931540  0.00461889  0.24850194  1
  Si  Si31  1  0.64536569  0.99259535  0.25411774  1
  Si  Si32  1  0.34783750  0.70123081  0.25620900  1
  Si  Si33  1  0.85453824  0.69899266  0.24564811  1
  Si  Si34  1  0.14673069  0.29833685  0.75364345  1
  Si  Si35  1  0.65300077  0.29464253  0.74759641  1
  Si  Si36  1  0.35515922  0.01122217  0.74566828  1
  Si  Si37  1  0.84759678  0.99467073  0.75615833  1
  Si  Si38  1  0.97749980  0.34560549  0.57767325  1
  Si  Si39  1  0.68787796  0.04024695  0.58170844  1
  Si  Si40  1  0.33596027  0.63296006  0.58407467  1
  Si  Si41  1  0.83407263  0.03708549  0.08455567  1
  Si  Si42  1  0.18894678  0.33597436  0.08296950  1
  Si  Si43  1  0.31003361  0.66879232  0.91986299  1
  Si  Si44  1  0.81247437  0.67092983  0.91120071  1
  Si  Si45  1  0.52361700  0.39152611  0.92195558  1
  Si  Si46  1  0.16144785  0.94018971  0.91686777  1
  Si  Si47  1  0.31039831  0.95035235  0.41466950  1
  Si  Si48  1  0.81007569  0.95329288  0.42029951  1
  Si  Si49  1  0.66390550  0.38317818  0.41727299  1
  Si  Si50  1  0.02306208  0.65585238  0.42128482  1
  S  S51  1  0.99884693  0.29874061  0.24562045  1
  S  S52  1  0.50023077  0.30270551  0.25489242  1
  S  S53  1  0.00079997  0.70115905  0.75578436  1
  S  S54  1  0.49828732  0.69698679  0.74581954  1
  S  S55  1  0.48337941  0.33461348  0.58706761  1
  S  S56  1  0.18772982  0.03124650  0.58429696  1
  S  S57  1  0.82798311  0.60631147  0.57803926  1
  S  S58  1  0.47612115  0.60391804  0.07817836  1
  S  S59  1  0.98361416  0.63317214  0.08710891  1
  S  S60  1  0.32866756  0.04793389  0.07795873  1
  S  S61  1  0.68691504  0.34346350  0.08359796  1
  S  S62  1  0.03303475  0.38417276  0.91252185  1
  S  S63  1  0.66493883  0.93661785  0.91691528  1
  S  S64  1  0.16523359  0.39478573  0.41687876  1
  S  S65  1  0.53244514  0.68003753  0.41258076  1
  O  O66  1  0.12820832  0.07081019  0.30542997  1
  O  O67  1  0.59676980  0.03244067  0.30600321  1
  O  O68  1  0.42086052  0.80918187  0.30545024  1
  O  O69  1  0.90354378  0.74077036  0.30491964  1
  O  O70  1  0.48168301  0.17958412  0.30245944  1
  O  O71  1  0.97358430  0.19717886  0.29781161  1
  O  O72  1  0.09857320  0.16424834  0.80692821  1
  O  O73  1  0.62834576  0.18749685  0.80566623  1
  O  O74  1  0.47365064  0.74870826  0.79856352  1
  O  O75  1  0.98613820  0.79510125  0.80413733  1
  O  O76  1  0.40225906  0.06406830  0.80612798  1
  O  O77  1  0.92032122  0.03128748  0.80638903  1
  O  O78  1  0.40888464  0.98148904  0.69562296  1
  O  O79  1  0.87164233  0.94021933  0.69782373  1
  O  O80  1  0.09996038  0.23717283  0.69414413  1
  O  O81  1  0.58541318  0.18611714  0.69652021  1
  O  O82  1  0.02090889  0.79917875  0.70293727  1
  O  O83  1  0.51260643  0.81357124  0.69774321  1
  O  O84  1  0.37331606  0.79973695  0.19651330  1
  O  O85  1  0.90816414  0.83540247  0.19484700  1
  O  O86  1  0.01164629  0.20859381  0.19696841  1
  O  O87  1  0.52067706  0.24529576  0.20176459  1
  O  O88  1  0.08438903  0.98244412  0.19619688  1
  O  O89  1  0.59940284  0.96204583  0.19367812  1
  O  O90  1  0.43763708  0.36004167  0.63477892  1
  O  O91  1  0.93136137  0.36422457  0.63781478  1
  O  O92  1  0.24195329  0.13014977  0.63535213  1
  O  O93  1  0.75317596  0.13021047  0.63819377  1
  O  O94  1  0.31885636  0.49535245  0.63773971  1
  O  O95  1  0.81752483  0.50885238  0.63060971  1
  O  O96  1  0.43622478  0.50786385  0.13317603  1
  O  O97  1  0.93838621  0.51558968  0.13457276  1
  O  O98  1  0.32105995  0.12927012  0.13073535  1
  O  O99  1  0.81721733  0.14111305  0.13753320  1
  O  O100  1  0.25661850  0.37457981  0.13792849  1
  O  O101  1  0.74032149  0.35630737  0.13466447  1
  O  O102  1  0.23813507  0.30874393  0.02855105  1
  O  O103  1  0.72451111  0.31916572  0.03173292  1
  O  O104  1  0.41856899  0.50546675  0.03005357  1
  O  O105  1  0.93485005  0.57933816  0.03402758  1
  O  O106  1  0.33517176  0.15040991  0.02692946  1
  O  O107  1  0.85600325  0.14722103  0.02767877  1
  O  O108  1  0.22505083  0.13192310  0.53272534  1
  O  O109  1  0.73293761  0.16264224  0.52675320  1
  O  O110  1  0.35965652  0.56503924  0.52828063  1
  O  O111  1  0.83206401  0.51923137  0.52624512  1
  O  O112  1  0.43476400  0.29127677  0.53398550  1
  O  O113  1  0.91083538  0.32777336  0.52647164  1
  O  O114  1  0.25224705  0.67759876  0.97399830  1
  O  O115  1  0.76819872  0.69083193  0.97249199  1
  O  O116  1  0.07533357  0.46081458  0.96892761  1
  O  O117  1  0.58658167  0.50476364  0.97562009  1
  O  O118  1  0.14788792  0.82229163  0.97398178  1
  O  O119  1  0.66942138  0.85092612  0.97176520  1
  O  O120  1  0.26620163  0.84315828  0.47344747  1
  O  O121  1  0.75190167  0.82677145  0.47377898  1
  O  O122  1  0.16951134  0.48640743  0.47124290  1
  O  O123  1  0.64735893  0.47296826  0.47369013  1
  O  O124  1  0.08833627  0.67245345  0.47288838  1
  O  O125  1  0.57460796  0.68978803  0.46812266  1
  O  O126  1  0.06532081  0.63664987  0.36000570  1
  O  O127  1  0.57951402  0.66618629  0.36388865  1
  O  O128  1  0.24593872  0.84476243  0.36011740  1
  O  O129  1  0.75863043  0.85811916  0.36104376  1
  O  O130  1  0.16316550  0.48653573  0.36537000  1
  O  O131  1  0.67900841  0.50471884  0.36149776  1
  O  O132  1  0.07995483  0.49483181  0.86474747  1
  O  O133  1  0.56426241  0.49470349  0.86143700  1
  O  O134  1  0.18098524  0.85574915  0.86198643  1
  O  O135  1  0.66226648  0.84084976  0.86605180  1
  O  O136  1  0.25821166  0.65683905  0.86123109  1
  O  O137  1  0.74403742  0.64610381  0.86058591  1
  O  O138  1  0.01760749  0.82758936  0.42468073  1
  O  O139  1  0.52751077  0.84186164  0.40791661  1
  O  O140  1  0.40371417  0.95933987  0.40179072  1
  O  O141  1  0.90364786  0.97920001  0.42327878  1
  O  O142  1  0.08787833  0.22636690  0.41996585  1
  O  O143  1  0.57982554  0.19449415  0.40214447  1
  O  O144  1  0.02844995  0.21434737  0.90809355  1
  O  O145  1  0.51730809  0.20861943  0.92511566  1
  O  O146  1  0.07993838  0.96621395  0.90320941  1
  O  O147  1  0.58663462  0.94836025  0.92204707  1
  O  O148  1  0.40446584  0.82789770  0.92355743  1
  O  O149  1  0.90422187  0.84857358  0.90201579  1
  O  O150  1  0.49912884  0.18914074  0.59889808  1
  O  O151  1  0.98413458  0.17461083  0.57604108  1
  O  O152  1  0.09976699  0.99425600  0.59141092  1
  O  O153  1  0.59531741  0.02032448  0.59895766  1
  O  O154  1  0.41655207  0.81805200  0.60395512  1
  O  O155  1  0.90320332  0.77879679  0.57933228  1
  O  O156  1  0.48209197  0.77256864  0.07891308  1
  O  O157  1  0.99962814  0.81005510  0.09890046  1
  O  O158  1  0.40333395  0.02446167  0.07886868  1
  O  O159  1  0.91446060  0.01142640  0.10350483  1
  O  O160  1  0.09656126  0.17033468  0.09886216  1
  O  O161  1  0.59840982  0.20269605  0.08980087  1
  O  O162  1  0.33838357  0.16619195  0.72601270  1
  O  O163  1  0.84460868  0.17680473  0.74541355  1
  O  O164  1  0.24653553  0.32262862  0.74615448  1
  O  O165  1  0.75062937  0.34204377  0.72762496  1
  O  O166  1  0.42438777  0.51767971  0.73189146  1
  O  O167  1  0.92162561  0.53000660  0.75052990  1
  O  O168  1  0.34510143  0.51142334  0.24374473  1
  O  O169  1  0.83729427  0.51051982  0.22456899  1
  O  O170  1  0.42095801  0.31757913  0.24544370  1
  O  O171  1  0.92407397  0.32897045  0.23114757  1
  O  O172  1  0.24779841  0.15810007  0.22685222  1
  O  O173  1  0.74528656  0.16877989  0.24572612  1
  O  O174  1  0.30876097  0.48389246  0.92655317  1
  O  O175  1  0.82266479  0.50497999  0.91120666  1
  O  O176  1  0.42607502  0.37038971  0.93022328  1
  O  O177  1  0.94558878  0.35860167  0.91133598  1
  O  O178  1  0.24820256  0.13250615  0.92727475  1
  O  O179  1  0.74385393  0.10610217  0.91465947  1
  O  O180  1  0.32412857  0.14030318  0.41117637  1
  O  O181  1  0.80748696  0.13273806  0.42416127  1
  O  O182  1  0.24495542  0.38386849  0.41326089  1
  O  O183  1  0.74925987  0.36579959  0.42637654  1
  O  O184  1  0.44484470  0.53174942  0.41022655  1
  O  O185  1  0.92543975  0.48290517  0.42595942  1
  O  O186  1  0.17566276  0.50057439  0.06977693  1
  O  O187  1  0.68704407  0.50984726  0.07887846  1
  O  O188  1  0.06932253  0.64565435  0.07868752  1
  O  O189  1  0.56204540  0.62185620  0.07319731  1
  O  O190  1  0.24736896  0.87338883  0.07216364  1
  O  O191  1  0.74508386  0.85018114  0.07525008  1
  O  O192  1  0.19084282  0.86955730  0.58117154  1
  O  O193  1  0.67400090  0.84790314  0.56941466  1
  O  O194  1  0.24891333  0.64410782  0.57502061  1
  O  O195  1  0.74729906  0.62422906  0.57254822  1
  O  O196  1  0.07303548  0.51597388  0.56956110  1
  O  O197  1  0.56894222  0.49304334  0.57927720  1
  O  O198  1  0.15521727  0.82980933  0.25774457  1
  O  O199  1  0.65899575  0.83373141  0.27015297  1
  O  O200  1  0.25065629  0.65052359  0.27377465  1
  O  O201  1  0.75872132  0.68052951  0.25522222  1
  O  O202  1  0.07559166  0.46844046  0.25206451  1
  O  O203  1  0.57185144  0.47586935  0.26959837  1
  O  O204  1  0.16011281  0.48445379  0.77074078  1
  O  O205  1  0.65517815  0.47983303  0.75797335  1
  O  O206  1  0.07368697  0.67426596  0.77143212  1
  O  O207  1  0.57525056  0.68034024  0.75347664  1
  O  O208  1  0.25911487  0.83713266  0.75527073  1
  O  O209  1  0.75025433  0.84915073  0.77510954  1
