# generated using pymatgen
data_TlPO3
_symmetry_space_group_name_H-M   'P 1'
_cell_length_a   7.58522238
_cell_length_b   7.58522238
_cell_length_c   11.10122861
_cell_angle_alpha   90.00000000
_cell_angle_beta   90.00000000
_cell_angle_gamma   90.00000000
_symmetry_Int_Tables_number   1
_chemical_formula_structural   TlPO3
_chemical_formula_sum   'Tl8 P8 O24'
_cell_volume   638.71583276
_cell_formula_units_Z   8
loop_
 _symmetry_equiv_pos_site_id
 _symmetry_equiv_pos_as_xyz
  1  'x, y, z'
loop_
 _atom_site_type_symbol
 _atom_site_label
 _atom_site_symmetry_multiplicity
 _atom_site_fract_x
 _atom_site_fract_y
 _atom_site_fract_z
 _atom_site_occupancy
  Tl  Tl0  1  0.50000000  0.50000000  0.33313979  1
  Tl  Tl1  1  0.50000000  0.50000000  0.66686021  1
  Tl  Tl2  1  0.00000000  -0.00000000  0.16686021  1
  Tl  Tl3  1  0.00000000  -0.00000000  0.83313979  1
  Tl  Tl4  1  0.00000000  0.50000000  0.27306490  1
  Tl  Tl5  1  0.50000000  -0.00000000  0.72693510  1
  Tl  Tl6  1  0.50000000  -0.00000000  0.22693510  1
  Tl  Tl7  1  0.00000000  0.50000000  0.77306490  1
  P  P8  1  0.77963819  0.84577833  0.46728281  1
  P  P9  1  0.22036181  0.15422167  0.46728281  1
  P  P10  1  0.65422167  0.72036181  0.96728281  1
  P  P11  1  0.15422167  0.77963819  0.53271719  1
  P  P12  1  0.84577833  0.22036181  0.53271719  1
  P  P13  1  0.72036181  0.34577833  0.03271719  1
  P  P14  1  0.27963819  0.65422167  0.03271719  1
  P  P15  1  0.34577833  0.27963819  0.96728281  1
  O  O16  1  0.61768159  0.80577110  0.53713802  1
  O  O17  1  0.38231841  0.19422890  0.53713802  1
  O  O18  1  0.69422890  0.88231841  0.03713802  1
  O  O19  1  0.19422890  0.61768159  0.46286198  1
  O  O20  1  0.80577110  0.38231841  0.46286198  1
  O  O21  1  0.88231841  0.30577110  0.96286198  1
  O  O22  1  0.11768159  0.69422890  0.96286198  1
  O  O23  1  0.30577110  0.11768159  0.03713802  1
  O  O24  1  0.80094961  0.76977071  0.34437406  1
  O  O25  1  0.19905039  0.23022929  0.34437406  1
  O  O26  1  0.73022929  0.69905039  0.84437406  1
  O  O27  1  0.23022929  0.80094961  0.65562594  1
  O  O28  1  0.76977071  0.19905039  0.65562594  1
  O  O29  1  0.69905039  0.26977071  0.15562594  1
  O  O30  1  0.30094961  0.73022929  0.15562594  1
  O  O31  1  0.26977071  0.30094961  0.84437406  1
  O  O32  1  0.30114929  0.44439325  0.05240587  1
  O  O33  1  0.44439325  0.69885071  0.94759413  1
  O  O34  1  0.55560675  0.30114929  0.94759413  1
  O  O35  1  0.80114929  0.05560675  0.44759413  1
  O  O36  1  0.19885071  0.94439325  0.44759413  1
  O  O37  1  0.69885071  0.55560675  0.05240587  1
  O  O38  1  0.05560675  0.19885071  0.55240587  1
  O  O39  1  0.94439325  0.80114929  0.55240587  1
