# generated using pymatgen
data_MgV2Cr4O12
_symmetry_space_group_name_H-M   'P 1'
_cell_length_a   4.73427300
_cell_length_b   4.73427200
_cell_length_c   8.86338500
_cell_angle_alpha   89.99989424
_cell_angle_beta   90.00010576
_cell_angle_gamma   89.99956432
_symmetry_Int_Tables_number   1
_chemical_formula_structural   MgV2Cr4O12
_chemical_formula_sum   'Mg1 V2 Cr4 O12'
_cell_volume   198.65802702
_cell_formula_units_Z   1
loop_
 _symmetry_equiv_pos_site_id
 _symmetry_equiv_pos_as_xyz
  1  'x, y, z'
loop_
 _atom_site_type_symbol
 _atom_site_label
 _atom_site_symmetry_multiplicity
 _atom_site_fract_x
 _atom_site_fract_y
 _atom_site_fract_z
 _atom_site_occupancy
  Mg  Mg0  1  0.99999800  0.50000400  0.24999500  1
  V  V1  1  0.00000300  0.99999400  0.98655300  1
  V  V2  1  0.49999500  0.50000000  0.51345100  1
  Cr  Cr3  1  0.00000000  0.00000200  0.34124000  1
  Cr  Cr4  1  0.99999800  0.00001000  0.66394300  1
  Cr  Cr5  1  0.50000200  0.49999700  0.15876400  1
  Cr  Cr6  1  0.50000200  0.50000700  0.83604800  1
  O  O7  1  0.19424300  0.81134000  0.16131600  1
  O  O8  1  0.19956200  0.78633600  0.49981000  1
  O  O9  1  0.19546900  0.80991800  0.84210800  1
  O  O10  1  0.28633400  0.30043800  0.00019100  1
  O  O11  1  0.31133100  0.30576400  0.33868700  1
  O  O12  1  0.30991600  0.30453400  0.65789000  1
  O  O13  1  0.71367000  0.69955300  0.00019200  1
  O  O14  1  0.68866600  0.69423800  0.33868600  1
  O  O15  1  0.69008300  0.69546300  0.65789000  1
  O  O16  1  0.80575600  0.18866100  0.16131700  1
  O  O17  1  0.80043700  0.21366200  0.49980900  1
  O  O18  1  0.80453600  0.19007800  0.84210800  1
