# generated using pymatgen
data_NaMgGe3P3(SO8)3
_symmetry_space_group_name_H-M   'P 1'
_cell_length_a   8.40794354
_cell_length_b   8.39396664
_cell_length_c   21.88621666
_cell_angle_alpha   90.39207555
_cell_angle_beta   90.12035316
_cell_angle_gamma   120.19055644
_symmetry_Int_Tables_number   1
_chemical_formula_structural   NaMgGe3P3(SO8)3
_chemical_formula_sum   'Na3 Mg3 Ge9 P9 S9 O72'
_cell_volume   1335.06413504
_cell_formula_units_Z   3
loop_
 _symmetry_equiv_pos_site_id
 _symmetry_equiv_pos_as_xyz
  1  'x, y, z'
loop_
 _atom_site_type_symbol
 _atom_site_label
 _atom_site_symmetry_multiplicity
 _atom_site_fract_x
 _atom_site_fract_y
 _atom_site_fract_z
 _atom_site_occupancy
  Na  Na0  1  0.65923482  0.33286488  0.83220066  1
  Na  Na1  1  0.67189112  0.33064771  0.33315695  1
  Na  Na2  1  0.33085263  0.67170858  0.16556627  1
  Mg  Mg3  1  0.65944262  0.33795243  0.68734631  1
  Mg  Mg4  1  0.67114765  0.33102828  0.18456295  1
  Mg  Mg5  1  0.33128743  0.67190497  0.31472549  1
  Ge  Ge6  1  0.99341109  0.99128711  0.35947491  1
  Ge  Ge7  1  0.00696618  0.00513991  0.85978285  1
  Ge  Ge8  1  0.99832804  0.00064221  0.64593633  1
  Ge  Ge9  1  0.99282275  0.99425055  0.13924210  1
  Ge  Ge10  1  0.67680840  0.33567499  0.97982279  1
  Ge  Ge11  1  0.67910709  0.34440270  0.48338915  1
  Ge  Ge12  1  0.33432949  0.67473228  0.01662234  1
  Ge  Ge13  1  0.34459719  0.67855971  0.51699759  1
  Ge  Ge14  1  0.33293037  0.65742517  0.81510716  1
  P  P15  1  0.27982578  0.28496381  0.75210840  1
  P  P16  1  0.66413640  0.62808482  0.58383733  1
  P  P17  1  0.96082479  0.62276082  0.08298309  1
  P  P18  1  0.66364041  0.04101583  0.08259717  1
  P  P19  1  0.62283036  0.66598145  0.91681376  1
  P  P20  1  0.04711777  0.38156139  0.91670115  1
  P  P21  1  0.33667916  0.95523111  0.91532857  1
  P  P22  1  0.62681137  0.96564827  0.41685924  1
  P  P23  1  0.04401068  0.66550678  0.41709152  1
  S  S24  1  0.28075559  0.00208384  0.24973828  1
  S  S25  1  0.71299718  0.71312610  0.24962654  1
  S  S26  1  0.00162590  0.28039822  0.25033465  1
  S  S27  1  0.00759236  0.71664159  0.75202736  1
  S  S28  1  0.70931803  0.99414133  0.75189717  1
  S  S29  1  0.96499103  0.33660403  0.58384657  1
  S  S30  1  0.37367198  0.04088270  0.58300094  1
  S  S31  1  0.37484544  0.33457686  0.08275234  1
  S  S32  1  0.33428926  0.37371110  0.41661314  1
  O  O33  1  0.19734477  0.03166900  0.30683018  1
  O  O34  1  0.82885387  0.79585284  0.30668136  1
  O  O35  1  0.97256793  0.16687044  0.30681799  1
  O  O36  1  0.18922578  0.16176386  0.80857120  1
  O  O37  1  0.96686226  0.79678262  0.80678350  1
  O  O38  1  0.82587667  0.02753550  0.80711709  1
  O  O39  1  0.78520046  0.95405413  0.69521516  1
  O  O40  1  0.15732623  0.20129985  0.69288669  1
  O  O41  1  0.04135072  0.83004726  0.69550886  1
  O  O42  1  0.79712782  0.82906757  0.19409160  1
  O  O43  1  0.03002194  0.19538230  0.19360899  1
  O  O44  1  0.16605818  0.97219960  0.19335728  1
  O  O45  1  0.88536417  0.36970735  0.63742553  1
  O  O46  1  0.48796508  0.11645732  0.63682683  1
  O  O47  1  0.62570107  0.51096795  0.63895129  1
  O  O48  1  0.88813293  0.51232408  0.14039584  1
  O  O49  1  0.61835617  0.10910652  0.14003329  1
  O  O50  1  0.48464911  0.37092030  0.13806174  1
  O  O51  1  0.45153909  0.29586466  0.02698222  1
  O  O52  1  0.83617027  0.54294825  0.02503055  1
  O  O53  1  0.70182837  0.16119942  0.02460358  1
  O  O54  1  0.45209880  0.15610252  0.52692434  1
  O  O55  1  0.70720056  0.54662309  0.52511514  1
  O  O56  1  0.84365312  0.29085348  0.52751144  1
  O  O57  1  0.54116478  0.70666316  0.97347861  1
  O  O58  1  0.16949463  0.46287008  0.97373814  1
  O  O59  1  0.29454797  0.83612722  0.97262259  1
  O  O60  1  0.54821872  0.84188759  0.47421682  1
  O  O61  1  0.29563020  0.45142708  0.47256090  1
  O  O62  1  0.16404728  0.70143356  0.47566145  1
  O  O63  1  0.11156496  0.61845051  0.36028758  1
  O  O64  1  0.51326836  0.89264221  0.35974731  1
  O  O65  1  0.37217889  0.48453086  0.36235864  1
  O  O66  1  0.12289453  0.50379085  0.85925980  1
  O  O67  1  0.38007948  0.87440039  0.85791804  1
  O  O68  1  0.49990144  0.61947452  0.85863778  1
  O  O69  1  0.02648158  0.84070924  0.41161762  1
  O  O70  1  0.82207354  0.98998992  0.41088531  1
  O  O71  1  0.16796782  0.18835011  0.41092598  1
  O  O72  1  0.02626221  0.19047065  0.90951838  1
  O  O73  1  0.16318580  0.96983167  0.90804715  1
  O  O74  1  0.81193658  0.83779498  0.90690534  1
  O  O75  1  0.98241104  0.16871773  0.58859152  1
  O  O76  1  0.18838360  0.02191104  0.58887159  1
  O  O77  1  0.83986015  0.82356830  0.59110602  1
  O  O78  1  0.98544276  0.81916592  0.08865733  1
  O  O79  1  0.83937722  0.02445482  0.08861798  1
  O  O80  1  0.18872336  0.16769545  0.08839365  1
  O  O81  1  0.69536257  0.15881736  0.74532902  1
  O  O82  1  0.46678622  0.30254231  0.74823090  1
  O  O83  1  0.84764910  0.53306050  0.74625349  1
  O  O84  1  0.70039039  0.53429094  0.24547832  1
  O  O85  1  0.83479546  0.29260003  0.24726752  1
  O  O86  1  0.45958159  0.17008925  0.24670766  1
  O  O87  1  0.63876588  0.49171178  0.92465640  1
  O  O88  1  0.85544088  0.36267953  0.92272035  1
  O  O89  1  0.50823110  0.14863130  0.92339532  1
  O  O90  1  0.64488768  0.15715360  0.42923112  1
  O  O91  1  0.49703931  0.34997833  0.42561993  1
  O  O92  1  0.84727501  0.49697888  0.42652615  1
  O  O93  1  0.35335779  0.49876168  0.07512754  1
  O  O94  1  0.15345872  0.64366998  0.07317771  1
  O  O95  1  0.49622966  0.84308424  0.07331523  1
  O  O96  1  0.35036129  0.85375276  0.57456394  1
  O  O97  1  0.49320935  0.64738781  0.57099009  1
  O  O98  1  0.14750392  0.50060031  0.57310797  1
  O  O99  1  0.29201276  0.83446501  0.25275732  1
  O  O100  1  0.53481338  0.70106355  0.25444675  1
  O  O101  1  0.16975451  0.45923666  0.25405703  1
  O  O102  1  0.28742969  0.47341448  0.75836056  1
  O  O103  1  0.18048302  0.71199947  0.75836502  1
  O  O104  1  0.52715505  0.82426392  0.75759940  1
