# generated using pymatgen
data_MgV4Cr2O12
_symmetry_space_group_name_H-M   'P 1'
_cell_length_a   6.66145811
_cell_length_b   7.16082391
_cell_length_c   5.68674502
_cell_angle_alpha   74.35229168
_cell_angle_beta   106.84849481
_cell_angle_gamma   97.42808923
_symmetry_Int_Tables_number   1
_chemical_formula_structural   MgV4Cr2O12
_chemical_formula_sum   'Mg1 V4 Cr2 O12'
_cell_volume   249.61548508
_cell_formula_units_Z   1
loop_
 _symmetry_equiv_pos_site_id
 _symmetry_equiv_pos_as_xyz
  1  'x, y, z'
loop_
 _atom_site_type_symbol
 _atom_site_label
 _atom_site_symmetry_multiplicity
 _atom_site_fract_x
 _atom_site_fract_y
 _atom_site_fract_z
 _atom_site_occupancy
  Mg  Mg0  1  0.50000000  0.00000000  0.50000000  1
  V  V1  1  0.15621600  0.60758300  0.67356800  1
  V  V2  1  0.37508100  0.76576300  0.19468000  1
  V  V3  1  0.62491900  0.23423700  0.80532000  1
  V  V4  1  0.84378400  0.39241700  0.32643200  1
  Cr  Cr5  1  0.07859900  0.07669700  0.75143300  1
  Cr  Cr6  1  0.92140100  0.92330300  0.24856700  1
  O  O7  1  0.02556100  0.82877400  0.63321000  1
  O  O8  1  0.03645700  0.36302500  0.70891800  1
  O  O9  1  0.19375900  0.96678800  0.13649500  1
  O  O10  1  0.38500200  0.69924400  0.54595100  1
  O  O11  1  0.37818800  0.09305000  0.73657600  1
  O  O12  1  0.30774700  0.59143700  0.01838700  1
  O  O13  1  0.69225400  0.40856300  0.98161300  1
  O  O14  1  0.62181200  0.90695000  0.26342400  1
  O  O15  1  0.61499800  0.30075700  0.45404900  1
  O  O16  1  0.80624100  0.03321200  0.86350500  1
  O  O17  1  0.96354300  0.63697500  0.29108200  1
  O  O18  1  0.97443900  0.17122600  0.36679000  1
