# generated using pymatgen
data_NaInGaP(SO6)2
_symmetry_space_group_name_H-M   'P 1'
_cell_length_a   8.67240438
_cell_length_b   8.66700533
_cell_length_c   22.74317448
_cell_angle_alpha   90.06152881
_cell_angle_beta   89.78391424
_cell_angle_gamma   119.91993311
_symmetry_Int_Tables_number   1
_chemical_formula_structural   NaInGaP(SO6)2
_chemical_formula_sum   'Na6 In6 Ga6 P6 S12 O72'
_cell_volume   1481.62005653
_cell_formula_units_Z   6
loop_
 _symmetry_equiv_pos_site_id
 _symmetry_equiv_pos_as_xyz
  1  'x, y, z'
loop_
 _atom_site_type_symbol
 _atom_site_label
 _atom_site_symmetry_multiplicity
 _atom_site_fract_x
 _atom_site_fract_y
 _atom_site_fract_z
 _atom_site_occupancy
  Na  Na0  1  0.98873528  0.99256592  0.50010413  1
  Na  Na1  1  0.00486469  0.98988278  0.00004108  1
  Na  Na2  1  0.65970330  0.31715843  0.83145069  1
  Na  Na3  1  0.65776431  0.31884742  0.33586681  1
  Na  Na4  1  0.32267580  0.67237730  0.16594364  1
  Na  Na5  1  0.34570228  0.67116330  0.66425447  1
  In  In6  1  0.99805935  0.00057518  0.85026481  1
  In  In7  1  0.00461305  0.99241619  0.14888281  1
  In  In8  1  0.66391750  0.33127514  0.18500016  1
  In  In9  1  0.66604459  0.33139848  0.98279386  1
  In  In10  1  0.33831300  0.68106624  0.32006800  1
  In  In11  1  0.34287591  0.68071171  0.81174678  1
  Ga  Ga12  1  0.00055518  0.00120992  0.35343983  1
  Ga  Ga13  1  0.98090919  0.98561359  0.64591624  1
  Ga  Ga14  1  0.66511715  0.33065947  0.68116899  1
  Ga  Ga15  1  0.66945549  0.33284063  0.48511724  1
  Ga  Ga16  1  0.32005333  0.67368677  0.01715532  1
  Ga  Ga17  1  0.35956281  0.67493738  0.51799599  1
  P  P18  1  0.29104308  0.00265552  0.25374778  1
  P  P19  1  0.71167444  0.01153481  0.74530410  1
  P  P20  1  0.66660370  0.61750865  0.58300232  1
  P  P21  1  0.96722004  0.62695345  0.08196281  1
  P  P22  1  0.33176543  0.96116494  0.91767115  1
  P  P23  1  0.63858365  0.97236076  0.41958122  1
  S  S24  1  0.70770223  0.70825071  0.25305367  1
  S  S25  1  0.00155758  0.29101096  0.25270488  1
  S  S26  1  0.29529814  0.28927068  0.74499402  1
  S  S27  1  0.99196798  0.70103698  0.74533356  1
  S  S28  1  0.96324809  0.33612385  0.58277170  1
  S  S29  1  0.37151659  0.03963746  0.58328289  1
  S  S30  1  0.66124238  0.02566245  0.08240764  1
  S  S31  1  0.36627097  0.34384851  0.08142650  1
  S  S32  1  0.62064420  0.66653414  0.91895452  1
  S  S33  1  0.04660673  0.37809936  0.91716402  1
  S  S34  1  0.33409268  0.37055417  0.41905640  1
  S  S35  1  0.03601338  0.66477926  0.42071261  1
  O  O36  1  0.19623825  0.02305530  0.30856969  1
  O  O37  1  0.81578568  0.79814699  0.30560809  1
  O  O38  1  0.97697691  0.17990129  0.30528916  1
  O  O39  1  0.22660547  0.18982869  0.80103500  1
  O  O40  1  0.96479393  0.77284753  0.80112154  1
  O  O41  1  0.81487818  0.04235481  0.80344353  1
  O  O42  1  0.80273817  0.98103211  0.69197987  1
  O  O43  1  0.18134271  0.19853685  0.69384554  1
  O  O44  1  0.02519486  0.82023428  0.69434780  1
  O  O45  1  0.77875279  0.80968548  0.19799897  1
  O  O46  1  0.02150912  0.21398698  0.19720924  1
  O  O47  1  0.19268331  0.97775736  0.19565142  1
  O  O48  1  0.88237522  0.36576882  0.63614602  1
  O  O49  1  0.48426609  0.11684433  0.63625400  1
  O  O50  1  0.63507339  0.50305837  0.63843440  1
  O  O51  1  0.88599695  0.51749071  0.13858383  1
  O  O52  1  0.62759344  0.10194501  0.13604792  1
  O  O53  1  0.47064523  0.36979779  0.13580399  1
  O  O54  1  0.44377586  0.30579639  0.02962353  1
  O  O55  1  0.85521603  0.54498031  0.02684345  1
  O  O56  1  0.69208597  0.13473450  0.02950838  1
  O  O57  1  0.45186472  0.15059430  0.53008923  1
  O  O58  1  0.69669725  0.53325123  0.52756360  1
  O  O59  1  0.84884164  0.30001092  0.53019264  1
  O  O60  1  0.52929105  0.68258999  0.97156886  1
  O  O61  1  0.15396086  0.46339728  0.97034747  1
  O  O62  1  0.30932916  0.84890618  0.97301061  1
  O  O63  1  0.55149789  0.84710436  0.47308052  1
  O  O64  1  0.30063794  0.45570997  0.47092059  1
  O  O65  1  0.15390017  0.69323571  0.47163940  1
  O  O66  1  0.10231945  0.62573282  0.36557422  1
  O  O67  1  0.52712817  0.90359358  0.36335045  1
  O  O68  1  0.36552036  0.47579918  0.36456504  1
  O  O69  1  0.12678949  0.47676688  0.86235097  1
  O  O70  1  0.36004575  0.88511004  0.86044174  1
  O  O71  1  0.52156264  0.63974684  0.86365036  1
  O  O72  1  0.02184374  0.82852887  0.41385367  1
  O  O73  1  0.82406622  0.98715197  0.41064009  1
  O  O74  1  0.17258866  0.19204654  0.41334551  1
  O  O75  1  0.02855234  0.19882857  0.91571556  1
  O  O76  1  0.16058348  0.97494359  0.91457809  1
  O  O77  1  0.79688982  0.83207662  0.91622277  1
  O  O78  1  0.98432011  0.17589343  0.58924850  1
  O  O79  1  0.19391747  0.02439818  0.59107618  1
  O  O80  1  0.83503371  0.80626922  0.58895613  1
  O  O81  1  0.98804505  0.81436698  0.08472835  1
  O  O82  1  0.82303743  0.01144766  0.08828600  1
  O  O83  1  0.18463777  0.18825780  0.08635985  1
  O  O84  1  0.69108805  0.17832558  0.73696359  1
  O  O85  1  0.47603713  0.31154095  0.73873776  1
  O  O86  1  0.83043219  0.52498469  0.73826196  1
  O  O87  1  0.69927289  0.53355597  0.24990217  1
  O  O88  1  0.84016861  0.30916415  0.25021269  1
  O  O89  1  0.47692078  0.17348097  0.25064515  1
  O  O90  1  0.64557550  0.51022768  0.92183268  1
  O  O91  1  0.86857567  0.36115723  0.92027851  1
  O  O92  1  0.49884859  0.14751240  0.92188952  1
  O  O93  1  0.65738099  0.15791687  0.43053856  1
  O  O94  1  0.49383217  0.35201540  0.42683762  1
  O  O95  1  0.85550527  0.50778844  0.42813788  1
  O  O96  1  0.35688482  0.50777007  0.07366148  1
  O  O97  1  0.15303287  0.64279537  0.07664660  1
  O  O98  1  0.50331198  0.84647061  0.07559694  1
  O  O99  1  0.35097134  0.85862146  0.57596642  1
  O  O100  1  0.49759252  0.63766783  0.57654816  1
  O  O101  1  0.14008300  0.49857050  0.57478078  1
  O  O102  1  0.30947321  0.83456129  0.25638503  1
  O  O103  1  0.52597655  0.68163237  0.25735197  1
  O  O104  1  0.16358403  0.46766981  0.25768165  1
  O  O105  1  0.30919993  0.46729586  0.74954639  1
  O  O106  1  0.15092175  0.67920721  0.74877670  1
  O  O107  1  0.52592678  0.84115216  0.74777543  1
