# generated using pymatgen
data_Na10NbGa7Si6(SO8)6
_symmetry_space_group_name_H-M   'P 1'
_cell_length_a   17.56095219
_cell_length_b   8.82520155
_cell_length_c   22.07850597
_cell_angle_alpha   89.72679958
_cell_angle_beta   89.14766830
_cell_angle_gamma   119.87520338
_symmetry_Int_Tables_number   1
_chemical_formula_structural   Na10NbGa7Si6(SO8)6
_chemical_formula_sum   'Na30 Nb3 Ga21 Si18 S18 O144'
_cell_volume   2966.38061905
_cell_formula_units_Z   3
loop_
 _symmetry_equiv_pos_site_id
 _symmetry_equiv_pos_as_xyz
  1  'x, y, z'
loop_
 _atom_site_type_symbol
 _atom_site_label
 _atom_site_symmetry_multiplicity
 _atom_site_fract_x
 _atom_site_fract_y
 _atom_site_fract_z
 _atom_site_occupancy
  Na  Na0  1  0.31805247  0.00061273  0.24984254  1
  Na  Na1  1  0.81854069  0.00110029  0.25153363  1
  Na  Na2  1  0.18371869  0.36544914  0.25087236  1
  Na  Na3  1  0.68469785  0.37038978  0.24423324  1
  Na  Na4  1  0.99791176  0.63114246  0.24823483  1
  Na  Na5  1  0.49743701  0.62290224  0.25233399  1
  Na  Na6  1  0.31532226  0.62896696  0.74994165  1
  Na  Na7  1  0.80979954  0.62146084  0.74977434  1
  Na  Na8  1  0.99712035  0.35731287  0.74972609  1
  Na  Na9  1  0.68267134  0.00493955  0.75390379  1
  Na  Na10  1  0.15975442  0.34611612  0.58079915  1
  Na  Na11  1  0.01413134  0.69568808  0.58085367  1
  Na  Na12  1  0.33310592  0.96625454  0.58493448  1
  Na  Na13  1  0.82983946  0.96520859  0.57867712  1
  Na  Na14  1  0.83303283  0.69141320  0.07735490  1
  Na  Na15  1  0.16877728  0.30370844  0.91257080  1
  Na  Na16  1  0.66988528  0.30504642  0.91640548  1
  Na  Na17  1  0.35434684  0.66563594  0.41749703  1
  Na  Na18  1  0.99882374  0.99636018  0.49258358  1
  Na  Na19  1  0.50875996  0.99665415  0.49882048  1
  Na  Na20  1  0.99437172  0.98473148  0.99545727  1
  Na  Na21  1  0.49505990  0.97961356  0.99693128  1
  Na  Na22  1  0.33564802  0.32976876  0.83376043  1
  Na  Na23  1  0.83179055  0.33158916  0.83631944  1
  Na  Na24  1  0.33796045  0.33172253  0.33514703  1
  Na  Na25  1  0.83661852  0.33808613  0.33496561  1
  Na  Na26  1  0.16272320  0.66449259  0.16368690  1
  Na  Na27  1  0.65688116  0.65060970  0.16128257  1
  Na  Na28  1  0.16892236  0.67341632  0.66557984  1
  Na  Na29  1  0.65875643  0.63990201  0.66714820  1
  Nb  Nb30  1  0.99840275  0.00681415  0.64424125  1
  Nb  Nb31  1  0.00085991  0.99379676  0.14891746  1
  Nb  Nb32  1  0.49592561  0.00135192  0.14130092  1
  Ga  Ga33  1  0.99752861  0.00023596  0.34248358  1
  Ga  Ga34  1  0.49659214  0.98416136  0.35123213  1
  Ga  Ga35  1  0.99115764  0.00119008  0.85075481  1
  Ga  Ga36  1  0.49776868  0.99145738  0.85212383  1
  Ga  Ga37  1  0.50216153  0.00218161  0.64879601  1
  Ga  Ga38  1  0.31840535  0.32140575  0.68138268  1
  Ga  Ga39  1  0.82607910  0.33157620  0.68340889  1
  Ga  Ga40  1  0.34299256  0.34447238  0.19042193  1
  Ga  Ga41  1  0.84452624  0.36236755  0.18142195  1
  Ga  Ga42  1  0.34294718  0.36802133  0.98133950  1
  Ga  Ga43  1  0.83486810  0.36462856  0.98428574  1
  Ga  Ga44  1  0.34289963  0.35798020  0.48597241  1
  Ga  Ga45  1  0.83779788  0.34220497  0.48491420  1
  Ga  Ga46  1  0.17010964  0.67560316  0.01647873  1
  Ga  Ga47  1  0.66572577  0.65524559  0.02083293  1
  Ga  Ga48  1  0.16869413  0.66756132  0.52353342  1
  Ga  Ga49  1  0.66341557  0.65934035  0.51480469  1
  Ga  Ga50  1  0.16294038  0.66308427  0.30930960  1
  Ga  Ga51  1  0.65945861  0.64365286  0.31660931  1
  Ga  Ga52  1  0.17115306  0.65904393  0.81929524  1
  Ga  Ga53  1  0.67181902  0.65288717  0.81423049  1
  Si  Si54  1  0.14842532  0.00497288  0.25344501  1
  Si  Si55  1  0.35308217  0.70583084  0.25345675  1
  Si  Si56  1  0.85057854  0.70348260  0.25553831  1
  Si  Si57  1  0.99590898  0.29003964  0.25122813  1
  Si  Si58  1  0.50100738  0.28489183  0.25455087  1
  Si  Si59  1  0.14684320  0.28958222  0.75525753  1
  Si  Si60  1  0.63862001  0.28333799  0.75011325  1
  Si  Si61  1  0.84966268  0.00283935  0.75205787  1
  Si  Si62  1  0.97443145  0.33944416  0.58218139  1
  Si  Si63  1  0.19474340  0.04912133  0.57954943  1
  Si  Si64  1  0.34073451  0.63720773  0.58454027  1
  Si  Si65  1  0.82475524  0.61330027  0.58217494  1
  Si  Si66  1  0.48172046  0.61777928  0.08347190  1
  Si  Si67  1  0.98755269  0.62638797  0.08091819  1
  Si  Si68  1  0.69127865  0.33438781  0.08285675  1
  Si  Si69  1  0.31546688  0.67272434  0.91675693  1
  Si  Si70  1  0.81600535  0.67381453  0.91694517  1
  Si  Si71  1  0.52312910  0.66863538  0.41732733  1
  S  S72  1  0.64527996  0.00014877  0.24989122  1
  S  S73  1  0.00361331  0.71290336  0.75250304  1
  S  S74  1  0.49927375  0.70412397  0.75002833  1
  S  S75  1  0.35366825  0.00513861  0.75061559  1
  S  S76  1  0.47899490  0.33661609  0.58495708  1
  S  S77  1  0.68545476  0.04126468  0.58227572  1
  S  S78  1  0.32983134  0.04755436  0.08162681  1
  S  S79  1  0.83367189  0.05128637  0.08259893  1
  S  S80  1  0.18958206  0.33592996  0.08235645  1
  S  S81  1  0.01863301  0.37673287  0.91754790  1
  S  S82  1  0.51973090  0.37627950  0.91582786  1
  S  S83  1  0.16752750  0.95595957  0.91612176  1
  S  S84  1  0.66748973  0.95326319  0.91572464  1
  S  S85  1  0.31020061  0.95877742  0.41671508  1
  S  S86  1  0.81456129  0.96403688  0.41652936  1
  S  S87  1  0.16320638  0.37308198  0.41656384  1
  S  S88  1  0.66891127  0.36992240  0.41774451  1
  S  S89  1  0.02082581  0.66719387  0.41718384  1
  O  O90  1  0.10642404  0.05456079  0.30993388  1
  O  O91  1  0.60738538  0.03428105  0.30460538  1
  O  O92  1  0.41421707  0.78126519  0.31194616  1
  O  O93  1  0.91974851  0.78869340  0.30924670  1
  O  O94  1  0.48503995  0.15825630  0.31193415  1
  O  O95  1  0.97331167  0.16222726  0.30914045  1
  O  O96  1  0.10011426  0.17082030  0.81460430  1
  O  O97  1  0.59786952  0.15691222  0.81098487  1
  O  O98  1  0.47838409  0.78032974  0.80337329  1
  O  O99  1  0.98814647  0.79577477  0.80420344  1
  O  O100  1  0.40692633  0.02463855  0.80357023  1
  O  O101  1  0.91760458  0.04841574  0.80578921  1
  O  O102  1  0.38943348  0.96558936  0.69455409  1
  O  O103  1  0.89650471  0.96284212  0.69180229  1
  O  O104  1  0.08406919  0.19500214  0.69468401  1
  O  O105  1  0.58058771  0.18863186  0.69132385  1
  O  O106  1  0.01592787  0.81333769  0.69471578  1
  O  O107  1  0.51555919  0.81545249  0.69518665  1
  O  O108  1  0.40037804  0.84024591  0.19566362  1
  O  O109  1  0.89560211  0.82996659  0.19311275  1
  O  O110  1  0.01739762  0.19775392  0.19292350  1
  O  O111  1  0.51860298  0.19587613  0.19420373  1
  O  O112  1  0.08115177  0.96132950  0.19469416  1
  O  O113  1  0.58913458  0.96819101  0.19658259  1
  O  O114  1  0.43787184  0.36234470  0.63945264  1
  O  O115  1  0.93436581  0.37457752  0.64338689  1
  O  O116  1  0.25356929  0.11830538  0.63968058  1
  O  O117  1  0.73964040  0.11533833  0.63746006  1
  O  O118  1  0.31630029  0.51001655  0.64426412  1
  O  O119  1  0.81322965  0.51064426  0.64554869  1
  O  O120  1  0.44015072  0.50542125  0.14568461  1
  O  O121  1  0.94983152  0.52569125  0.14555984  1
  O  O122  1  0.31940371  0.12139221  0.13878249  1
  O  O123  1  0.82300452  0.12727942  0.13979574  1
  O  O124  1  0.23929900  0.35334681  0.13719370  1
  O  O125  1  0.74989155  0.36464819  0.14327612  1
  O  O126  1  0.22760296  0.30370929  0.02659062  1
  O  O127  1  0.72718131  0.29116349  0.02142294  1
  O  O128  1  0.42062359  0.54373653  0.02555179  1
  O  O129  1  0.91994005  0.54535065  0.02654345  1
  O  O130  1  0.34219535  0.15499163  0.02776837  1
  O  O131  1  0.84751535  0.15820109  0.02901056  1
  O  O132  1  0.23787714  0.18327981  0.52305786  1
  O  O133  1  0.72707659  0.15082927  0.52795792  1
  O  O134  1  0.35558869  0.55856914  0.52261704  1
  O  O135  1  0.85302972  0.53720248  0.52514205  1
  O  O136  1  0.42396694  0.30143769  0.53033186  1
  O  O137  1  0.91011012  0.28011107  0.52530688  1
  O  O138  1  0.26596152  0.69861685  0.97480736  1
  O  O139  1  0.76920895  0.69953912  0.97766285  1
  O  O140  1  0.07684225  0.46340133  0.96891775  1
  O  O141  1  0.57375510  0.45347424  0.96981738  1
  O  O142  1  0.15200549  0.84801692  0.97101646  1
  O  O143  1  0.65371733  0.84358318  0.96956731  1
  O  O144  1  0.26789461  0.84358720  0.47138442  1
  O  O145  1  0.77414117  0.85873960  0.47301411  1
  O  O146  1  0.15317072  0.45675665  0.47259008  1
  O  O147  1  0.65630972  0.45538292  0.47102414  1
  O  O148  1  0.07217961  0.68578936  0.47219222  1
  O  O149  1  0.58379423  0.69660531  0.47548276  1
  O  O150  1  0.06314020  0.64499685  0.36170823  1
  O  O151  1  0.56557562  0.64133280  0.35459929  1
  O  O152  1  0.25870224  0.87625169  0.36173386  1
  O  O153  1  0.76232336  0.88050399  0.36239621  1
  O  O154  1  0.17695618  0.48562487  0.36194729  1
  O  O155  1  0.68615762  0.47749690  0.36113200  1
  O  O156  1  0.05689936  0.48191023  0.85986802  1
  O  O157  1  0.55850595  0.48676443  0.86119532  1
  O  O158  1  0.17871737  0.87129813  0.86094890  1
  O  O159  1  0.67485559  0.87127922  0.85863411  1
  O  O160  1  0.25507305  0.62719751  0.85556158  1
  O  O161  1  0.75422198  0.62896428  0.85723993  1
  O  O162  1  0.01229421  0.82533958  0.41323370  1
  O  O163  1  0.50907447  0.84195170  0.41244664  1
  O  O164  1  0.39770023  0.97058394  0.41406542  1
  O  O165  1  0.90337122  0.98078503  0.41275206  1
  O  O166  1  0.08373391  0.19982645  0.41317143  1
  O  O167  1  0.58982641  0.19803841  0.41263803  1
  O  O168  1  0.01644838  0.20538869  0.91336708  1
  O  O169  1  0.51453921  0.20280601  0.90996628  1
  O  O170  1  0.09049644  0.98178880  0.91225261  1
  O  O171  1  0.58909817  0.98025289  0.91343593  1
  O  O172  1  0.41263936  0.84651021  0.90874501  1
  O  O173  1  0.91432305  0.84659066  0.91000472  1
  O  O174  1  0.48646171  0.17554539  0.58954828  1
  O  O175  1  0.98837982  0.16566897  0.58911293  1
  O  O176  1  0.09518467  0.02543955  0.58968454  1
  O  O177  1  0.59780880  0.02283889  0.58848074  1
  O  O178  1  0.42296961  0.83696070  0.59347088  1
  O  O179  1  0.91686399  0.81176220  0.59019420  1
  O  O180  1  0.48856516  0.81291069  0.09349561  1
  O  O181  1  0.99066062  0.82128615  0.08805093  1
  O  O182  1  0.41202267  0.03123589  0.08456333  1
  O  O183  1  0.91369168  0.02708290  0.08666419  1
  O  O184  1  0.09958770  0.17619269  0.08701668  1
  O  O185  1  0.59207646  0.16226085  0.09035693  1
  O  O186  1  0.34784510  0.16487562  0.74432081  1
  O  O187  1  0.84274930  0.17756988  0.74123471  1
  O  O188  1  0.24576520  0.31884625  0.74750059  1
  O  O189  1  0.73888808  0.30747866  0.74510615  1
  O  O190  1  0.42171624  0.52816180  0.74364676  1
  O  O191  1  0.92464664  0.53662313  0.74824913  1
  O  O192  1  0.34045248  0.51275826  0.24463244  1
  O  O193  1  0.83834182  0.51041486  0.24655985  1
  O  O194  1  0.41319526  0.30062577  0.24794924  1
  O  O195  1  0.90762945  0.30367498  0.24230878  1
  O  O196  1  0.24298489  0.17242436  0.23893743  1
  O  O197  1  0.73351570  0.15507766  0.24260207  1
  O  O198  1  0.31801612  0.48642824  0.92120951  1
  O  O199  1  0.82129472  0.49080111  0.92000726  1
  O  O200  1  0.42912635  0.34790783  0.92212529  1
  O  O201  1  0.93019818  0.34989577  0.92371960  1
  O  O202  1  0.24742914  0.13107491  0.92065714  1
  O  O203  1  0.74696164  0.12813791  0.91852183  1
  O  O204  1  0.31884042  0.13176131  0.42276465  1
  O  O205  1  0.82109076  0.13920802  0.42092330  1
  O  O206  1  0.24418702  0.36094176  0.41886417  1
  O  O207  1  0.74874227  0.35096169  0.42327559  1
  O  O208  1  0.42257405  0.49186949  0.42208953  1
  O  O209  1  0.93257044  0.50515328  0.42042782  1
  O  O210  1  0.17936284  0.49111165  0.07696502  1
  O  O211  1  0.68351420  0.51069993  0.07890561  1
  O  O212  1  0.08485394  0.65131090  0.07288499  1
  O  O213  1  0.58066993  0.65225278  0.07439462  1
  O  O214  1  0.25431417  0.86900554  0.07813382  1
  O  O215  1  0.75705760  0.87168671  0.07998467  1
  O  O216  1  0.17592473  0.85013941  0.57328353  1
  O  O217  1  0.67866729  0.86700771  0.57750967  1
  O  O218  1  0.25071387  0.65275135  0.57742279  1
  O  O219  1  0.74444947  0.65518369  0.57283332  1
  O  O220  1  0.07375965  0.50355061  0.57504469  1
  O  O221  1  0.56736350  0.49162836  0.57780210  1
  O  O222  1  0.15406302  0.82800629  0.25805570  1
  O  O223  1  0.65490072  0.84339194  0.25493700  1
  O  O224  1  0.25719332  0.69129587  0.25842914  1
  O  O225  1  0.75679886  0.69834566  0.26160808  1
  O  O226  1  0.08332047  0.48084889  0.25670652  1
  O  O227  1  0.58788232  0.48027370  0.25559328  1
  O  O228  1  0.15226855  0.48433509  0.75589614  1
  O  O229  1  0.65119291  0.47920849  0.75523127  1
  O  O230  1  0.08253222  0.69282340  0.75723631  1
  O  O231  1  0.58017662  0.69601680  0.75767716  1
  O  O232  1  0.26382478  0.84524849  0.75677960  1
  O  O233  1  0.75329217  0.82927379  0.75594628  1
