# generated using pymatgen
data_Cs2MgMnV2(BrO3)2
_symmetry_space_group_name_H-M   'P 1'
_cell_length_a   6.07606102
_cell_length_b   5.87587951
_cell_length_c   9.35228205
_cell_angle_alpha   108.30219930
_cell_angle_beta   90.72004081
_cell_angle_gamma   90.01385083
_symmetry_Int_Tables_number   1
_chemical_formula_structural   Cs2MgMnV2(BrO3)2
_chemical_formula_sum   'Cs2 Mg1 Mn1 V2 Br2 O6'
_cell_volume   316.97824096
_cell_formula_units_Z   1
loop_
 _symmetry_equiv_pos_site_id
 _symmetry_equiv_pos_as_xyz
  1  'x, y, z'
loop_
 _atom_site_type_symbol
 _atom_site_label
 _atom_site_symmetry_multiplicity
 _atom_site_fract_x
 _atom_site_fract_y
 _atom_site_fract_z
 _atom_site_occupancy
  Cs  Cs0  1  0.02134200  0.62739000  0.25471000  1
  Cs  Cs1  1  0.04865700  0.38607800  0.77135000  1
  Mg  Mg2  1  0.20371700  0.19749100  0.39521000  1
  Mn  Mn3  1  0.51564300  0.99805500  0.99547000  1
  V  V4  1  0.52956200  0.79480900  0.58983400  1
  V  V5  1  0.60966200  0.19807800  0.39627000  1
  Br  Br6  1  0.52544000  0.50587500  0.01328500  1
  Br  Br7  1  0.96385000  0.01176900  0.02310200  1
  O  O8  1  0.42109600  0.46865300  0.48565200  1
  O  O9  1  0.43346500  0.88878000  0.77820400  1
  O  O10  1  0.80260000  0.77634300  0.55276500  1
  O  O11  1  0.89773900  0.21259700  0.42504300  1
  O  O12  1  0.42110900  0.01670300  0.48561000  1
  O  O13  1  0.45282000  0.11182300  0.22397000  1
