# generated using pymatgen
data_Na7CaSi3Ge3(PO8)3
_symmetry_space_group_name_H-M   'P 1'
_cell_length_a   8.88107956
_cell_length_b   8.89452671
_cell_length_c   21.87646581
_cell_angle_alpha   89.38961383
_cell_angle_beta   90.42648892
_cell_angle_gamma   119.78615385
_symmetry_Int_Tables_number   1
_chemical_formula_structural   Na7CaSi3Ge3(PO8)3
_chemical_formula_sum   'Na21 Ca3 Si9 Ge9 P9 O72'
_cell_volume   1499.69254671
_cell_formula_units_Z   3
loop_
 _symmetry_equiv_pos_site_id
 _symmetry_equiv_pos_as_xyz
  1  'x, y, z'
loop_
 _atom_site_type_symbol
 _atom_site_label
 _atom_site_symmetry_multiplicity
 _atom_site_fract_x
 _atom_site_fract_y
 _atom_site_fract_z
 _atom_site_occupancy
  Na  Na0  1  0.63862413  0.00783710  0.24743592  1
  Na  Na1  1  0.37189137  0.36338930  0.24734910  1
  Na  Na2  1  0.99189504  0.63270984  0.24987871  1
  Na  Na3  1  0.63055304  0.62037083  0.74949849  1
  Na  Na4  1  0.99189245  0.37504260  0.74743794  1
  Na  Na5  1  0.37805202  0.00691597  0.74721484  1
  Na  Na6  1  0.02749892  0.68956481  0.58385676  1
  Na  Na7  1  0.66616572  0.97410056  0.57983263  1
  Na  Na8  1  0.31177391  0.97366393  0.08317140  1
  Na  Na9  1  0.65980087  0.68848376  0.08364907  1
  Na  Na10  1  0.02639408  0.33552581  0.07979189  1
  Na  Na11  1  0.33302507  0.29939699  0.91720685  1
  Na  Na12  1  0.96628026  0.28557544  0.41747111  1
  Na  Na13  1  0.31955376  0.03310603  0.41771654  1
  Na  Na14  1  0.71392605  0.67811609  0.41741642  1
  Na  Na15  1  0.00757863  0.00794621  0.49852467  1
  Na  Na16  1  0.98778386  0.99150984  0.99661303  1
  Na  Na17  1  0.68279788  0.34130842  0.83591910  1
  Na  Na18  1  0.66609499  0.33354752  0.33303387  1
  Na  Na19  1  0.33900873  0.66872843  0.16372016  1
  Na  Na20  1  0.32669898  0.65107648  0.66379381  1
  Ca  Ca21  1  0.99833782  0.99971677  0.35659438  1
  Ca  Ca22  1  0.67242237  0.33892266  0.68277358  1
  Ca  Ca23  1  0.66410655  0.32964299  0.17385319  1
  Si  Si24  1  0.01122234  0.72583214  0.75450020  1
  Si  Si25  1  0.97544689  0.33514439  0.58410297  1
  Si  Si26  1  0.66091735  0.02862752  0.08102436  1
  Si  Si27  1  0.36645487  0.33597217  0.08081216  1
  Si  Si28  1  0.62539016  0.66645733  0.91514558  1
  Si  Si29  1  0.03572943  0.37435322  0.91577732  1
  Si  Si30  1  0.60816516  0.95360808  0.42047160  1
  Si  Si31  1  0.34750456  0.38819874  0.41978299  1
  Si  Si32  1  0.04443200  0.65460364  0.41996720  1
  Ge  Ge33  1  0.98910119  0.99538906  0.85767222  1
  Ge  Ge34  1  0.00830707  0.00571927  0.64725819  1
  Ge  Ge35  1  0.00074438  0.00667782  0.14585541  1
  Ge  Ge36  1  0.67190675  0.33420961  0.97916849  1
  Ge  Ge37  1  0.67016402  0.32809823  0.47942844  1
  Ge  Ge38  1  0.33937513  0.66320276  0.01259750  1
  Ge  Ge39  1  0.32982698  0.65856955  0.51776692  1
  Ge  Ge40  1  0.33358980  0.66592851  0.31990237  1
  Ge  Ge41  1  0.32315114  0.66252978  0.81822456  1
  P  P42  1  0.29096286  0.99012727  0.25026745  1
  P  P43  1  0.69996921  0.70790700  0.24983914  1
  P  P44  1  0.01040192  0.30423447  0.24990389  1
  P  P45  1  0.27521803  0.28516230  0.75431195  1
  P  P46  1  0.71315631  0.98966146  0.75271257  1
  P  P47  1  0.36629629  0.03411753  0.58247292  1
  P  P48  1  0.66314171  0.63208930  0.58267127  1
  P  P49  1  0.96991576  0.63495416  0.08016782  1
  P  P50  1  0.33543403  0.95562068  0.91585565  1
  O  O51  1  0.21489263  0.01564711  0.30741677  1
  O  O52  1  0.80070074  0.78163997  0.30760226  1
  O  O53  1  0.98020166  0.20082346  0.30748429  1
  O  O54  1  0.19084628  0.17532157  0.81229255  1
  O  O55  1  0.98260369  0.82659424  0.81061987  1
  O  O56  1  0.83445592  0.02832759  0.80832290  1
  O  O57  1  0.79370280  0.96063794  0.69328138  1
  O  O58  1  0.16096891  0.20210245  0.69599421  1
  O  O59  1  0.04362816  0.84257818  0.68989362  1
  O  O60  1  0.79446995  0.82726285  0.19103890  1
  O  O61  1  0.03553873  0.21154095  0.19144813  1
  O  O62  1  0.17099537  0.96373966  0.19111735  1
  O  O63  1  0.91574704  0.38595667  0.64532061  1
  O  O64  1  0.46798860  0.09858645  0.64144802  1
  O  O65  1  0.63003075  0.53932245  0.64342976  1
  O  O66  1  0.91947626  0.53663730  0.14051249  1
  O  O67  1  0.60773943  0.07428979  0.14456840  1
  O  O68  1  0.47144764  0.39255242  0.14330565  1
  O  O69  1  0.46363246  0.29187087  0.02422155  1
  O  O70  1  0.83294723  0.54318153  0.02863641  1
  O  O71  1  0.71188670  0.18100313  0.02798714  1
  O  O72  1  0.45719407  0.15454324  0.52599155  1
  O  O73  1  0.70029881  0.54132087  0.52838426  1
  O  O74  1  0.83088915  0.28943094  0.52636795  1
  O  O75  1  0.53719065  0.69634195  0.97553406  1
  O  O76  1  0.16767701  0.46670467  0.97325411  1
  O  O77  1  0.30510070  0.83913702  0.97252525  1
  O  O78  1  0.51665329  0.83357902  0.47967843  1
  O  O79  1  0.31036807  0.48096168  0.47521339  1
  O  O80  1  0.16840351  0.69129236  0.47870787  1
  O  O81  1  0.12692818  0.61828954  0.35651821  1
  O  O82  1  0.49138224  0.87109626  0.35655217  1
  O  O83  1  0.38419166  0.50666818  0.35526219  1
  O  O84  1  0.12298195  0.49519742  0.85382526  1
  O  O85  1  0.36574342  0.87326507  0.85764105  1
  O  O86  1  0.49152138  0.62463781  0.85605980  1
  O  O87  1  0.01610605  0.81780465  0.42027425  1
  O  O88  1  0.79921490  0.98008114  0.42139815  1
  O  O89  1  0.18321661  0.19843614  0.41929705  1
  O  O90  1  0.02860282  0.18432655  0.91019389  1
  O  O91  1  0.17432165  0.98203954  0.91164416  1
  O  O92  1  0.81779800  0.83985440  0.91027969  1
  O  O93  1  0.97591845  0.14852416  0.59064405  1
  O  O94  1  0.18018430  0.01414311  0.58603449  1
  O  O95  1  0.83673063  0.81621593  0.58596708  1
  O  O96  1  0.98277573  0.81792011  0.08630018  1
  O  O97  1  0.84108296  0.01366360  0.08788770  1
  O  O98  1  0.17450719  0.15363833  0.08819575  1
  O  O99  1  0.68521801  0.14542426  0.74996073  1
  O  O100  1  0.45532414  0.30397471  0.75141955  1
  O  O101  1  0.84379475  0.53571921  0.75463237  1
  O  O102  1  0.67663125  0.52656504  0.24431583  1
  O  O103  1  0.85533239  0.33258444  0.24336614  1
  O  O104  1  0.47278958  0.14718326  0.24487231  1
  O  O105  1  0.63330827  0.48421701  0.92357353  1
  O  O106  1  0.84466192  0.35699971  0.92444444  1
  O  O107  1  0.49811295  0.13939801  0.92140309  1
  O  O108  1  0.62032578  0.14637539  0.42346929  1
  O  O109  1  0.52847424  0.37759181  0.42614277  1
  O  O110  1  0.85246108  0.47406423  0.42465318  1
  O  O111  1  0.33474339  0.50230271  0.06988786  1
  O  O112  1  0.15275136  0.66042967  0.06714370  1
  O  O113  1  0.48984196  0.83709585  0.06802019  1
  O  O114  1  0.34455077  0.84941840  0.57551251  1
  O  O115  1  0.50828113  0.66582874  0.57401829  1
  O  O116  1  0.16569664  0.50916021  0.57398513  1
  O  O117  1  0.29746538  0.81543095  0.25179116  1
  O  O118  1  0.51981412  0.70273818  0.25091312  1
  O  O119  1  0.18520893  0.48317813  0.25157940  1
  O  O120  1  0.29274722  0.47009461  0.75566371  1
  O  O121  1  0.19362946  0.71086178  0.75790670  1
  O  O122  1  0.53183614  0.81947203  0.75766918  1
