# generated using pymatgen
data_Na9Mg2Nb4Si6(PO12)3
_symmetry_space_group_name_H-M   'P 1'
_cell_length_a   15.71470551
_cell_length_b   27.12296330
_cell_length_c   9.01912223
_cell_angle_alpha   90.01738459
_cell_angle_beta   124.85161748
_cell_angle_gamma   89.98447407
_symmetry_Int_Tables_number   1
_chemical_formula_structural   Na9Mg2Nb4Si6(PO12)3
_chemical_formula_sum   'Na36 Mg8 Nb16 Si24 P12 O144'
_cell_volume   3154.69604914
_cell_formula_units_Z   4
loop_
 _symmetry_equiv_pos_site_id
 _symmetry_equiv_pos_as_xyz
  1  'x, y, z'
loop_
 _atom_site_type_symbol
 _atom_site_label
 _atom_site_symmetry_multiplicity
 _atom_site_fract_x
 _atom_site_fract_y
 _atom_site_fract_z
 _atom_site_occupancy
  Na  Na0  1  0.25822699  0.24591788  0.02736738  1
  Na  Na1  1  0.25020341  0.59049390  0.01781267  1
  Na  Na2  1  0.25893405  0.91393695  0.01985038  1
  Na  Na3  1  0.75066888  0.25149441  0.50367479  1
  Na  Na4  1  0.74689736  0.58190374  0.50088245  1
  Na  Na5  1  0.75731719  0.91624166  0.52203795  1
  Na  Na6  1  0.75020341  0.09049390  0.01781267  1
  Na  Na7  1  0.75893405  0.41393695  0.01985038  1
  Na  Na8  1  0.75822699  0.74591788  0.02736738  1
  Na  Na9  1  0.24689736  0.08190374  0.50088245  1
  Na  Na10  1  0.25731719  0.41624166  0.52203795  1
  Na  Na11  1  0.25066888  0.75149441  0.50367479  1
  Na  Na12  1  0.48732962  0.02522071  0.71783450  1
  Na  Na13  1  0.48988671  0.36778086  0.74239559  1
  Na  Na14  1  0.48689084  0.69529135  0.72409645  1
  Na  Na15  1  0.49136635  0.29651138  0.25556303  1
  Na  Na16  1  0.50037061  0.62759026  0.26945210  1
  Na  Na17  1  0.50176181  0.95841766  0.27667505  1
  Na  Na18  1  0.98689084  0.19529135  0.72409645  1
  Na  Na19  1  0.98732962  0.52522071  0.71783450  1
  Na  Na20  1  0.98988671  0.86778086  0.74239559  1
  Na  Na21  1  0.00037061  0.12759026  0.26945210  1
  Na  Na22  1  0.00176181  0.45841766  0.27667505  1
  Na  Na23  1  0.99136635  0.79651138  0.25556303  1
  Na  Na24  1  0.81644471  0.97935549  0.20539237  1
  Na  Na25  1  0.20711773  0.30914486  0.29888250  1
  Na  Na26  1  0.19680347  0.97463229  0.28350604  1
  Na  Na27  1  0.20018184  0.35928988  0.79044395  1
  Na  Na28  1  0.81792507  0.02004882  0.71021714  1
  Na  Na29  1  0.81621455  0.69559379  0.68535097  1
  Na  Na30  1  0.31644471  0.47935549  0.20539237  1
  Na  Na31  1  0.69680347  0.47463229  0.28350604  1
  Na  Na32  1  0.70711773  0.80914486  0.29888250  1
  Na  Na33  1  0.70018184  0.85928988  0.79044395  1
  Na  Na34  1  0.31621455  0.19559379  0.68535097  1
  Na  Na35  1  0.31792507  0.52004882  0.71021714  1
  Mg  Mg36  1  0.89667495  0.91714733  0.93900985  1
  Mg  Mg37  1  0.89457293  0.08519030  0.43240501  1
  Mg  Mg38  1  0.89672702  0.41612370  0.44297056  1
  Mg  Mg39  1  0.89631260  0.74862130  0.43485657  1
  Mg  Mg40  1  0.39667495  0.41714733  0.93900985  1
  Mg  Mg41  1  0.39631260  0.24862130  0.43485657  1
  Mg  Mg42  1  0.39457293  0.58519030  0.43240501  1
  Mg  Mg43  1  0.39672702  0.91612370  0.44297056  1
  Nb  Nb44  1  0.10490479  0.24988539  0.57809778  1
  Nb  Nb45  1  0.10658655  0.58403755  0.56814826  1
  Nb  Nb46  1  0.10630528  0.91566459  0.56866153  1
  Nb  Nb47  1  0.89082080  0.24968564  0.93125542  1
  Nb  Nb48  1  0.89552798  0.58224817  0.93979836  1
  Nb  Nb49  1  0.10559246  0.08438812  0.06065041  1
  Nb  Nb50  1  0.10492317  0.41693464  0.06100271  1
  Nb  Nb51  1  0.10589472  0.75046887  0.06250732  1
  Nb  Nb52  1  0.60658655  0.08403755  0.56814826  1
  Nb  Nb53  1  0.60630528  0.41566459  0.56866153  1
  Nb  Nb54  1  0.60490479  0.74988539  0.57809778  1
  Nb  Nb55  1  0.39552798  0.08224817  0.93979836  1
  Nb  Nb56  1  0.39082080  0.74968564  0.93125542  1
  Nb  Nb57  1  0.60589472  0.25046887  0.06250732  1
  Nb  Nb58  1  0.60559246  0.58438812  0.06065041  1
  Nb  Nb59  1  0.60492317  0.91693464  0.06100271  1
  Si  Si60  1  0.99434648  0.32115828  0.74231960  1
  Si  Si61  1  0.49434648  0.82115828  0.74231960  1
  Si  Si62  1  0.35249810  0.29908155  0.75083000  1
  Si  Si63  1  0.35273262  0.63052385  0.74985979  1
  Si  Si64  1  0.35078829  0.96375107  0.74497565  1
  Si  Si65  1  0.63996627  0.29759454  0.73116798  1
  Si  Si66  1  0.64498499  0.63077606  0.73498413  1
  Si  Si67  1  0.64563504  0.96690080  0.73680070  1
  Si  Si68  1  0.64859808  0.03443703  0.24711105  1
  Si  Si69  1  0.64422986  0.70054495  0.24722892  1
  Si  Si70  1  0.35270960  0.03535394  0.25645079  1
  Si  Si71  1  0.34949081  0.36916504  0.24572256  1
  Si  Si72  1  0.35223611  0.70308807  0.25630924  1
  Si  Si73  1  0.85273262  0.13052385  0.74985979  1
  Si  Si74  1  0.85078829  0.46375107  0.74497565  1
  Si  Si75  1  0.85249810  0.79908155  0.75083000  1
  Si  Si76  1  0.14498499  0.13077606  0.73498413  1
  Si  Si77  1  0.14563504  0.46690080  0.73680070  1
  Si  Si78  1  0.13996627  0.79759454  0.73116798  1
  Si  Si79  1  0.14422986  0.20054495  0.24722892  1
  Si  Si80  1  0.14859808  0.53443703  0.24711105  1
  Si  Si81  1  0.85223611  0.20308807  0.25630924  1
  Si  Si82  1  0.85270960  0.53535394  0.25645079  1
  Si  Si83  1  0.84949081  0.86916504  0.24572256  1
  P  P84  1  0.00129516  0.65402223  0.74740330  1
  P  P85  1  0.00097764  0.98663362  0.74318132  1
  P  P86  1  0.00141251  0.01301793  0.24468625  1
  P  P87  1  0.00029777  0.34639445  0.25071847  1
  P  P88  1  0.00101555  0.68068086  0.24778218  1
  P  P89  1  0.50129516  0.15402223  0.74740330  1
  P  P90  1  0.50097764  0.48663362  0.74318132  1
  P  P91  1  0.50101555  0.18068086  0.24778218  1
  P  P92  1  0.50141251  0.51301793  0.24468625  1
  P  P93  1  0.50029777  0.84639445  0.25071847  1
  P  P94  1  0.64092321  0.36717435  0.23940356  1
  P  P95  1  0.14092321  0.86717435  0.23940356  1
  O  O96  1  0.15128209  0.19232884  0.74994521  1
  O  O97  1  0.14757763  0.52899799  0.74574559  1
  O  O98  1  0.14639825  0.85931094  0.74110082  1
  O  O99  1  0.84655479  0.19056202  0.77049891  1
  O  O100  1  0.84879481  0.52489232  0.77697766  1
  O  O101  1  0.84301711  0.85808330  0.75643950  1
  O  O102  1  0.84914737  0.14440291  0.24897107  1
  O  O103  1  0.84248535  0.47648222  0.24170691  1
  O  O104  1  0.84045868  0.81022883  0.25359433  1
  O  O105  1  0.14459528  0.13896251  0.24238099  1
  O  O106  1  0.14126997  0.47338469  0.24537307  1
  O  O107  1  0.14676900  0.80882284  0.24843458  1
  O  O108  1  0.64757763  0.02899799  0.74574559  1
  O  O109  1  0.64639825  0.35931094  0.74110082  1
  O  O110  1  0.65128209  0.69232884  0.74994521  1
  O  O111  1  0.34879481  0.02489232  0.77697766  1
  O  O112  1  0.34301711  0.35808330  0.75643950  1
  O  O113  1  0.34655479  0.69056202  0.77049891  1
  O  O114  1  0.34045868  0.31022883  0.25359433  1
  O  O115  1  0.34914737  0.64440291  0.24897107  1
  O  O116  1  0.34248535  0.97648222  0.24170691  1
  O  O117  1  0.64676900  0.30882284  0.24843458  1
  O  O118  1  0.64459528  0.63896251  0.24238099  1
  O  O119  1  0.64126997  0.97338469  0.24537307  1
  O  O120  1  0.43099482  0.18446451  0.58134977  1
  O  O121  1  0.43531332  0.51833234  0.57653155  1
  O  O122  1  0.42892801  0.85438621  0.57099635  1
  O  O123  1  0.56525417  0.18722381  0.92086528  1
  O  O124  1  0.56645948  0.52029888  0.91849671  1
  O  O125  1  0.57085556  0.85595869  0.92907823  1
  O  O126  1  0.56173976  0.14550514  0.41588491  1
  O  O127  1  0.56596673  0.47754291  0.41395984  1
  O  O128  1  0.56569233  0.81318949  0.42412721  1
  O  O129  1  0.44461987  0.14736476  0.07670228  1
  O  O130  1  0.44061082  0.48220301  0.07435244  1
  O  O131  1  0.44682291  0.81237387  0.08404917  1
  O  O132  1  0.93531332  0.01833234  0.57653155  1
  O  O133  1  0.92892801  0.35438621  0.57099635  1
  O  O134  1  0.93099482  0.68446451  0.58134977  1
  O  O135  1  0.06645948  0.02029888  0.91849671  1
  O  O136  1  0.07085556  0.35595869  0.92907823  1
  O  O137  1  0.06525417  0.68722381  0.92086528  1
  O  O138  1  0.06569233  0.31318949  0.42412721  1
  O  O139  1  0.06173976  0.64550514  0.41588491  1
  O  O140  1  0.06596673  0.97754291  0.41395984  1
  O  O141  1  0.94682291  0.31237387  0.08404917  1
  O  O142  1  0.94461987  0.64736476  0.07670228  1
  O  O143  1  0.94061082  0.98220301  0.07435244  1
  O  O144  1  0.25430983  0.27325014  0.74755951  1
  O  O145  1  0.25449489  0.60512659  0.74132979  1
  O  O146  1  0.25288820  0.93886141  0.73529566  1
  O  O147  1  0.74903693  0.27779885  0.76842653  1
  O  O148  1  0.75464931  0.61399806  0.76431379  1
  O  O149  1  0.74806969  0.94876049  0.75358427  1
  O  O150  1  0.74569410  0.05168905  0.24816990  1
  O  O151  1  0.73480661  0.39105780  0.25904435  1
  O  O152  1  0.73780113  0.72556796  0.25427853  1
  O  O153  1  0.25220740  0.05926697  0.24344077  1
  O  O154  1  0.25522353  0.39638945  0.25293201  1
  O  O155  1  0.25182474  0.72910406  0.23932675  1
  O  O156  1  0.75449489  0.10512659  0.74132979  1
  O  O157  1  0.75288820  0.43886141  0.73529566  1
  O  O158  1  0.75430983  0.77325014  0.74755951  1
  O  O159  1  0.25464931  0.11399806  0.76431379  1
  O  O160  1  0.24806969  0.44876049  0.75358427  1
  O  O161  1  0.24903693  0.77779885  0.76842653  1
  O  O162  1  0.23780113  0.22556796  0.25427853  1
  O  O163  1  0.24569410  0.55168905  0.24816990  1
  O  O164  1  0.23480661  0.89105780  0.25904435  1
  O  O165  1  0.75182474  0.22910406  0.23932675  1
  O  O166  1  0.75220740  0.55926697  0.24344077  1
  O  O167  1  0.75522353  0.89638945  0.25293201  1
  O  O168  1  0.34954674  0.28059614  0.57978384  1
  O  O169  1  0.35920855  0.61991215  0.58418150  1
  O  O170  1  0.35005906  0.96089110  0.56761399  1
  O  O171  1  0.63266861  0.28369559  0.90713236  1
  O  O172  1  0.63820282  0.61578934  0.91047808  1
  O  O173  1  0.64431558  0.95248716  0.92147800  1
  O  O174  1  0.64584165  0.04985155  0.42617879  1
  O  O175  1  0.63704440  0.38151725  0.40783073  1
  O  O176  1  0.64225307  0.71419875  0.42784617  1
  O  O177  1  0.35644828  0.05682664  0.08717753  1
  O  O178  1  0.34118920  0.38811413  0.07022120  1
  O  O179  1  0.35707948  0.72415923  0.08968261  1
  O  O180  1  0.85920855  0.11991215  0.58418150  1
  O  O181  1  0.85005906  0.46089110  0.56761399  1
  O  O182  1  0.84954674  0.78059614  0.57978384  1
  O  O183  1  0.13820282  0.11578934  0.91047808  1
  O  O184  1  0.14431558  0.45248716  0.92147800  1
  O  O185  1  0.13266861  0.78369559  0.90713236  1
  O  O186  1  0.14225307  0.21419875  0.42784617  1
  O  O187  1  0.14584165  0.54985155  0.42617879  1
  O  O188  1  0.13704440  0.88151725  0.40783073  1
  O  O189  1  0.85707948  0.22415923  0.08968261  1
  O  O190  1  0.85644828  0.55682664  0.08717753  1
  O  O191  1  0.84118920  0.88811413  0.07022120  1
  O  O192  1  0.46136199  0.27465739  0.93585456  1
  O  O193  1  0.46065963  0.60703802  0.93713224  1
  O  O194  1  0.46119831  0.94198595  0.92504421  1
  O  O195  1  0.54076173  0.27811517  0.54762797  1
  O  O196  1  0.54529602  0.61167614  0.55310329  1
  O  O197  1  0.53891760  0.94812542  0.56269375  1
  O  O198  1  0.53585949  0.05535646  0.07305243  1
  O  O199  1  0.54000876  0.38280298  0.06736234  1
  O  O200  1  0.53094341  0.71854122  0.07226006  1
  O  O201  1  0.46215806  0.05695513  0.43789796  1
  O  O202  1  0.46198931  0.39162101  0.42977275  1
  O  O203  1  0.46160198  0.72442579  0.44343197  1
  O  O204  1  0.96065963  0.10703802  0.93713224  1
  O  O205  1  0.96119831  0.44198595  0.92504421  1
  O  O206  1  0.96136199  0.77465739  0.93585456  1
  O  O207  1  0.04529602  0.11167614  0.55310329  1
  O  O208  1  0.03891760  0.44812542  0.56269375  1
  O  O209  1  0.04076173  0.77811517  0.54762797  1
  O  O210  1  0.03094341  0.21854122  0.07226006  1
  O  O211  1  0.03585949  0.55535646  0.07305243  1
  O  O212  1  0.04000876  0.88280298  0.06736234  1
  O  O213  1  0.96160198  0.22442579  0.44343197  1
  O  O214  1  0.96215806  0.55695513  0.43789796  1
  O  O215  1  0.96198931  0.89162101  0.42977275  1
  O  O216  1  0.08480272  0.28715440  0.74587622  1
  O  O217  1  0.08115996  0.62088980  0.74524113  1
  O  O218  1  0.08328233  0.95402553  0.74082340  1
  O  O219  1  0.92679353  0.28035341  0.76872785  1
  O  O220  1  0.92968969  0.61814589  0.76761700  1
  O  O221  1  0.93165564  0.95121790  0.76270475  1
  O  O222  1  0.92926419  0.04722924  0.25855674  1
  O  O223  1  0.92393995  0.38123280  0.24960881  1
  O  O224  1  0.92315392  0.71369105  0.24823225  1
  O  O225  1  0.08819312  0.04398163  0.24949540  1
  O  O226  1  0.08452086  0.37756502  0.24970241  1
  O  O227  1  0.08279339  0.71277363  0.24557690  1
  O  O228  1  0.58115996  0.12088980  0.74524113  1
  O  O229  1  0.58328233  0.45402553  0.74082340  1
  O  O230  1  0.58480272  0.78715440  0.74587622  1
  O  O231  1  0.42968969  0.11814589  0.76761700  1
  O  O232  1  0.43165564  0.45121790  0.76270475  1
  O  O233  1  0.42679353  0.78035341  0.76872785  1
  O  O234  1  0.42315392  0.21369105  0.24823225  1
  O  O235  1  0.42926419  0.54722924  0.25855674  1
  O  O236  1  0.42393995  0.88123280  0.24960881  1
  O  O237  1  0.58279339  0.21277363  0.24557690  1
  O  O238  1  0.58819312  0.54398163  0.24949540  1
  O  O239  1  0.58452086  0.87756502  0.24970241  1
