# generated using pymatgen
data_CsH7O4
_symmetry_space_group_name_H-M   'P 1'
_cell_length_a   5.94127075
_cell_length_b   8.59423532
_cell_length_c   12.30232352
_cell_angle_alpha   52.47558585
_cell_angle_beta   90.00000000
_cell_angle_gamma   90.00000000
_symmetry_Int_Tables_number   1
_chemical_formula_structural   CsH7O4
_chemical_formula_sum   'Cs4 H28 O16'
_cell_volume   498.19380426
_cell_formula_units_Z   4
loop_
 _symmetry_equiv_pos_site_id
 _symmetry_equiv_pos_as_xyz
  1  'x, y, z'
loop_
 _atom_site_type_symbol
 _atom_site_label
 _atom_site_symmetry_multiplicity
 _atom_site_fract_x
 _atom_site_fract_y
 _atom_site_fract_z
 _atom_site_occupancy
  Cs  Cs0  1  0.15429991  0.67634354  0.25955968  1
  Cs  Cs1  1  0.65429991  0.32365646  0.24044032  1
  Cs  Cs2  1  0.84570009  0.32365646  0.74044032  1
  Cs  Cs3  1  0.34570009  0.67634354  0.75955968  1
  H  H4  1  0.13516037  0.38163350  0.10775670  1
  H  H5  1  0.63516037  0.61836650  0.39224330  1
  H  H6  1  0.86483963  0.61836650  0.89224330  1
  H  H7  1  0.36483963  0.38163350  0.60775670  1
  H  H8  1  0.12216562  0.61134801  0.02036418  1
  H  H9  1  0.62216562  0.38865199  0.47963582  1
  H  H10  1  0.87783438  0.38865199  0.97963582  1
  H  H11  1  0.37783438  0.61134801  0.52036418  1
  H  H12  1  0.18694083  0.92324914  0.87062993  1
  H  H13  1  0.68694083  0.07675086  0.62937007  1
  H  H14  1  0.81305917  0.07675086  0.12937007  1
  H  H15  1  0.31305917  0.92324914  0.37062993  1
  H  H16  1  0.38488483  0.07155708  0.76215663  1
  H  H17  1  0.88488483  0.92844292  0.73784337  1
  H  H18  1  0.61511517  0.92844292  0.23784337  1
  H  H19  1  0.11511517  0.07155708  0.26215663  1
  H  H20  1  0.66325088  0.86087194  0.08868870  1
  H  H21  1  0.16325088  0.13912806  0.41131130  1
  H  H22  1  0.33674912  0.13912806  0.91131130  1
  H  H23  1  0.83674912  0.86087194  0.58868870  1
  H  H24  1  0.63390195  0.80661882  0.44390492  1
  H  H25  1  0.13390195  0.19338118  0.05609508  1
  H  H26  1  0.36609805  0.19338118  0.55609508  1
  H  H27  1  0.86609805  0.80661882  0.94390492  1
  H  H28  1  0.97215884  0.85150980  0.48297796  1
  H  H29  1  0.47215884  0.14849020  0.01702204  1
  H  H30  1  0.02784116  0.14849020  0.51702204  1
  H  H31  1  0.52784116  0.85150980  0.98297796  1
  O  O32  1  0.19757288  0.49400873  0.10165559  1
  O  O33  1  0.69757288  0.50599127  0.39834441  1
  O  O34  1  0.80242712  0.50599127  0.89834441  1
  O  O35  1  0.30242712  0.49400873  0.60165559  1
  O  O36  1  0.33054863  0.99631464  0.86050554  1
  O  O37  1  0.83054863  0.00368536  0.63949446  1
  O  O38  1  0.66945137  0.00368536  0.13949446  1
  O  O39  1  0.16945137  0.99631464  0.36050554  1
  O  O40  1  0.64606027  0.78302778  0.05432908  1
  O  O41  1  0.14606027  0.21697222  0.44567092  1
  O  O42  1  0.35393973  0.21697222  0.94567092  1
  O  O43  1  0.85393973  0.78302778  0.55432908  1
  O  O44  1  0.97950616  0.80393450  0.88724797  1
  O  O45  1  0.47950616  0.19606550  0.61275203  1
  O  O46  1  0.02049384  0.19606550  0.11275203  1
  O  O47  1  0.52049384  0.80393450  0.38724797  1
