# generated using pymatgen
data_Te6Cl2O11
_symmetry_space_group_name_H-M   'P 1'
_cell_length_a   6.83829978
_cell_length_b   6.83829978
_cell_length_c   15.32626268
_cell_angle_alpha   90.00000000
_cell_angle_beta   90.00000000
_cell_angle_gamma   119.66890747
_symmetry_Int_Tables_number   1
_chemical_formula_structural   Te6Cl2O11
_chemical_formula_sum   'Te12 Cl4 O22'
_cell_volume   622.73383254
_cell_formula_units_Z   2
loop_
 _symmetry_equiv_pos_site_id
 _symmetry_equiv_pos_as_xyz
  1  'x, y, z'
loop_
 _atom_site_type_symbol
 _atom_site_label
 _atom_site_symmetry_multiplicity
 _atom_site_fract_x
 _atom_site_fract_y
 _atom_site_fract_z
 _atom_site_occupancy
  Te  Te0  1  0.47491488  0.78728620  0.91268775  1
  Te  Te1  1  0.52508512  0.21271380  0.41268775  1
  Te  Te2  1  0.52508512  0.21271380  0.08731225  1
  Te  Te3  1  0.47491488  0.78728620  0.58731225  1
  Te  Te4  1  0.78728620  0.47491488  0.91268775  1
  Te  Te5  1  0.21271380  0.52508512  0.41268775  1
  Te  Te6  1  0.21271380  0.52508512  0.08731225  1
  Te  Te7  1  0.78728620  0.47491488  0.58731225  1
  Te  Te8  1  0.07598278  0.07598278  0.86009374  1
  Te  Te9  1  0.92401722  0.92401722  0.36009374  1
  Te  Te10  1  0.92401722  0.92401722  0.13990626  1
  Te  Te11  1  0.07598278  0.07598278  0.63990626  1
  Cl  Cl12  1  0.13566079  0.45983865  0.75000000  1
  Cl  Cl13  1  0.86433921  0.54016135  0.25000000  1
  Cl  Cl14  1  0.45983865  0.13566079  0.75000000  1
  Cl  Cl15  1  0.54016135  0.86433921  0.25000000  1
  O  O16  1  0.57665810  0.57665810  0.88773034  1
  O  O17  1  0.42334190  0.42334190  0.38773034  1
  O  O18  1  0.42334190  0.42334190  0.11226966  1
  O  O19  1  0.57665810  0.57665810  0.61226966  1
  O  O20  1  0.18310654  0.48745648  0.96401464  1
  O  O21  1  0.81689346  0.51254352  0.46401464  1
  O  O22  1  0.81689346  0.51254352  0.03598536  1
  O  O23  1  0.18310654  0.48745648  0.53598536  1
  O  O24  1  0.48745648  0.18310654  0.96401464  1
  O  O25  1  0.51254352  0.81689346  0.46401464  1
  O  O26  1  0.51254352  0.81689346  0.03598536  1
  O  O27  1  0.48745648  0.18310654  0.53598536  1
  O  O28  1  0.03928386  0.80068659  0.90528294  1
  O  O29  1  0.96071614  0.19931341  0.40528294  1
  O  O30  1  0.96071614  0.19931341  0.09471706  1
  O  O31  1  0.03928386  0.80068659  0.59471706  1
  O  O32  1  0.06604048  0.06604048  0.25000000  1
  O  O33  1  0.93395952  0.93395952  0.75000000  1
  O  O34  1  0.80068659  0.03928386  0.59471706  1
  O  O35  1  0.19931341  0.96071614  0.09471706  1
  O  O36  1  0.19931341  0.96071614  0.40528294  1
  O  O37  1  0.80068659  0.03928386  0.90528294  1
