# generated using pymatgen
data_Na6Ca2Hf6Si5S7O48
_symmetry_space_group_name_H-M   'P 1'
_cell_length_a   18.12203002
_cell_length_b   9.09654379
_cell_length_c   23.51348846
_cell_angle_alpha   90.02700603
_cell_angle_beta   90.14129544
_cell_angle_gamma   120.11651802
_symmetry_Int_Tables_number   1
_chemical_formula_structural   Na6Ca2Hf6Si5S7O48
_chemical_formula_sum   'Na18 Ca6 Hf18 Si15 S21 O144'
_cell_volume   3352.87745330
_cell_formula_units_Z   3
loop_
 _symmetry_equiv_pos_site_id
 _symmetry_equiv_pos_as_xyz
  1  'x, y, z'
loop_
 _atom_site_type_symbol
 _atom_site_label
 _atom_site_symmetry_multiplicity
 _atom_site_fract_x
 _atom_site_fract_y
 _atom_site_fract_z
 _atom_site_occupancy
  Na  Na0  1  0.66003742  0.35207072  0.58313275  1
  Na  Na1  1  0.51947660  0.68083449  0.58659040  1
  Na  Na2  1  0.82002949  0.95906895  0.58414805  1
  Na  Na3  1  0.15864827  0.96426758  0.08701394  1
  Na  Na4  1  0.31889105  0.68213998  0.08800910  1
  Na  Na5  1  0.01984758  0.36085211  0.09058615  1
  Na  Na6  1  0.00809888  0.99115226  0.49414016  1
  Na  Na7  1  0.49157650  0.00897264  0.50120147  1
  Na  Na8  1  0.99368109  0.97670776  0.00463246  1
  Na  Na9  1  0.50542041  0.01040833  0.00078844  1
  Na  Na10  1  0.32544700  0.31844488  0.82106605  1
  Na  Na11  1  0.82566895  0.32776082  0.83580143  1
  Na  Na12  1  0.32187092  0.32016550  0.33740320  1
  Na  Na13  1  0.83343565  0.34283953  0.32440096  1
  Na  Na14  1  0.16292398  0.66458359  0.15798738  1
  Na  Na15  1  0.67617697  0.68370711  0.17359372  1
  Na  Na16  1  0.17533618  0.66670042  0.66654058  1
  Na  Na17  1  0.66451656  0.66306245  0.65109474  1
  Ca  Ca18  1  0.33176117  0.32585432  0.69037886  1
  Ca  Ca19  1  0.83150419  0.33288693  0.68500037  1
  Ca  Ca20  1  0.33145446  0.32951082  0.18646284  1
  Ca  Ca21  1  0.83213058  0.33882285  0.19166171  1
  Ca  Ca22  1  0.16594494  0.66877773  0.01489110  1
  Ca  Ca23  1  0.66620438  0.66429339  0.51443901  1
  Hf  Hf24  1  0.00220137  0.99332329  0.35622869  1
  Hf  Hf25  1  0.49916750  0.99682804  0.35317101  1
  Hf  Hf26  1  -0.00003193  0.00157201  0.85320505  1
  Hf  Hf27  1  0.50234369  0.00111512  0.85259045  1
  Hf  Hf28  1  0.00628246  0.00657256  0.64629122  1
  Hf  Hf29  1  0.49277249  0.00375859  0.64474297  1
  Hf  Hf30  1  0.99448170  0.98390480  0.14848258  1
  Hf  Hf31  1  0.50402851  0.00624650  0.14987298  1
  Hf  Hf32  1  0.32898967  0.31808171  0.98600133  1
  Hf  Hf33  1  0.83193154  0.34646099  0.97769198  1
  Hf  Hf34  1  0.33089218  0.31591179  0.47716529  1
  Hf  Hf35  1  0.83354729  0.35034234  0.48369074  1
  Hf  Hf36  1  0.67161828  0.67684063  0.01319707  1
  Hf  Hf37  1  0.16735780  0.66777105  0.50993397  1
  Hf  Hf38  1  0.16411886  0.66128120  0.31983397  1
  Hf  Hf39  1  0.67205905  0.67903243  0.31080732  1
  Hf  Hf40  1  0.17122124  0.66528948  0.80935607  1
  Hf  Hf41  1  0.67181113  0.67803310  0.81617115  1
  Si  Si42  1  0.64440390  0.99468470  0.25220895  1
  Si  Si43  1  0.85530196  0.71123370  0.25362636  1
  Si  Si44  1  0.14420427  0.29292360  0.75227893  1
  Si  Si45  1  0.35604021  0.00179228  0.75348110  1
  Si  Si46  1  0.47748967  0.33497387  0.58446895  1
  Si  Si47  1  0.68518188  0.03977921  0.58438182  1
  Si  Si48  1  0.83752226  0.63733970  0.58636666  1
  Si  Si49  1  0.97717541  0.62241001  0.08425617  1
  Si  Si50  1  0.33947793  0.03956302  0.08510632  1
  Si  Si51  1  0.18331479  0.32984792  0.08544460  1
  Si  Si52  1  0.81512732  0.67029322  0.91497178  1
  Si  Si53  1  0.66662212  0.96251985  0.91683929  1
  Si  Si54  1  0.31417836  0.95730020  0.41444230  1
  Si  Si55  1  0.16719472  0.37313726  0.41646320  1
  Si  Si56  1  0.01634023  0.65832438  0.41657950  1
  S  S57  1  0.14302010  0.99114942  0.25168378  1
  S  S58  1  0.35376460  0.71702081  0.25012787  1
  S  S59  1  0.00686064  0.29187556  0.25064292  1
  S  S60  1  0.50304109  0.29054640  0.25358707  1
  S  S61  1  0.64280830  0.29425112  0.75206659  1
  S  S62  1  0.00264247  0.71618914  0.75319886  1
  S  S63  1  0.50559577  0.71741929  0.75099536  1
  S  S64  1  0.85469460  0.99296349  0.75089491  1
  S  S65  1  0.98421531  0.33802425  0.58355278  1
  S  S66  1  0.18594199  0.03261072  0.58245292  1
  S  S67  1  0.32925706  0.62325050  0.58300535  1
  S  S68  1  0.48296192  0.62861909  0.08208526  1
  S  S69  1  0.83046556  0.03815562  0.08238619  1
  S  S70  1  0.68450992  0.33622959  0.08136828  1
  S  S71  1  0.31652649  0.66270143  0.91522503  1
  S  S72  1  0.01635866  0.36935425  0.91516487  1
  S  S73  1  0.52147691  0.37878777  0.91576644  1
  S  S74  1  0.16908809  0.96921117  0.91470127  1
  S  S75  1  0.81561196  0.96901077  0.41550106  1
  S  S76  1  0.66727886  0.36841371  0.41463635  1
  S  S77  1  0.51614814  0.66297676  0.41531987  1
  O  O78  1  0.09717809  0.00259899  0.30193211  1
  O  O79  1  0.58675301  0.00184623  0.30501587  1
  O  O80  1  0.40477672  0.81582735  0.30017666  1
  O  O81  1  0.91206811  0.82693100  0.30720986  1
  O  O82  1  0.49367951  0.18417073  0.30382922  1
  O  O83  1  0.00606409  0.19093484  0.29998685  1
  O  O84  1  0.08728295  0.17263768  0.80600163  1
  O  O85  1  0.59695888  0.18915213  0.80310391  1
  O  O86  1  0.50504519  0.81859028  0.80149672  1
  O  O87  1  0.99342023  0.80356476  0.80421334  1
  O  O88  1  0.41242788  0.00127095  0.80898017  1
  O  O89  1  0.90440565  0.99420626  0.80160049  1
  O  O90  1  0.40070558  0.96993932  0.69698002  1
  O  O91  1  0.89469903  0.97496675  0.69766188  1
  O  O92  1  0.08619071  0.19738143  0.69446650  1
  O  O93  1  0.59384440  0.20999598  0.69931963  1
  O  O94  1  0.01210616  0.81803570  0.70100528  1
  O  O95  1  0.51640283  0.81591448  0.69799339  1
  O  O96  1  0.39721938  0.81717099  0.19632890  1
  O  O97  1  0.89823080  0.82756610  0.19523505  1
  O  O98  1  0.01483914  0.21177739  0.19589558  1
  O  O99  1  0.51210418  0.20629403  0.20074469  1
  O  O100  1  0.09411649  0.98013810  0.19804107  1
  O  O101  1  0.58669593  0.97484290  0.19317239  1
  O  O102  1  0.44163498  0.38786663  0.63773939  1
  O  O103  1  0.95076263  0.36524558  0.63611447  1
  O  O104  1  0.23394387  0.10433128  0.63410970  1
  O  O105  1  0.74729716  0.11195269  0.63853244  1
  O  O106  1  0.31444309  0.52817228  0.63517359  1
  O  O107  1  0.82008837  0.52294812  0.64140914  1
  O  O108  1  0.45026268  0.53426743  0.13426528  1
  O  O109  1  0.93943526  0.49113523  0.13555848  1
  O  O110  1  0.32296187  0.12392089  0.13899747  1
  O  O111  1  0.81189358  0.09758012  0.13415051  1
  O  O112  1  0.24901618  0.38312167  0.13710370  1
  O  O113  1  0.73395600  0.36992546  0.13258990  1
  O  O114  1  0.23286899  0.29632828  0.02800917  1
  O  O115  1  0.72442596  0.30739309  0.02993781  1
  O  O116  1  0.42590641  0.54389281  0.03116160  1
  O  O117  1  0.91713639  0.52831693  0.02566018  1
  O  O118  1  0.35256156  0.16274981  0.02625385  1
  O  O119  1  0.84103041  0.14285886  0.03109196  1
  O  O120  1  0.22462539  0.13901472  0.53068680  1
  O  O121  1  0.73307053  0.16974436  0.52826920  1
  O  O122  1  0.34182877  0.54156292  0.53212500  1
  O  O123  1  0.85173483  0.54396559  0.52863190  1
  O  O124  1  0.41742275  0.31051969  0.52702595  1
  O  O125  1  0.92753860  0.30691839  0.53320485  1
  O  O126  1  0.28584875  0.69504544  0.96818332  1
  O  O127  1  0.76533012  0.68864581  0.97054438  1
  O  O128  1  0.06304667  0.42709156  0.96844816  1
  O  O129  1  0.57420185  0.45833999  0.96761001  1
  O  O130  1  0.15459048  0.88100624  0.96863196  1
  O  O131  1  0.65160334  0.83668342  0.97144548  1
  O  O132  1  0.26879976  0.84415889  0.47125276  1
  O  O133  1  0.78516400  0.87257427  0.46818211  1
  O  O134  1  0.15335075  0.46535253  0.47215361  1
  O  O135  1  0.65195018  0.42754944  0.46844317  1
  O  O136  1  0.07740887  0.69062456  0.47252781  1
  O  O137  1  0.56269935  0.69823844  0.46866729  1
  O  O138  1  0.06519485  0.63736416  0.36047010  1
  O  O139  1  0.56159919  0.64018176  0.36650267  1
  O  O140  1  0.25465650  0.86646487  0.35825631  1
  O  O141  1  0.75690247  0.87028723  0.36654188  1
  O  O142  1  0.18258907  0.49432731  0.36031758  1
  O  O143  1  0.67537957  0.47977214  0.36579766  1
  O  O144  1  0.06170130  0.48345890  0.86652865  1
  O  O145  1  0.56342704  0.48240920  0.86444271  1
  O  O146  1  0.17785786  0.87581114  0.86589850  1
  O  O147  1  0.67737842  0.86259418  0.86097267  1
  O  O148  1  0.25830866  0.64157800  0.86636443  1
  O  O149  1  0.75390572  0.64316824  0.85919680  1
  O  O150  1  0.00664839  0.82878558  0.41030385  1
  O  O151  1  0.50304642  0.81107519  0.40462456  1
  O  O152  1  0.41036071  0.98253887  0.40876882  1
  O  O153  1  0.90215005  0.99544484  0.40450192  1
  O  O154  1  0.08252081  0.18526431  0.40882368  1
  O  O155  1  0.59184031  0.19406769  0.40485161  1
  O  O156  1  0.00280261  0.19483859  0.90437865  1
  O  O157  1  0.51201763  0.20644813  0.91011859  1
  O  O158  1  0.09425217  0.99441085  0.90530660  1
  O  O159  1  0.58206436  0.98371763  0.91050759  1
  O  O160  1  0.40342903  0.81303393  0.90491364  1
  O  O161  1  0.90994863  0.83848929  0.90951232  1
  O  O162  1  0.48112363  0.15327025  0.59049121  1
  O  O163  1  0.98836007  0.17442349  0.58857597  1
  O  O164  1  0.09860261  0.01749343  0.58757370  1
  O  O165  1  0.59066582  0.03075117  0.59277898  1
  O  O166  1  0.41309336  0.79360889  0.58793492  1
  O  O167  1  0.92420137  0.83244351  0.59193877  1
  O  O168  1  0.48835212  0.79997429  0.08630258  1
  O  O169  1  0.98205483  0.81142471  0.09100684  1
  O  O170  1  0.42583471  0.01648593  0.08932773  1
  O  O171  1  0.91212418  0.03092926  0.08688334  1
  O  O172  1  0.09010219  0.15088616  0.09126754  1
  O  O173  1  0.59816885  0.17716885  0.08718854  1
  O  O174  1  0.34661292  0.16548697  0.75468767  1
  O  O175  1  0.84778678  0.14512611  0.75204167  1
  O  O176  1  0.23826268  0.32463683  0.75322773  1
  O  O177  1  0.72756135  0.31314864  0.75283715  1
  O  O178  1  0.42805527  0.55423884  0.75243547  1
  O  O179  1  0.92922100  0.54566837  0.75116726  1
  O  O180  1  0.35038906  0.55387517  0.25025710  1
  O  O181  1  0.84479038  0.52759470  0.25419538  1
  O  O182  1  0.42948395  0.31314702  0.25049143  1
  O  O183  1  0.93010168  0.30360754  0.25020709  1
  O  O184  1  0.22744526  0.14393263  0.25147167  1
  O  O185  1  0.73831053  0.15137037  0.25286490  1
  O  O186  1  0.32537686  0.50840606  0.91869236  1
  O  O187  1  0.82148895  0.49707930  0.92143653  1
  O  O188  1  0.43664901  0.36323052  0.92218793  1
  O  O189  1  0.92943063  0.35023953  0.91916300  1
  O  O190  1  0.24833921  0.14285345  0.91786605  1
  O  O191  1  0.75272130  0.14574001  0.92587687  1
  O  O192  1  0.32300021  0.14640974  0.42170122  1
  O  O193  1  0.82016854  0.13560132  0.41874672  1
  O  O194  1  0.25250217  0.35688352  0.42641844  1
  O  O195  1  0.74551243  0.35306648  0.41763485  1
  O  O196  1  0.42935983  0.50883091  0.41909452  1
  O  O197  1  0.92314977  0.48667889  0.42488562  1
  O  O198  1  0.16603853  0.48437035  0.07426556  1
  O  O199  1  0.66829850  0.48029506  0.07012909  1
  O  O200  1  0.07577621  0.67153746  0.07530595  1
  O  O201  1  0.56919234  0.65285091  0.07115558  1
  O  O202  1  0.25880912  0.85199673  0.07526999  1
  O  O203  1  0.75786376  0.85755348  0.07265597  1
  O  O204  1  0.17165648  0.85777571  0.57441247  1
  O  O205  1  0.66526790  0.84773024  0.57418954  1
  O  O206  1  0.25822364  0.65998067  0.57479279  1
  O  O207  1  0.75776905  0.66699868  0.57643651  1
  O  O208  1  0.07145516  0.48272191  0.57440586  1
  O  O209  1  0.57615424  0.48099823  0.57548694  1
  O  O210  1  0.14859392  0.83351718  0.25379415  1
  O  O211  1  0.64239465  0.80856518  0.25880606  1
  O  O212  1  0.26856752  0.70145281  0.25191130  1
  O  O213  1  0.75845790  0.69692222  0.25875772  1
  O  O214  1  0.08555636  0.46558857  0.25339375  1
  O  O215  1  0.58368048  0.45703819  0.25872092  1
  O  O216  1  0.14314429  0.47640751  0.75910844  1
  O  O217  1  0.64676021  0.46193182  0.75766974  1
  O  O218  1  0.08329138  0.71017265  0.75955633  1
  O  O219  1  0.58316837  0.69811723  0.75737858  1
  O  O220  1  0.25996765  0.82258016  0.75973194  1
  O  O221  1  0.76775026  0.83571781  0.75494099  1
