# generated using pymatgen
data_MgMn3Cd2O8
_symmetry_space_group_name_H-M   'P 1'
_cell_length_a   5.28493346
_cell_length_b   6.23708003
_cell_length_c   5.81084254
_cell_angle_alpha   120.32547022
_cell_angle_beta   92.52465936
_cell_angle_gamma   87.34406088
_symmetry_Int_Tables_number   1
_chemical_formula_structural   MgMn3Cd2O8
_chemical_formula_sum   'Mg1 Mn3 Cd2 O8'
_cell_volume   165.10700437
_cell_formula_units_Z   1
loop_
 _symmetry_equiv_pos_site_id
 _symmetry_equiv_pos_as_xyz
  1  'x, y, z'
loop_
 _atom_site_type_symbol
 _atom_site_label
 _atom_site_symmetry_multiplicity
 _atom_site_fract_x
 _atom_site_fract_y
 _atom_site_fract_z
 _atom_site_occupancy
  Mg  Mg0  1  0.00000340  0.00000203  0.50002012  1
  Mn  Mn1  1  0.49994634  -0.00003013  -0.00004671  1
  Mn  Mn2  1  0.98261889  0.72064689  0.94628052  1
  Mn  Mn3  1  0.01741186  0.27928083  0.05361859  1
  Cd  Cd4  1  0.52374473  0.67862107  0.36950726  1
  Cd  Cd5  1  0.47624332  0.32139503  0.63051884  1
  O  O6  1  0.08221631  0.37503521  0.74583332  1
  O  O7  1  0.91776855  0.62497503  0.25415984  1
  O  O8  1  0.18348062  0.94987297  0.79557801  1
  O  O9  1  0.81656066  0.05015198  0.20447250  1
  O  O10  1  0.34952674  0.32038153  0.23931316  1
  O  O11  1  0.30667124  0.87386495  0.19550187  1
  O  O12  1  0.69333428  0.12614719  0.80452052  1
  O  O13  1  0.65047806  0.67965540  0.76072415  1
