# generated using pymatgen
data_Cd3PCl3
_symmetry_space_group_name_H-M   'P 1'
_cell_length_a   7.69377032
_cell_length_b   7.69377180
_cell_length_c   7.16850952
_cell_angle_alpha   90.00000000
_cell_angle_beta   90.00000000
_cell_angle_gamma   119.99999803
_symmetry_Int_Tables_number   1
_chemical_formula_structural   Cd3PCl3
_chemical_formula_sum   'Cd6 P2 Cl6'
_cell_volume   367.48365282
_cell_formula_units_Z   2
loop_
 _symmetry_equiv_pos_site_id
 _symmetry_equiv_pos_as_xyz
  1  'x, y, z'
loop_
 _atom_site_type_symbol
 _atom_site_label
 _atom_site_symmetry_multiplicity
 _atom_site_fract_x
 _atom_site_fract_y
 _atom_site_fract_z
 _atom_site_occupancy
  Cd  Cd0  1  0.66666700  0.33333300  0.48868385  1
  Cd  Cd1  1  0.33333300  0.66666700  0.51131615  1
  Cd  Cd2  1  0.50000000  0.50000000  -0.00000000  1
  Cd  Cd3  1  0.00000000  0.50000000  -0.00000000  1
  Cd  Cd4  1  0.50000000  -0.00000000  -0.00000000  1
  Cd  Cd5  1  0.00000000  -0.00000000  0.50000000  1
  P  P6  1  0.66666700  0.33333300  0.14553814  1
  P  P7  1  0.33333300  0.66666700  0.85446186  1
  Cl  Cl8  1  0.34055660  0.17020181  0.69432056  1
  Cl  Cl9  1  0.82964321  0.65944340  0.69432056  1
  Cl  Cl10  1  0.65944340  0.82979819  0.30567944  1
  Cl  Cl11  1  0.17035679  0.34055660  0.30567944  1
  Cl  Cl12  1  0.17020181  0.82964321  0.30567944  1
  Cl  Cl13  1  0.82979819  0.17035679  0.69432056  1
