# generated using pymatgen
data_MgV4O7F5
_symmetry_space_group_name_H-M   'P 1'
_cell_length_a   5.17284275
_cell_length_b   5.47810671
_cell_length_c   8.93929263
_cell_angle_alpha   72.13999076
_cell_angle_beta   91.20250849
_cell_angle_gamma   118.69475367
_symmetry_Int_Tables_number   1
_chemical_formula_structural   MgV4O7F5
_chemical_formula_sum   'Mg1 V4 O7 F5'
_cell_volume   209.06529219
_cell_formula_units_Z   1
loop_
 _symmetry_equiv_pos_site_id
 _symmetry_equiv_pos_as_xyz
  1  'x, y, z'
loop_
 _atom_site_type_symbol
 _atom_site_label
 _atom_site_symmetry_multiplicity
 _atom_site_fract_x
 _atom_site_fract_y
 _atom_site_fract_z
 _atom_site_occupancy
  Mg  Mg0  1  0.53110500  0.07655800  0.15824200  1
  V  V1  1  0.78823100  0.53957300  0.75454900  1
  V  V2  1  0.96008200  0.00718800  0.98571300  1
  V  V3  1  0.56094500  0.02336400  0.50790200  1
  V  V4  1  0.24589200  0.43884200  0.23790800  1
  O  O5  1  0.92310000  0.24055600  0.42422200  1
  O  O6  1  0.92541700  0.25156400  0.82500900  1
  O  O7  1  0.43299600  0.22768000  0.31581900  1
  O  O8  1  0.57189100  0.75268200  0.66209100  1
  O  O9  1  0.55661000  0.75174900  0.08819400  1
  O  O10  1  0.98189300  0.23182900  0.12722100  1
  O  O11  1  0.94321000  0.73443900  0.87747100  1
  F  F12  1  0.54278700  0.25813700  0.62263700  1
  F  F13  1  0.43008600  0.23939100  0.93970000  1
  F  F14  1  0.47425700  0.76636700  0.37422600  1
  F  F15  1  0.09169300  0.77190600  0.16744100  1
  F  F16  1  0.09005600  0.77589400  0.57238500  1
