# generated using pymatgen
data_Si2Pb3O7
_symmetry_space_group_name_H-M   'P 1'
_cell_length_a   14.17450676
_cell_length_b   14.17450676
_cell_length_c   14.17450745
_cell_angle_alpha   41.90231586
_cell_angle_beta   41.90231586
_cell_angle_gamma   41.90231189
_symmetry_Int_Tables_number   1
_chemical_formula_structural   Si2Pb3O7
_chemical_formula_sum   'Si12 Pb18 O42'
_cell_volume   1148.82976983
_cell_formula_units_Z   6
loop_
 _symmetry_equiv_pos_site_id
 _symmetry_equiv_pos_as_xyz
  1  'x, y, z'
loop_
 _atom_site_type_symbol
 _atom_site_label
 _atom_site_symmetry_multiplicity
 _atom_site_fract_x
 _atom_site_fract_y
 _atom_site_fract_z
 _atom_site_occupancy
  Si  Si0  1  0.05725861  0.44437555  0.85291801  1
  Si  Si1  1  0.85291801  0.05725861  0.44437555  1
  Si  Si2  1  0.44437555  0.85291801  0.05725861  1
  Si  Si3  1  0.44274139  0.64708199  0.05562445  1
  Si  Si4  1  0.05562445  0.44274139  0.64708199  1
  Si  Si5  1  0.64708199  0.05562445  0.44274139  1
  Si  Si6  1  0.94274139  0.55562445  0.14708199  1
  Si  Si7  1  0.14708199  0.94274139  0.55562445  1
  Si  Si8  1  0.55562445  0.14708199  0.94274139  1
  Si  Si9  1  0.55725861  0.35291801  0.94437555  1
  Si  Si10  1  0.94437555  0.55725861  0.35291801  1
  Si  Si11  1  0.35291801  0.94437555  0.55725861  1
  Pb  Pb12  1  0.25000000  0.25000000  0.25000000  1
  Pb  Pb13  1  0.75000000  0.75000000  0.75000000  1
  Pb  Pb14  1  0.15973485  0.15973485  0.15973485  1
  Pb  Pb15  1  0.34026515  0.34026515  0.34026515  1
  Pb  Pb16  1  0.84026515  0.84026515  0.84026515  1
  Pb  Pb17  1  0.65973485  0.65973485  0.65973485  1
  Pb  Pb18  1  0.79533693  0.30811452  0.01093570  1
  Pb  Pb19  1  0.01093570  0.79533693  0.30811452  1
  Pb  Pb20  1  0.30811452  0.01093570  0.79533693  1
  Pb  Pb21  1  0.70466307  0.48906430  0.19188548  1
  Pb  Pb22  1  0.19188548  0.70466307  0.48906430  1
  Pb  Pb23  1  0.48906430  0.19188548  0.70466307  1
  Pb  Pb24  1  0.20466307  0.69188548  0.98906430  1
  Pb  Pb25  1  0.98906430  0.20466307  0.69188548  1
  Pb  Pb26  1  0.69188548  0.98906430  0.20466307  1
  Pb  Pb27  1  0.29533693  0.51093570  0.80811452  1
  Pb  Pb28  1  0.80811452  0.29533693  0.51093570  1
  Pb  Pb29  1  0.51093570  0.80811452  0.29533693  1
  O  O30  1  0.91561723  0.39450106  0.01640404  1
  O  O31  1  0.01640404  0.91561723  0.39450106  1
  O  O32  1  0.39450106  0.01640404  0.91561723  1
  O  O33  1  0.58438277  0.48359596  0.10549894  1
  O  O34  1  0.10549894  0.58438277  0.48359596  1
  O  O35  1  0.48359596  0.10549894  0.58438277  1
  O  O36  1  0.08438277  0.60549894  0.98359596  1
  O  O37  1  0.98359596  0.08438277  0.60549894  1
  O  O38  1  0.60549894  0.98359596  0.08438277  1
  O  O39  1  0.41561723  0.51640404  0.89450106  1
  O  O40  1  0.89450106  0.41561723  0.51640404  1
  O  O41  1  0.51640404  0.89450106  0.41561723  1
  O  O42  1  0.00658344  0.36605263  0.24958096  1
  O  O43  1  0.24958096  0.00658344  0.36605263  1
  O  O44  1  0.36605263  0.24958096  0.00658344  1
  O  O45  1  0.49341656  0.25041904  0.13394737  1
  O  O46  1  0.13394737  0.49341656  0.25041904  1
  O  O47  1  0.12294826  0.80399619  0.62286487  1
  O  O48  1  0.25041904  0.13394737  0.49341656  1
  O  O49  1  0.75041904  0.99341656  0.63394737  1
  O  O50  1  0.63394737  0.75041904  0.99341656  1
  O  O51  1  0.50658344  0.74958096  0.86605263  1
  O  O52  1  0.86605263  0.50658344  0.74958096  1
  O  O53  1  0.74958096  0.86605263  0.50658344  1
  O  O54  1  0.87705174  0.19600381  0.37713513  1
  O  O55  1  0.37713513  0.87705174  0.19600381  1
  O  O56  1  0.19600381  0.37713513  0.87705174  1
  O  O57  1  0.62294826  0.12286487  0.30399619  1
  O  O58  1  0.30399619  0.62294826  0.12286487  1
  O  O59  1  0.12286487  0.30399619  0.62294826  1
  O  O60  1  0.13196125  0.36803875  0.75000000  1
  O  O61  1  0.36803875  0.75000000  0.13196125  1
  O  O62  1  0.75000000  0.13196125  0.36803875  1
  O  O63  1  0.86803875  0.63196125  0.25000000  1
  O  O64  1  0.63196125  0.25000000  0.86803875  1
  O  O65  1  0.25000000  0.86803875  0.63196125  1
  O  O66  1  0.87713513  0.69600381  0.37705174  1
  O  O67  1  0.69600381  0.37705174  0.87713513  1
  O  O68  1  0.37705174  0.87713513  0.69600381  1
  O  O69  1  0.80399619  0.62286487  0.12294826  1
  O  O70  1  0.62286487  0.12294826  0.80399619  1
  O  O71  1  0.99341656  0.63394737  0.75041904  1
