# generated using pymatgen
data_MgVBO4
_symmetry_space_group_name_H-M   'P 1'
_cell_length_a   4.75702100
_cell_length_b   4.86276570
_cell_length_c   4.75702100
_cell_angle_alpha   60.71677526
_cell_angle_beta   90.00000000
_cell_angle_gamma   119.28319772
_symmetry_Int_Tables_number   1
_chemical_formula_structural   MgVBO4
_chemical_formula_sum   'Mg1 V1 B1 O4'
_cell_volume   79.46661252
_cell_formula_units_Z   1
loop_
 _symmetry_equiv_pos_site_id
 _symmetry_equiv_pos_as_xyz
  1  'x, y, z'
loop_
 _atom_site_type_symbol
 _atom_site_label
 _atom_site_symmetry_multiplicity
 _atom_site_fract_x
 _atom_site_fract_y
 _atom_site_fract_z
 _atom_site_occupancy
  Mg  Mg0  1  0.50000000  0.00000000  0.50000000  1
  V  V1  1  0.00000000  0.00000000  0.00000000  1
  B  B2  1  0.75000000  0.50000000  0.75000000  1
  O  O3  1  0.44382700  0.26501000  0.04730200  1
  O  O4  1  0.68768700  0.73499000  0.44382700  1
  O  O5  1  0.82118500  0.26501000  0.68768700  1
  O  O6  1  0.04730200  0.73499000  0.82118500  1
