# generated using pymatgen
data_Sb2(S2O7)3
_symmetry_space_group_name_H-M   'P 1'
_cell_length_a   6.63488169
_cell_length_b   9.64175479
_cell_length_c   12.39444862
_cell_angle_alpha   87.32176936
_cell_angle_beta   83.06227624
_cell_angle_gamma   82.80252692
_symmetry_Int_Tables_number   1
_chemical_formula_structural   Sb2(S2O7)3
_chemical_formula_sum   'Sb4 S12 O42'
_cell_volume   780.48690047
_cell_formula_units_Z   2
loop_
 _symmetry_equiv_pos_site_id
 _symmetry_equiv_pos_as_xyz
  1  'x, y, z'
loop_
 _atom_site_type_symbol
 _atom_site_label
 _atom_site_symmetry_multiplicity
 _atom_site_fract_x
 _atom_site_fract_y
 _atom_site_fract_z
 _atom_site_occupancy
  Sb  Sb0  1  0.73830340  0.58658494  0.24070694  1
  Sb  Sb1  1  0.26169660  0.41341506  0.75929306  1
  Sb  Sb2  1  0.28123432  0.09444720  0.21182109  1
  Sb  Sb3  1  0.71876568  0.90555280  0.78817891  1
  S  S4  1  0.21329547  0.47382969  0.28878696  1
  S  S5  1  0.78670453  0.52617031  0.71121304  1
  S  S6  1  0.92981329  0.31165974  0.40627023  1
  S  S7  1  0.07018671  0.68834026  0.59372977  1
  S  S8  1  0.58303716  0.82343159  0.42189655  1
  S  S9  1  0.41696284  0.17656841  0.57810345  1
  S  S10  1  0.84221921  0.93721806  0.25571951  1
  S  S11  1  0.15778079  0.06278194  0.74428049  1
  S  S12  1  0.60664331  0.19852882  0.95677641  1
  S  S13  1  0.39335669  0.80147118  0.04322359  1
  S  S14  1  0.96312981  0.27443055  0.04538024  1
  S  S15  1  0.03687019  0.72556945  0.95461976  1
  O  O16  1  0.05285357  0.58775123  0.26225614  1
  O  O17  1  0.94714643  0.41224877  0.73774386  1
  O  O18  1  0.38976930  0.52777784  0.31601047  1
  O  O19  1  0.61023070  0.47222216  0.68398953  1
  O  O20  1  0.24279563  0.36589104  0.21041209  1
  O  O21  1  0.75720437  0.63410896  0.78958791  1
  O  O22  1  0.12102392  0.40729299  0.40264430  1
  O  O23  1  0.87897608  0.59270701  0.59735570  1
  O  O24  1  0.87136055  0.29172435  0.51828392  1
  O  O25  1  0.12863945  0.70827565  0.48171608  1
  O  O26  1  0.01404998  0.18793936  0.34673124  1
  O  O27  1  0.98595002  0.81206064  0.65326876  1
  O  O28  1  0.77928534  0.40031180  0.34732526  1
  O  O29  1  0.22071466  0.59968820  0.65267474  1
  O  O30  1  0.66836326  0.67594241  0.39380897  1
  O  O31  1  0.33163674  0.32405759  0.60619103  1
  O  O32  1  0.91281558  0.84479114  0.90279915  1
  O  O33  1  0.08718442  0.15520886  0.09720085  1
  O  O34  1  0.18628981  0.65096234  0.87955521  1
  O  O35  1  0.81371019  0.34903766  0.12044479  1
  O  O36  1  0.91503374  0.64700640  0.03046466  1
  O  O37  1  0.08496626  0.35299360  0.96953534  1
  O  O38  1  0.15253974  0.82399427  0.02484699  1
  O  O39  1  0.84746026  0.17600573  0.97515301  1
  O  O40  1  0.50847555  0.79756967  0.93768814  1
  O  O41  1  0.49152445  0.20243033  0.06231186  1
  O  O42  1  0.42447463  0.67852632  0.11053634  1
  O  O43  1  0.57552537  0.32147368  0.88946366  1
  O  O44  1  0.40410736  0.93176438  0.09796453  1
  O  O45  1  0.59589264  0.06823562  0.90203547  1
  O  O46  1  0.93599739  0.05896445  0.75119252  1
  O  O47  1  0.06400261  0.94103555  0.24880748  1
  O  O48  1  0.20139580  0.18577088  0.79741770  1
  O  O49  1  0.79860420  0.81422912  0.20258230  1
  O  O50  1  0.27472835  0.93673365  0.77514579  1
  O  O51  1  0.72527165  0.06326635  0.22485421  1
  O  O52  1  0.21504890  0.09239539  0.61619819  1
  O  O53  1  0.78495110  0.90760461  0.38380181  1
  O  O54  1  0.44811851  0.16202001  0.46430264  1
  O  O55  1  0.55188149  0.83797999  0.53569736  1
  O  O56  1  0.57034667  0.12034862  0.64480014  1
  O  O57  1  0.42965333  0.87965138  0.35519986  1
