# generated using pymatgen
data_Na9Ca4Ta2(PO4)9
_symmetry_space_group_name_H-M   'P 1'
_cell_length_a   15.98082573
_cell_length_b   27.74500830
_cell_length_c   9.18898054
_cell_angle_alpha   90.05397929
_cell_angle_beta   125.25847882
_cell_angle_gamma   89.93903929
_symmetry_Int_Tables_number   1
_chemical_formula_structural   Na9Ca4Ta2(PO4)9
_chemical_formula_sum   'Na36 Ca16 Ta8 P36 O144'
_cell_volume   3326.88028722
_cell_formula_units_Z   4
loop_
 _symmetry_equiv_pos_site_id
 _symmetry_equiv_pos_as_xyz
  1  'x, y, z'
loop_
 _atom_site_type_symbol
 _atom_site_label
 _atom_site_symmetry_multiplicity
 _atom_site_fract_x
 _atom_site_fract_y
 _atom_site_fract_z
 _atom_site_occupancy
  Na  Na0  1  0.26325093  0.25164815  0.01440805  1
  Na  Na1  1  0.25421706  0.58145294  0.01010899  1
  Na  Na2  1  0.25105724  0.91579038  0.01330094  1
  Na  Na3  1  0.75668544  0.24939465  0.50707929  1
  Na  Na4  1  0.77158022  0.60390249  0.52409753  1
  Na  Na5  1  0.74689674  0.90296978  0.51185624  1
  Na  Na6  1  0.75421706  0.08145294  0.01010899  1
  Na  Na7  1  0.75105724  0.41579038  0.01330094  1
  Na  Na8  1  0.76325093  0.75164815  0.01440805  1
  Na  Na9  1  0.27158022  0.10390249  0.52409753  1
  Na  Na10  1  0.24689674  0.40296978  0.51185624  1
  Na  Na11  1  0.25668544  0.74939465  0.50707929  1
  Na  Na12  1  0.50472380  0.03957168  0.77262771  1
  Na  Na13  1  0.50841167  0.37504126  0.78060286  1
  Na  Na14  1  0.50469970  0.69878349  0.78728084  1
  Na  Na15  1  0.50542854  0.30188505  0.27109832  1
  Na  Na16  1  0.49520776  0.63630225  0.26102189  1
  Na  Na17  1  0.50063956  0.97223221  0.27293512  1
  Na  Na18  1  0.00469970  0.19878349  0.78728084  1
  Na  Na19  1  0.00472380  0.53957168  0.77262771  1
  Na  Na20  1  0.00841167  0.87504126  0.78060286  1
  Na  Na21  1  0.99520776  0.13630225  0.26102189  1
  Na  Na22  1  0.00063956  0.47223221  0.27293512  1
  Na  Na23  1  0.00542854  0.80188505  0.27109832  1
  Na  Na24  1  0.83342369  0.97629811  0.23997988  1
  Na  Na25  1  0.17728752  0.63426744  0.26337803  1
  Na  Na26  1  0.18857501  0.96977953  0.30736250  1
  Na  Na27  1  0.17991259  0.68884867  0.74623975  1
  Na  Na28  1  0.80749557  0.02093038  0.74364205  1
  Na  Na29  1  0.80775236  0.35656147  0.72244440  1
  Na  Na30  1  0.33342369  0.47629811  0.23997988  1
  Na  Na31  1  0.67728752  0.13426744  0.26337803  1
  Na  Na32  1  0.68857501  0.46977953  0.30736250  1
  Na  Na33  1  0.67991259  0.18884867  0.74623975  1
  Na  Na34  1  0.30749557  0.52093038  0.74364205  1
  Na  Na35  1  0.30775236  0.85656147  0.72244440  1
  Ca  Ca36  1  0.08871045  0.58418070  0.54682496  1
  Ca  Ca37  1  0.09469930  0.92208594  0.55880802  1
  Ca  Ca38  1  0.89565627  0.25095479  0.94970443  1
  Ca  Ca39  1  0.89695269  0.58219920  0.95686061  1
  Ca  Ca40  1  0.89049080  0.91819087  0.94583856  1
  Ca  Ca41  1  0.90618390  0.07986702  0.45913717  1
  Ca  Ca42  1  0.89439649  0.41502041  0.44495959  1
  Ca  Ca43  1  0.89651721  0.74722419  0.43274411  1
  Ca  Ca44  1  0.58871045  0.08418070  0.54682496  1
  Ca  Ca45  1  0.59469930  0.42208594  0.55880802  1
  Ca  Ca46  1  0.39695269  0.08219920  0.95686061  1
  Ca  Ca47  1  0.39049080  0.41819087  0.94583856  1
  Ca  Ca48  1  0.39565627  0.75095479  0.94970443  1
  Ca  Ca49  1  0.39651721  0.24722419  0.43274411  1
  Ca  Ca50  1  0.40618390  0.57986702  0.45913717  1
  Ca  Ca51  1  0.39439649  0.91502041  0.44495959  1
  Ta  Ta52  1  0.10100775  0.25281976  0.54393193  1
  Ta  Ta53  1  0.09927888  0.08667045  0.03325429  1
  Ta  Ta54  1  0.10517633  0.40953934  0.04946965  1
  Ta  Ta55  1  0.09931386  0.74994748  0.04957402  1
  Ta  Ta56  1  0.60100775  0.75281976  0.54393193  1
  Ta  Ta57  1  0.59931386  0.24994748  0.04957402  1
  Ta  Ta58  1  0.59927888  0.58667045  0.03325429  1
  Ta  Ta59  1  0.60517633  0.90953934  0.04946965  1
  P  P60  1  0.00001628  0.31530386  0.73623321  1
  P  P61  1  0.00991992  0.65097244  0.76723085  1
  P  P62  1  0.00180358  0.98483127  0.73889039  1
  P  P63  1  0.99476714  0.02136471  0.21253033  1
  P  P64  1  0.99888662  0.35038047  0.23131896  1
  P  P65  1  0.01795337  0.68526220  0.26610548  1
  P  P66  1  0.50991992  0.15097244  0.76723085  1
  P  P67  1  0.50180358  0.48483127  0.73889039  1
  P  P68  1  0.50001628  0.81530386  0.73623321  1
  P  P69  1  0.51795337  0.18526220  0.26610548  1
  P  P70  1  0.49476714  0.52136471  0.21253033  1
  P  P71  1  0.49888662  0.85038047  0.23131896  1
  P  P72  1  0.34812088  0.29551004  0.74019671  1
  P  P73  1  0.34491465  0.63066979  0.74490334  1
  P  P74  1  0.35295512  0.95974553  0.76402543  1
  P  P75  1  0.64097815  0.30019694  0.73649076  1
  P  P76  1  0.64298494  0.64032122  0.73312897  1
  P  P77  1  0.64313479  0.96569300  0.74392811  1
  P  P78  1  0.64996085  0.02543716  0.23844053  1
  P  P79  1  0.64176298  0.36491857  0.23134307  1
  P  P80  1  0.64221665  0.69831625  0.23804230  1
  P  P81  1  0.34714386  0.03624069  0.27170067  1
  P  P82  1  0.35725224  0.37019186  0.27916648  1
  P  P83  1  0.34508082  0.70318460  0.24630932  1
  P  P84  1  0.84491465  0.13066979  0.74490334  1
  P  P85  1  0.85295512  0.45974553  0.76402543  1
  P  P86  1  0.84812088  0.79551004  0.74019671  1
  P  P87  1  0.14298494  0.14032122  0.73312897  1
  P  P88  1  0.14313479  0.46569300  0.74392811  1
  P  P89  1  0.14097815  0.80019694  0.73649076  1
  P  P90  1  0.14221665  0.19831625  0.23804230  1
  P  P91  1  0.14996085  0.52543716  0.23844053  1
  P  P92  1  0.14176298  0.86491857  0.23134307  1
  P  P93  1  0.84508082  0.20318460  0.24630932  1
  P  P94  1  0.84714386  0.53624069  0.27170067  1
  P  P95  1  0.85725224  0.87019186  0.27916648  1
  O  O96  1  0.13961748  0.19802828  0.72445895  1
  O  O97  1  0.16476231  0.51992005  0.79009169  1
  O  O98  1  0.15676852  0.85434916  0.77635364  1
  O  O99  1  0.83780228  0.18609544  0.73680271  1
  O  O100  1  0.85995416  0.51458698  0.77312411  1
  O  O101  1  0.84339117  0.84917163  0.76811422  1
  O  O102  1  0.83672054  0.15103911  0.29058432  1
  O  O103  1  0.81712070  0.48368339  0.26922606  1
  O  O104  1  0.84862580  0.81663142  0.23089638  1
  O  O105  1  0.14407348  0.14101065  0.24068434  1
  O  O106  1  0.14961552  0.46795251  0.21318250  1
  O  O107  1  0.14333899  0.80793913  0.20304297  1
  O  O108  1  0.66476231  0.01992005  0.79009169  1
  O  O109  1  0.65676852  0.35434916  0.77635364  1
  O  O110  1  0.63961748  0.69802828  0.72445895  1
  O  O111  1  0.35995416  0.01458698  0.77312411  1
  O  O112  1  0.34339117  0.34917163  0.76811422  1
  O  O113  1  0.33780228  0.68609544  0.73680271  1
  O  O114  1  0.34862580  0.31663142  0.23089638  1
  O  O115  1  0.33672054  0.65103911  0.29058432  1
  O  O116  1  0.31712070  0.98368339  0.26922606  1
  O  O117  1  0.64333899  0.30793913  0.20304297  1
  O  O118  1  0.64407348  0.64101065  0.24068434  1
  O  O119  1  0.64961552  0.96795251  0.21318250  1
  O  O120  1  0.46915925  0.18397560  0.60970203  1
  O  O121  1  0.45710318  0.50335857  0.55103274  1
  O  O122  1  0.42603040  0.84566987  0.57796361  1
  O  O123  1  0.56568915  0.18616748  0.94128696  1
  O  O124  1  0.54564497  0.53329124  0.86729764  1
  O  O125  1  0.56681314  0.84839372  0.90705985  1
  O  O126  1  0.59224225  0.16524303  0.45652712  1
  O  O127  1  0.56236682  0.48514053  0.36144222  1
  O  O128  1  0.55670475  0.80959206  0.38649990  1
  O  O129  1  0.48509481  0.14437405  0.13423184  1
  O  O130  1  0.41485532  0.49723691  0.03581610  1
  O  O131  1  0.42467077  0.82555116  0.05525739  1
  O  O132  1  0.95710318  0.00335857  0.55103274  1
  O  O133  1  0.92603040  0.34566987  0.57796361  1
  O  O134  1  0.96915925  0.68397560  0.60970203  1
  O  O135  1  0.04564497  0.03329124  0.86729764  1
  O  O136  1  0.06681314  0.34839372  0.90705985  1
  O  O137  1  0.06568915  0.68616748  0.94128696  1
  O  O138  1  0.05670475  0.30959206  0.38649990  1
  O  O139  1  0.09224225  0.66524303  0.45652712  1
  O  O140  1  0.06236682  0.98514053  0.36144222  1
  O  O141  1  0.92467077  0.32555116  0.05525739  1
  O  O142  1  0.98509481  0.64437405  0.13423184  1
  O  O143  1  0.91485532  0.99723691  0.03581610  1
  O  O144  1  0.24993761  0.27078452  0.71730795  1
  O  O145  1  0.27423699  0.60682964  0.78673324  1
  O  O146  1  0.28181118  0.93674156  0.80562223  1
  O  O147  1  0.73312521  0.27662989  0.75078532  1
  O  O148  1  0.74179553  0.62087384  0.77167705  1
  O  O149  1  0.72555427  0.94193427  0.73184464  1
  O  O150  1  0.74681970  0.04507293  0.25824158  1
  O  O151  1  0.73100175  0.38895119  0.24201207  1
  O  O152  1  0.73504539  0.71845583  0.25648469  1
  O  O153  1  0.24023630  0.06554324  0.17676660  1
  O  O154  1  0.24756158  0.38873312  0.22513717  1
  O  O155  1  0.25621146  0.73278672  0.23064407  1
  O  O156  1  0.77423699  0.10682964  0.78673324  1
  O  O157  1  0.78181118  0.43674156  0.80562223  1
  O  O158  1  0.74993761  0.77078452  0.71730795  1
  O  O159  1  0.24179553  0.12087384  0.77167705  1
  O  O160  1  0.22555427  0.44193427  0.73184464  1
  O  O161  1  0.23312521  0.77662989  0.75078532  1
  O  O162  1  0.23504539  0.21845583  0.25648469  1
  O  O163  1  0.24681970  0.54507293  0.25824158  1
  O  O164  1  0.23100175  0.88895119  0.24201207  1
  O  O165  1  0.75621146  0.23278672  0.23064407  1
  O  O166  1  0.74023630  0.56554324  0.17676660  1
  O  O167  1  0.74756158  0.88873312  0.22513717  1
  O  O168  1  0.34576919  0.28435553  0.57896836  1
  O  O169  1  0.32624892  0.60954250  0.57555522  1
  O  O170  1  0.32522119  0.94049343  0.58572129  1
  O  O171  1  0.62757694  0.27626663  0.88434099  1
  O  O172  1  0.63005675  0.62953432  0.89020704  1
  O  O173  1  0.64340179  0.94150125  0.90519150  1
  O  O174  1  0.64948629  0.03253248  0.40531787  1
  O  O175  1  0.64435858  0.36923389  0.40176521  1
  O  O176  1  0.63372620  0.71321229  0.40045403  1
  O  O177  1  0.39046437  0.04132940  0.16133427  1
  O  O178  1  0.38075450  0.40219429  0.17076757  1
  O  O179  1  0.33924520  0.70454415  0.07532307  1
  O  O180  1  0.82624892  0.10954250  0.57555522  1
  O  O181  1  0.82522119  0.44049343  0.58572129  1
  O  O182  1  0.84576919  0.78435553  0.57896836  1
  O  O183  1  0.13005675  0.12953432  0.89020704  1
  O  O184  1  0.14340179  0.44150125  0.90519150  1
  O  O185  1  0.12757694  0.77626663  0.88434099  1
  O  O186  1  0.13372620  0.21321229  0.40045403  1
  O  O187  1  0.14948629  0.53253248  0.40531787  1
  O  O188  1  0.14435858  0.86923389  0.40176521  1
  O  O189  1  0.83924520  0.20454415  0.07532307  1
  O  O190  1  0.89046437  0.54132940  0.16133427  1
  O  O191  1  0.88075450  0.90219429  0.17076757  1
  O  O192  1  0.45125181  0.27314919  0.91434790  1
  O  O193  1  0.46122186  0.61682384  0.90490003  1
  O  O194  1  0.46674101  0.93670125  0.91159052  1
  O  O195  1  0.54502387  0.28747667  0.55642086  1
  O  O196  1  0.54816555  0.62280042  0.55884584  1
  O  O197  1  0.53690906  0.95906171  0.57360977  1
  O  O198  1  0.55596854  0.04686407  0.07078812  1
  O  O199  1  0.54152796  0.38285424  0.06441785  1
  O  O200  1  0.54271146  0.71396614  0.06788437  1
  O  O201  1  0.41967368  0.05854649  0.45759547  1
  O  O202  1  0.43389997  0.38307922  0.47678266  1
  O  O203  1  0.45336094  0.72637227  0.40282530  1
  O  O204  1  0.96122186  0.11682384  0.90490003  1
  O  O205  1  0.96674101  0.43670125  0.91159052  1
  O  O206  1  0.95125181  0.77314919  0.91434790  1
  O  O207  1  0.04816555  0.12280042  0.55884584  1
  O  O208  1  0.03690906  0.45906171  0.57360977  1
  O  O209  1  0.04502387  0.78747667  0.55642086  1
  O  O210  1  0.04271146  0.21396614  0.06788437  1
  O  O211  1  0.05596854  0.54686407  0.07078812  1
  O  O212  1  0.04152796  0.88285424  0.06441785  1
  O  O213  1  0.95336094  0.22637227  0.40282530  1
  O  O214  1  0.91967368  0.55854649  0.45759547  1
  O  O215  1  0.93389997  0.88307922  0.47678266  1
  O  O216  1  0.07830599  0.28818741  0.71026086  1
  O  O217  1  0.09834413  0.61936239  0.79689934  1
  O  O218  1  0.09270382  0.95131791  0.80473245  1
  O  O219  1  0.94211025  0.27669107  0.76400463  1
  O  O220  1  0.92892052  0.61984369  0.76120055  1
  O  O221  1  0.91927524  0.96111266  0.75119390  1
  O  O222  1  0.93875973  0.05871365  0.25182841  1
  O  O223  1  0.94906858  0.38885986  0.27535455  1
  O  O224  1  0.93168645  0.71815712  0.23378698  1
  O  O225  1  0.07467533  0.05042221  0.19101918  1
  O  O226  1  0.08631926  0.37604715  0.22991228  1
  O  O227  1  0.09008013  0.72087679  0.24035922  1
  O  O228  1  0.59834413  0.11936239  0.79689934  1
  O  O229  1  0.59270382  0.45131791  0.80473245  1
  O  O230  1  0.57830599  0.78818741  0.71026086  1
  O  O231  1  0.42892052  0.11984369  0.76120055  1
  O  O232  1  0.41927524  0.46111266  0.75119390  1
  O  O233  1  0.44211025  0.77669107  0.76400463  1
  O  O234  1  0.43168645  0.21815712  0.23378698  1
  O  O235  1  0.43875973  0.55871365  0.25182841  1
  O  O236  1  0.44906858  0.88885986  0.27535455  1
  O  O237  1  0.59008013  0.22087679  0.24035922  1
  O  O238  1  0.57467533  0.55042221  0.19101918  1
  O  O239  1  0.58631926  0.87604715  0.22991228  1
