# generated using pymatgen
data_KGaI4
_symmetry_space_group_name_H-M   'P 1'
_cell_length_a   8.03756246
_cell_length_b   8.32040412
_cell_length_c   16.29759128
_cell_angle_alpha   84.53910830
_cell_angle_beta   90.00000000
_cell_angle_gamma   90.00000000
_symmetry_Int_Tables_number   1
_chemical_formula_structural   KGaI4
_chemical_formula_sum   'K4 Ga4 I16'
_cell_volume   1084.96723367
_cell_formula_units_Z   4
loop_
 _symmetry_equiv_pos_site_id
 _symmetry_equiv_pos_as_xyz
  1  'x, y, z'
loop_
 _atom_site_type_symbol
 _atom_site_label
 _atom_site_symmetry_multiplicity
 _atom_site_fract_x
 _atom_site_fract_y
 _atom_site_fract_z
 _atom_site_occupancy
  K  K0  1  0.50070727  0.25815080  0.64005980  1
  K  K1  1  0.00070727  0.74184920  0.85994020  1
  K  K2  1  0.49929273  0.74184920  0.35994020  1
  K  K3  1  0.99929273  0.25815080  0.14005980  1
  Ga  Ga4  1  0.35781781  0.24433913  0.36085463  1
  Ga  Ga5  1  0.85781781  0.75566087  0.13914537  1
  Ga  Ga6  1  0.64218219  0.75566087  0.63914537  1
  Ga  Ga7  1  0.14218219  0.24433913  0.86085463  1
  I  I8  1  0.85496615  0.14004863  0.90980703  1
  I  I9  1  0.35496615  0.85995137  0.59019297  1
  I  I10  1  0.14503385  0.85995137  0.09019297  1
  I  I11  1  0.64503385  0.14004863  0.40980703  1
  I  I12  1  0.39066418  0.41774248  0.22230145  1
  I  I13  1  0.89066418  0.58225752  0.27769855  1
  I  I14  1  0.60933582  0.58225752  0.77769855  1
  I  I15  1  0.10933582  0.41774248  0.72230145  1
  I  I16  1  0.65198375  0.98520707  0.15997272  1
  I  I17  1  0.15198375  0.01479293  0.34002728  1
  I  I18  1  0.34801625  0.01479293  0.84002728  1
  I  I19  1  0.84801625  0.98520707  0.65997272  1
  I  I20  1  0.23902393  0.42127265  0.46814410  1
  I  I21  1  0.73902393  0.57872735  0.03185590  1
  I  I22  1  0.76097607  0.57872735  0.53185590  1
  I  I23  1  0.26097607  0.42127265  0.96814410  1
