# generated using pymatgen
data_Na7Ca2SiSn2P5O24
_symmetry_space_group_name_H-M   'P 1'
_cell_length_a   9.29254956
_cell_length_b   9.30271937
_cell_length_c   22.27914303
_cell_angle_alpha   89.89945244
_cell_angle_beta   90.08282232
_cell_angle_gamma   119.92181233
_symmetry_Int_Tables_number   1
_chemical_formula_structural   Na7Ca2SiSn2P5O24
_chemical_formula_sum   'Na21 Ca6 Si3 Sn6 P15 O72'
_cell_volume   1669.22463637
_cell_formula_units_Z   3
loop_
 _symmetry_equiv_pos_site_id
 _symmetry_equiv_pos_as_xyz
  1  'x, y, z'
loop_
 _atom_site_type_symbol
 _atom_site_label
 _atom_site_symmetry_multiplicity
 _atom_site_fract_x
 _atom_site_fract_y
 _atom_site_fract_z
 _atom_site_occupancy
  Na  Na0  1  0.34696506  0.35836081  0.25633425  1
  Na  Na1  1  0.01350873  0.64178604  0.25448032  1
  Na  Na2  1  0.63262566  0.65371678  0.75191190  1
  Na  Na3  1  0.00465438  0.35882011  0.75842051  1
  Na  Na4  1  0.35466563  0.98875114  0.75298909  1
  Na  Na5  1  0.29726910  0.30739402  0.58371722  1
  Na  Na6  1  0.02205668  0.69751785  0.58698805  1
  Na  Na7  1  0.67530899  0.98195555  0.59415457  1
  Na  Na8  1  0.30188917  0.98187883  0.08827394  1
  Na  Na9  1  0.69117195  0.70166748  0.08513218  1
  Na  Na10  1  0.01685030  0.32820723  0.09039768  1
  Na  Na11  1  0.96976308  0.65447973  0.92899547  1
  Na  Na12  1  0.69119687  0.03639472  0.91954954  1
  Na  Na13  1  0.96752107  0.31275162  0.42130944  1
  Na  Na14  1  0.34607137  0.02761695  0.42773747  1
  Na  Na15  1  0.99295787  0.98173281  0.50250737  1
  Na  Na16  1  0.01753621  0.00657733  0.00238201  1
  Na  Na17  1  0.64591996  0.33228521  0.83641661  1
  Na  Na18  1  0.66546422  0.33582432  0.33593852  1
  Na  Na19  1  0.35387129  0.68870943  0.16978284  1
  Na  Na20  1  0.34399654  0.68081993  0.66905833  1
  Ca  Ca21  1  0.00048901  0.00079205  0.65050465  1
  Ca  Ca22  1  0.99336189  0.99647951  0.15160973  1
  Ca  Ca23  1  0.65896923  0.33544909  0.98130164  1
  Ca  Ca24  1  0.66350008  0.33921549  0.47970458  1
  Ca  Ca25  1  0.34593391  0.67551568  0.31437902  1
  Ca  Ca26  1  0.33276024  0.66436869  0.81769490  1
  Si  Si27  1  0.70145412  0.01205790  0.74728622  1
  Si  Si28  1  0.36862128  0.02391336  0.57868282  1
  Si  Si29  1  0.97642706  0.63074045  0.08000945  1
  Sn  Sn30  1  0.99406766  0.99651836  0.34987901  1
  Sn  Sn31  1  0.00028677  0.00383823  0.85061073  1
  Sn  Sn32  1  0.66465237  0.32858161  0.68354643  1
  Sn  Sn33  1  0.67054072  0.33168619  0.18405385  1
  Sn  Sn34  1  0.33059702  0.66137435  0.01649128  1
  Sn  Sn35  1  0.34255833  0.67179416  0.51646179  1
  P  P36  1  0.30981315  0.01828960  0.24757214  1
  P  P37  1  0.70584155  0.68552944  0.24537371  1
  P  P38  1  0.98336402  0.29448305  0.24933064  1
  P  P39  1  0.30778157  0.29191571  0.74690170  1
  P  P40  1  0.98288766  0.68991560  0.74941370  1
  P  P41  1  0.97571945  0.35018355  0.57983549  1
  P  P42  1  0.65342283  0.62378207  0.58527910  1
  P  P43  1  0.65082233  0.02755589  0.07873751  1
  P  P44  1  0.37391219  0.34679777  0.08659744  1
  P  P45  1  0.64626905  0.68488914  0.91344192  1
  P  P46  1  0.03722823  0.35291089  0.91562477  1
  P  P47  1  0.31562407  0.95927251  0.91336708  1
  P  P48  1  0.64550533  0.96178052  0.41832567  1
  P  P49  1  0.31430818  0.35485087  0.41214120  1
  P  P50  1  0.04427687  0.68286745  0.41189894  1
  O  O51  1  0.21475324  0.04336282  0.30324927  1
  O  O52  1  0.83075849  0.79302535  0.29753458  1
  O  O53  1  0.97258913  0.18772023  0.30685830  1
  O  O54  1  0.20859804  0.16604226  0.79969101  1
  O  O55  1  0.96374953  0.78422304  0.80574017  1
  O  O56  1  0.82831523  0.03817528  0.80656593  1
  O  O57  1  0.77905453  0.99166169  0.68646940  1
  O  O58  1  0.22546987  0.22504739  0.68662084  1
  O  O59  1  0.01452731  0.78993502  0.69208173  1
  O  O60  1  0.77271393  0.76200855  0.18427351  1
  O  O61  1  -0.00405468  0.21590105  0.19158547  1
  O  O62  1  0.22180543  0.01137034  0.18917283  1
  O  O63  1  0.88768793  0.37737083  0.63687391  1
  O  O64  1  0.49195656  0.12526219  0.63845945  1
  O  O65  1  0.63175946  0.52228769  0.64584949  1
  O  O66  1  0.87746357  0.50293350  0.13919742  1
  O  O67  1  0.61944225  0.12050062  0.13263389  1
  O  O68  1  0.47875476  0.36936509  0.14625512  1
  O  O69  1  0.44893608  0.30260139  0.03499971  1
  O  O70  1  0.87481878  0.55173226  0.01981916  1
  O  O71  1  0.66800505  0.11406672  0.01944045  1
  O  O72  1  0.44732901  0.12405078  0.51827152  1
  O  O73  1  0.68664624  0.54117177  0.53370111  1
  O  O74  1  0.88119751  0.33417177  0.52266929  1
  O  O75  1  0.54783642  0.69897634  0.97019478  1
  O  O76  1  0.14402549  0.44896073  0.97314863  1
  O  O77  1  0.29441814  0.84089135  0.96927385  1
  O  O78  1  0.56542248  0.86300566  0.47924698  1
  O  O79  1  0.30032393  0.45088128  0.46974151  1
  O  O80  1  0.16342054  0.70730033  0.46803142  1
  O  O81  1  0.12294997  0.67363844  0.35369249  1
  O  O82  1  0.53292634  0.87401852  0.36648678  1
  O  O83  1  0.31423269  0.44005333  0.35441754  1
  O  O84  1  0.11641643  0.44389982  0.85783413  1
  O  O85  1  0.32150635  0.87901002  0.85488322  1
  O  O86  1  0.56434489  0.68576421  0.85468179  1
  O  O87  1  0.03888887  0.85172611  0.41392554  1
  O  O88  1  0.81939052  0.96829687  0.41517921  1
  O  O89  1  0.14384778  0.18099783  0.41649865  1
  O  O90  1  0.02768094  0.17851163  0.91794202  1
  O  O91  1  0.14671260  0.96354748  0.91620384  1
  O  O92  1  0.81959158  0.85342391  0.91851047  1
  O  O93  1  0.00261809  0.20130809  0.58618432  1
  O  O94  1  0.17900460  0.98781231  0.58358295  1
  O  O95  1  0.79223335  0.80457658  0.58871293  1
  O  O96  1  0.01088225  0.81971143  0.08541487  1
  O  O97  1  0.80123293  0.00424536  0.08793768  1
  O  O98  1  0.18999061  0.21525007  0.09188886  1
  O  O99  1  0.70400112  0.19448580  0.74901771  1
  O  O100  1  0.48173514  0.29990954  0.74996296  1
  O  O101  1  0.80839709  0.52422648  0.74789394  1
  O  O102  1  0.70747215  0.51553581  0.25095711  1
  O  O103  1  0.81837173  0.30411690  0.25110386  1
  O  O104  1  0.48415952  0.18510143  0.24985978  1
  O  O105  1  0.67614725  0.53827268  0.91656972  1
  O  O106  1  0.86069679  0.32717992  0.91954995  1
  O  O107  1  0.46902997  0.12989899  0.91854729  1
  O  O108  1  0.67955282  0.14134283  0.42046539  1
  O  O109  1  0.45952213  0.32188288  0.41455337  1
  O  O110  1  0.87333309  0.53002052  0.41828265  1
  O  O111  1  0.39072820  0.52535016  0.07989804  1
  O  O112  1  0.15914745  0.63117021  0.08145443  1
  O  O113  1  0.48539038  0.85154028  0.07979035  1
  O  O114  1  0.36995887  0.84269812  0.58141439  1
  O  O115  1  0.47717563  0.61327694  0.58057734  1
  O  O116  1  0.15085130  0.51706030  0.57943670  1
  O  O117  1  0.32535437  0.86332546  0.25252898  1
  O  O118  1  0.52782591  0.64975839  0.25285443  1
  O  O119  1  0.13413104  0.47124340  0.25319167  1
  O  O120  1  0.33121372  0.46556233  0.75568116  1
  O  O121  1  0.12177788  0.64767994  0.75636532  1
  O  O122  1  0.51292515  0.85693426  0.75254698  1
