# generated using pymatgen
data_Na4Ca2P2SO12
_symmetry_space_group_name_H-M   'P 1'
_cell_length_a   9.51143073
_cell_length_b   9.50138398
_cell_length_c   22.93667331
_cell_angle_alpha   90.08622830
_cell_angle_beta   90.00143296
_cell_angle_gamma   120.03571383
_symmetry_Int_Tables_number   1
_chemical_formula_structural   Na4Ca2P2SO12
_chemical_formula_sum   'Na24 Ca12 P12 S6 O72'
_cell_volume   1794.47208797
_cell_formula_units_Z   6
loop_
 _symmetry_equiv_pos_site_id
 _symmetry_equiv_pos_as_xyz
  1  'x, y, z'
loop_
 _atom_site_type_symbol
 _atom_site_label
 _atom_site_symmetry_multiplicity
 _atom_site_fract_x
 _atom_site_fract_y
 _atom_site_fract_z
 _atom_site_occupancy
  Na  Na0  1  0.63334075  0.00984598  0.25792978  1
  Na  Na1  1  0.34984000  0.34721741  0.24312879  1
  Na  Na2  1  0.01133156  0.63296109  0.24827261  1
  Na  Na3  1  0.62160948  0.63295685  0.74826856  1
  Na  Na4  1  0.99736911  0.34720646  0.74312772  1
  Na  Na5  1  0.37651714  0.00984624  0.75792194  1
  Na  Na6  1  0.30000775  0.34317898  0.59126278  1
  Na  Na7  1  0.01650700  0.68055041  0.57646179  1
  Na  Na8  1  0.67799856  0.96629409  0.58160561  1
  Na  Na9  1  0.28827648  0.96628985  0.08160156  1
  Na  Na10  1  0.66403611  0.68053946  0.07646072  1
  Na  Na11  1  0.04318414  0.34317924  0.09125494  1
  Na  Na12  1  0.96667375  0.67651298  0.92459678  1
  Na  Na13  1  0.68317300  0.01388441  0.90979579  1
  Na  Na14  1  0.34466456  0.29962809  0.91493961  1
  Na  Na15  1  0.95494248  0.29962385  0.41493556  1
  Na  Na16  1  0.33070211  0.01387346  0.40979472  1
  Na  Na17  1  0.70985014  0.67651324  0.42458894  1
  Na  Na18  1  0.98038975  0.99059558  0.49998862  1
  Na  Na19  1  0.01021036  0.99060851  -0.00000955  1
  Na  Na20  1  0.64705675  0.32392858  0.83332162  1
  Na  Na21  1  0.67687736  0.32394151  0.33332345  1
  Na  Na22  1  0.31372275  0.65726258  0.16665562  1
  Na  Na23  1  0.34354336  0.65727551  0.66665745  1
  Ca  Ca24  1  0.00185784  0.00197083  0.34654794  1
  Ca  Ca25  1  0.00012710  0.00197100  0.84654708  1
  Ca  Ca26  1  0.99572451  0.00215640  0.65338197  1
  Ca  Ca27  1  0.00642491  0.00215385  0.15338221  1
  Ca  Ca28  1  0.66852484  0.33530383  0.67988094  1
  Ca  Ca29  1  0.66679410  0.33530400  0.17988008  1
  Ca  Ca30  1  0.66239151  0.33548940  0.98671497  1
  Ca  Ca31  1  0.67309191  0.33548685  0.48671521  1
  Ca  Ca32  1  0.33519084  0.66863783  0.01321494  1
  Ca  Ca33  1  0.33346010  0.66863800  0.51321408  1
  Ca  Ca34  1  0.32905751  0.66882340  0.32004897  1
  Ca  Ca35  1  0.33975791  0.66882085  0.82004921  1
  P  P36  1  0.31041463  0.00088093  0.25056948  1
  P  P37  1  0.99950047  0.30781437  0.24976203  1
  P  P38  1  0.30831915  0.30781655  0.74976192  1
  P  P39  1  0.69046756  0.00087209  0.75056650  1
  P  P40  1  0.97708163  0.33421393  0.58390248  1
  P  P41  1  0.66616747  0.64114737  0.58309503  1
  P  P42  1  0.97498615  0.64114955  0.08309492  1
  P  P43  1  0.35713456  0.33420509  0.08389950  1
  P  P44  1  0.64374763  0.66754793  0.91723648  1
  P  P45  1  0.33283347  0.97448137  0.91642903  1
  P  P46  1  0.64165215  0.97448355  0.41642892  1
  P  P47  1  0.02380056  0.66753909  0.41723350  1
  S  S48  1  0.69298060  0.69400289  0.24984169  1
  S  S49  1  0.00101359  0.69399847  0.74984267  1
  S  S50  1  0.35964760  0.02733589  0.58317469  1
  S  S51  1  0.66768059  0.02733147  0.08317567  1
  S  S52  1  0.02631360  0.36066989  0.91650869  1
  S  S53  1  0.33434659  0.36066547  0.41650967  1
  O  O54  1  0.22662373  0.01648246  0.30615139  1
  O  O55  1  0.79095916  0.77745944  0.30252038  1
  O  O56  1  0.98316272  0.20647207  0.30476719  1
  O  O57  1  0.22331226  0.20647366  0.80476594  1
  O  O58  1  0.98649402  0.77743802  0.80252354  1
  O  O59  1  0.78987840  0.01647042  0.80614391  1
  O  O60  1  0.77665333  0.98373294  0.69608011  1
  O  O61  1  0.21023536  0.22104599  0.69418587  1
  O  O62  1  0.01840776  0.79151282  0.69679659  1
  O  O63  1  0.77309041  0.79150298  0.19679229  1
  O  O64  1  0.01080547  0.22103880  0.19418795  1
  O  O65  1  0.20706484  0.98373552  0.19608604  1
  O  O66  1  0.89329073  0.34981546  0.63948439  1
  O  O67  1  0.45762616  0.11079244  0.63585338  1
  O  O68  1  0.64982972  0.53980507  0.63810019  1
  O  O69  1  0.88997926  0.53980666  0.13809894  1
  O  O70  1  0.65316102  0.11077102  0.13585654  1
  O  O71  1  0.45654540  0.34980342  0.13947691  1
  O  O72  1  0.44332033  0.31706594  0.02941311  1
  O  O73  1  0.87690236  0.55437899  0.02751887  1
  O  O74  1  0.68507476  0.12484582  0.03012959  1
  O  O75  1  0.43975741  0.12483598  0.53012529  1
  O  O76  1  0.67747247  0.55437180  0.52752095  1
  O  O77  1  0.87373184  0.31706852  0.52941904  1
  O  O78  1  0.55995673  0.68314946  0.97281839  1
  O  O79  1  0.12429216  0.44412644  0.96918738  1
  O  O80  1  0.31649572  0.87313907  0.97143419  1
  O  O81  1  0.55664526  0.87314066  0.47143294  1
  O  O82  1  0.31982702  0.44410502  0.46919054  1
  O  O83  1  0.12321140  0.68313742  0.47281091  1
  O  O84  1  0.10998633  0.65039994  0.36274711  1
  O  O85  1  0.54356836  0.88771299  0.36085287  1
  O  O86  1  0.35174076  0.45817982  0.36346359  1
  O  O87  1  0.10642341  0.45816998  0.86345929  1
  O  O88  1  0.34413847  0.88770580  0.86085495  1
  O  O89  1  0.54039784  0.65040252  0.86275304  1
  O  O90  1  0.00806035  0.82351104  0.41503495  1
  O  O91  1  0.81578514  0.99651731  0.41549881  1
  O  O92  1  0.18472655  0.19648333  0.41401997  1
  O  O93  1  0.01176437  0.19649047  0.91402312  1
  O  O94  1  0.18073108  0.99651665  0.91549932  1
  O  O95  1  0.81544586  0.82352418  0.91503332  1
  O  O96  1  0.99703476  0.18080222  0.58482318  1
  O  O97  1  0.19353799  0.00713808  0.58645750  1
  O  O98  1  0.82476276  0.81142251  0.58424850  1
  O  O99  1  0.98666462  0.81142274  0.08424873  1
  O  O100  1  0.81359723  0.00713590  0.08645450  1
  O  O101  1  0.18376331  0.18079495  0.08482494  1
  O  O102  1  0.67472735  0.15684404  0.74836795  1
  O  O103  1  0.48245214  0.32985031  0.74883181  1
  O  O104  1  0.85139355  0.52981633  0.74735297  1
  O  O105  1  0.67843137  0.52982347  0.24735612  1
  O  O106  1  0.84739808  0.32984965  0.24883232  1
  O  O107  1  0.48211286  0.15685718  0.24836632  1
  O  O108  1  0.66370176  0.51413522  0.91815618  1
  O  O109  1  0.86020499  0.34047108  0.91979050  1
  O  O110  1  0.49142976  0.14475551  0.91758150  1
  O  O111  1  0.65333162  0.14475574  0.41758173  1
  O  O112  1  0.48026423  0.34046890  0.41978750  1
  O  O113  1  0.85043031  0.51412795  0.41815794  1
  O  O114  1  0.34139335  0.49017804  0.08170195  1
  O  O115  1  0.14911814  0.66318431  0.08216581  1
  O  O116  1  0.51805955  0.86315033  0.08068697  1
  O  O117  1  0.34509737  0.86315747  0.58069012  1
  O  O118  1  0.51406408  0.66318365  0.58216632  1
  O  O119  1  0.14877886  0.49019118  0.58170032  1
  O  O120  1  0.33036776  0.84746922  0.25149018  1
  O  O121  1  0.52687099  0.67380508  0.25312450  1
  O  O122  1  0.15809576  0.47808951  0.25091550  1
  O  O123  1  0.31999762  0.47808974  0.75091573  1
  O  O124  1  0.14693023  0.67380290  0.75312150  1
  O  O125  1  0.51709631  0.84746195  0.75149194  1
