# generated using pymatgen
data_Ag3P11
_symmetry_space_group_name_H-M   'P 1'
_cell_length_a   6.62176109
_cell_length_b   7.53591540
_cell_length_c   7.53591470
_cell_angle_alpha   60.40008213
_cell_angle_beta   65.29420580
_cell_angle_gamma   65.29419083
_symmetry_Int_Tables_number   1
_chemical_formula_structural   Ag3P11
_chemical_formula_sum   'Ag3 P11'
_cell_volume   286.19742275
_cell_formula_units_Z   1
loop_
 _symmetry_equiv_pos_site_id
 _symmetry_equiv_pos_as_xyz
  1  'x, y, z'
loop_
 _atom_site_type_symbol
 _atom_site_label
 _atom_site_symmetry_multiplicity
 _atom_site_fract_x
 _atom_site_fract_y
 _atom_site_fract_z
 _atom_site_occupancy
  Ag  Ag0  1  0.03288346  0.70811999  0.70811999  1
  Ag  Ag1  1  0.80045015  0.41167430  0.41167430  1
  Ag  Ag2  1  0.00579138  0.99938008  0.99938008  1
  P  P3  1  0.04382391  0.18986355  0.18986355  1
  P  P4  1  0.05213617  0.50883074  0.50883074  1
  P  P5  1  0.72790675  0.91695164  0.91695164  1
  P  P6  1  0.53070553  0.73568155  0.22311051  1
  P  P7  1  0.53070553  0.22311051  0.73568155  1
  P  P8  1  0.50089699  0.38690010  0.08896588  1
  P  P9  1  0.50089699  0.08896588  0.38690010  1
  P  P10  1  0.27146745  0.38884389  0.94514030  1
  P  P11  1  0.27146745  0.94514030  0.38884389  1
  P  P12  1  0.26563261  0.64845436  0.19208012  1
  P  P13  1  0.26563261  0.19208012  0.64845436  1
