# generated using pymatgen
data_Sr2MgCo2O5
_symmetry_space_group_name_H-M   'P 1'
_cell_length_a   7.85069871
_cell_length_b   5.90370066
_cell_length_c   5.46481313
_cell_angle_alpha   69.23106345
_cell_angle_beta   45.46249419
_cell_angle_gamma   53.82443990
_symmetry_Int_Tables_number   1
_chemical_formula_structural   Sr2MgCo2O5
_chemical_formula_sum   'Sr2 Mg1 Co2 O5'
_cell_volume   144.95452641
_cell_formula_units_Z   1
loop_
 _symmetry_equiv_pos_site_id
 _symmetry_equiv_pos_as_xyz
  1  'x, y, z'
loop_
 _atom_site_type_symbol
 _atom_site_label
 _atom_site_symmetry_multiplicity
 _atom_site_fract_x
 _atom_site_fract_y
 _atom_site_fract_z
 _atom_site_occupancy
  Sr  Sr0  1  0.14456756  0.54641662  0.52253381  1
  Sr  Sr1  1  0.55492879  0.77607299  0.43331567  1
  Mg  Mg2  1  0.74250933  0.19043392  0.66602058  1
  Co  Co3  1  0.94959948  0.99566931  0.03677821  1
  Co  Co4  1  0.27720032  0.17320683  0.05708896  1
  O  O5  1  0.60249197  0.16916476  0.14097948  1
  O  O6  1  0.26551893  0.55820484  0.93139186  1
  O  O7  1  0.67541768  0.90524970  0.67515238  1
  O  O8  1  0.13354322  0.00684113  0.50554515  1
  O  O9  1  0.93589671  0.29486890  0.14888691  1
