# generated using pymatgen
data_MgCoP2O7
_symmetry_space_group_name_H-M   'P 1'
_cell_length_a   5.18747457
_cell_length_b   5.79507694
_cell_length_c   5.79934824
_cell_angle_alpha   73.77670160
_cell_angle_beta   88.72379296
_cell_angle_gamma   91.58740293
_symmetry_Int_Tables_number   1
_chemical_formula_structural   MgCoP2O7
_chemical_formula_sum   'Mg1 Co1 P2 O7'
_cell_volume   167.25071885
_cell_formula_units_Z   1
loop_
 _symmetry_equiv_pos_site_id
 _symmetry_equiv_pos_as_xyz
  1  'x, y, z'
loop_
 _atom_site_type_symbol
 _atom_site_label
 _atom_site_symmetry_multiplicity
 _atom_site_fract_x
 _atom_site_fract_y
 _atom_site_fract_z
 _atom_site_occupancy
  Mg  Mg0  1  0.22271520  0.88946103  0.49696290  1
  Co  Co1  1  0.72379433  0.06221678  0.67269416  1
  P  P2  1  0.16660192  0.78963839  0.99340956  1
  P  P3  1  0.28057403  0.38533769  0.39858672  1
  O  O4  1  0.22335565  0.50985240  0.11834656  1
  O  O5  1  0.41558061  0.89915156  0.85105325  1
  O  O6  1  0.03170388  0.24238819  0.50739467  1
  O  O7  1  0.07265441  0.90590415  0.18093030  1
  O  O8  1  0.48137122  0.19137623  0.39610953  1
  O  O9  1  0.37430408  0.57436882  0.51378224  1
  O  O10  1  0.96553667  0.78660277  0.79845011  1
