# generated using pymatgen
data_Na4AlGaSi2SO12
_symmetry_space_group_name_H-M   'P 1'
_cell_length_a   8.82619925
_cell_length_b   8.83348022
_cell_length_c   21.71140678
_cell_angle_alpha   89.93252436
_cell_angle_beta   90.06280534
_cell_angle_gamma   119.50163483
_symmetry_Int_Tables_number   1
_chemical_formula_structural   Na4AlGaSi2SO12
_chemical_formula_sum   'Na24 Al6 Ga6 Si12 S6 O72'
_cell_volume   1473.27194819
_cell_formula_units_Z   6
loop_
 _symmetry_equiv_pos_site_id
 _symmetry_equiv_pos_as_xyz
  1  'x, y, z'
loop_
 _atom_site_type_symbol
 _atom_site_label
 _atom_site_symmetry_multiplicity
 _atom_site_fract_x
 _atom_site_fract_y
 _atom_site_fract_z
 _atom_site_occupancy
  Na  Na0  1  0.64031518  -0.00001971  0.25352376  1
  Na  Na1  1  0.36809677  0.37432967  0.24380988  1
  Na  Na2  1  0.99354514  0.62299601  0.25394655  1
  Na  Na3  1  0.62675040  0.63364884  0.74412221  1
  Na  Na4  1  0.00102720  0.35822576  0.75371048  1
  Na  Na5  1  0.37542553  0.00577455  0.75424487  1
  Na  Na6  1  0.30848393  0.33090886  0.58669574  1
  Na  Na7  1  0.03093276  0.70600425  0.57676773  1
  Na  Na8  1  0.66115450  0.95914133  0.58678475  1
  Na  Na9  1  0.29457815  0.96733337  0.07694705  1
  Na  Na10  1  0.66646563  0.68981518  0.08682210  1
  Na  Na11  1  0.04152619  0.34053596  0.08706537  1
  Na  Na12  1  0.97617465  0.66560955  0.92027844  1
  Na  Na13  1  0.69991119  0.04023272  0.91042522  1
  Na  Na14  1  0.32736922  0.29111873  0.92029667  1
  Na  Na15  1  0.95875386  0.29965552  0.41002702  1
  Na  Na16  1  0.33526602  0.02656911  0.41978612  1
  Na  Na17  1  0.71007054  0.67205130  0.41999724  1
  Na  Na18  1  0.99433108  0.98618089  0.50025795  1
  Na  Na19  1  0.01486794  0.00666883  0.00002910  1
  Na  Na20  1  0.66077805  0.31899815  0.83404259  1
  Na  Na21  1  0.68202872  0.34003649  0.33323692  1
  Na  Na22  1  0.32608853  0.65165504  0.16626521  1
  Na  Na23  1  0.34908029  0.67349025  0.66711457  1
  Al  Al24  1  0.01863142  0.02811143  0.85311491  1
  Al  Al25  1  0.00053224  0.00188760  0.14726441  1
  Al  Al26  1  0.66436926  0.33299667  0.98125704  1
  Al  Al27  1  0.30515051  0.64845854  0.01816776  1
  Al  Al28  1  0.34979233  0.69183816  0.51897635  1
  Al  Al29  1  0.33196562  0.66923887  0.81545873  1
  Ga  Ga30  1  0.97146831  0.98157528  0.35205013  1
  Ga  Ga31  1  0.99783006  0.00130126  0.64965147  1
  Ga  Ga32  1  0.63605524  0.31356013  0.68530843  1
  Ga  Ga33  1  0.68546180  0.36248384  0.18386251  1
  Ga  Ga34  1  0.66588164  0.33552361  0.48193711  1
  Ga  Ga35  1  0.33174542  0.66783232  0.31452730  1
  Si  Si36  1  0.70727263  0.71011647  0.24840739  1
  Si  Si37  1  0.99854661  0.28677850  0.24870382  1
  Si  Si38  1  0.29045416  0.29698488  0.75115271  1
  Si  Si39  1  0.71000866  0.99814884  0.75170372  1
  Si  Si40  1  0.36991113  0.03715552  0.58258038  1
  Si  Si41  1  0.66378109  0.62411875  0.58305694  1
  Si  Si42  1  0.95974729  0.62916050  0.08148698  1
  Si  Si43  1  0.37634123  0.33467934  0.08184942  1
  Si  Si44  1  0.03927964  0.37638074  0.91620030  1
  Si  Si45  1  0.33250031  0.95451271  0.91673184  1
  Si  Si46  1  0.62303615  0.96014307  0.41691006  1
  Si  Si47  1  0.04616755  0.66728984  0.41705903  1
  S  S48  1  0.28739123  0.00118694  0.24893947  1
  S  S49  1  0.00309232  0.71155190  0.75185823  1
  S  S50  1  0.96052805  0.33600647  0.58314642  1
  S  S51  1  0.66628374  0.04266697  0.08239231  1
  S  S52  1  0.62069755  0.66614553  0.91682426  1
  S  S53  1  0.33354707  0.37879810  0.41739188  1
  O  O54  1  0.21197083  0.02985722  0.30524508  1
  O  O55  1  0.82692818  0.78088814  0.31021578  1
  O  O56  1  0.97019622  0.17167559  0.31148634  1
  O  O57  1  0.20539523  0.16826552  0.80976235  1
  O  O58  1  0.97433884  0.79452696  0.80607472  1
  O  O59  1  0.83595824  0.02507076  0.81088411  1
  O  O60  1  0.78940645  0.95736175  0.68972971  1
  O  O61  1  0.17001309  0.21362133  0.68966185  1
  O  O62  1  0.03202253  0.81490470  0.69512406  1
  O  O63  1  0.80263153  0.83584714  0.18936081  1
  O  O64  1  0.03177386  0.19488505  0.18908964  1
  O  O65  1  0.17891075  0.97716388  0.19384630  1
  O  O66  1  0.88336283  0.36684763  0.63859861  1
  O  O67  1  0.49493675  0.11163097  0.64315484  1
  O  O68  1  0.63276943  0.50302203  0.64451126  1
  O  O69  1  0.88913156  0.50576724  0.14253902  1
  O  O70  1  0.63291068  0.11647445  0.13805174  1
  O  O71  1  0.49602581  0.36784660  0.14371946  1
  O  O72  1  0.46857242  0.29808731  0.02285850  1
  O  O73  1  0.82869229  0.53405657  0.02330442  1
  O  O74  1  0.69412580  0.15360306  0.02768413  1
  O  O75  1  0.45659571  0.16534046  0.52346352  1
  O  O76  1  0.70668398  0.54097508  0.52302021  1
  O  O77  1  0.85262604  0.30646138  0.52776653  1
  O  O78  1  0.54202142  0.69601295  0.97196990  1
  O  O79  1  0.16432241  0.45795565  0.97609798  1
  O  O80  1  0.30429000  0.83088261  0.97680768  1
  O  O81  1  0.53756938  0.83469839  0.47621266  1
  O  O82  1  0.30785570  0.46215344  0.47221805  1
  O  O83  1  0.16858026  0.69119952  0.47687155  1
  O  O84  1  0.12569640  0.62707522  0.35508308  1
  O  O85  1  0.50323918  0.87687176  0.35536399  1
  O  O86  1  0.36069759  0.48181114  0.36077634  1
  O  O87  1  0.13082446  0.50323933  0.85685798  1
  O  O88  1  0.36868080  0.86609534  0.85659163  1
  O  O89  1  0.51289752  0.63920844  0.86139217  1
  O  O90  1  0.03614668  0.84967336  0.41239909  1
  O  O91  1  0.81972002  0.98352767  0.41499886  1
  O  O92  1  0.18019029  0.20368050  0.41360865  1
  O  O93  1  0.01566238  0.17904005  0.91132529  1
  O  O94  1  0.15164429  0.96881728  0.90976022  1
  O  O95  1  0.79733486  0.81795346  0.91112734  1
  O  O96  1  0.97645412  0.17684041  0.58671393  1
  O  O97  1  0.17737368  0.02118129  0.58993956  1
  O  O98  1  0.83513281  0.81930947  0.58819530  1
  O  O99  1  0.97695364  0.82285937  0.09005368  1
  O  O100  1  0.82710599  0.02842602  0.08642933  1
  O  O101  1  0.18079504  0.16183504  0.08882383  1
  O  O102  1  0.70021471  0.18083140  0.74596320  1
  O  O103  1  0.48684132  0.31872165  0.74836721  1
  O  O104  1  0.85013157  0.53633957  0.74703182  1
  O  O105  1  0.68056613  0.51239244  0.24619691  1
  O  O106  1  0.81721065  0.29867642  0.24380509  1
  O  O107  1  0.46346575  0.15203808  0.24360477  1
  O  O108  1  0.63676087  0.50638259  0.92074008  1
  O  O109  1  0.84361811  0.35630491  0.92450433  1
  O  O110  1  0.50468760  0.15109543  0.92360154  1
  O  O111  1  0.64278962  0.15490506  0.42267015  1
  O  O112  1  0.49230297  0.36163931  0.42043811  1
  O  O113  1  0.84954726  0.49714673  0.42164670  1
  O  O114  1  0.36308435  0.51496914  0.07466557  1
  O  O115  1  0.15693798  0.65418338  0.07628593  1
  O  O116  1  0.51568254  0.86624539  0.07550499  1
  O  O117  1  0.34647080  0.84146626  0.57743187  1
  O  O118  1  0.48271034  0.63465427  0.57579649  1
  O  O119  1  0.13646083  0.48845804  0.57698890  1
  O  O120  1  0.30124915  0.84046826  0.25101993  1
  O  O121  1  0.51364846  0.69408138  0.25404256  1
  O  O122  1  0.17064385  0.48263729  0.25301888  1
  O  O123  1  0.31108769  0.49150432  0.75913856  1
  O  O124  1  0.16245523  0.69496374  0.75634385  1
  O  O125  1  0.51377250  0.82777299  0.75825267  1
