# generated using pymatgen
data_Tl2SnSe3
_symmetry_space_group_name_H-M   'P 1'
_cell_length_a   8.17387029
_cell_length_b   8.35302216
_cell_length_c   21.46689467
_cell_angle_alpha   90.00000000
_cell_angle_beta   90.00000000
_cell_angle_gamma   90.00000000
_symmetry_Int_Tables_number   1
_chemical_formula_structural   Tl2SnSe3
_chemical_formula_sum   'Tl16 Sn8 Se24'
_cell_volume   1465.68485609
_cell_formula_units_Z   8
loop_
 _symmetry_equiv_pos_site_id
 _symmetry_equiv_pos_as_xyz
  1  'x, y, z'
loop_
 _atom_site_type_symbol
 _atom_site_label
 _atom_site_symmetry_multiplicity
 _atom_site_fract_x
 _atom_site_fract_y
 _atom_site_fract_z
 _atom_site_occupancy
  Tl  Tl0  1  0.67499337  0.98640086  0.66744825  1
  Tl  Tl1  1  0.82500663  0.48640086  0.16744825  1
  Tl  Tl2  1  0.17499337  0.51359914  0.66744825  1
  Tl  Tl3  1  0.67499337  0.98640086  0.83255175  1
  Tl  Tl4  1  0.32500663  0.01359914  0.33255175  1
  Tl  Tl5  1  0.17499337  0.51359914  0.83255175  1
  Tl  Tl6  1  0.82500663  0.48640086  0.33255175  1
  Tl  Tl7  1  0.32500663  0.01359914  0.16744825  1
  Tl  Tl8  1  0.26853046  0.95002247  0.49328431  1
  Tl  Tl9  1  0.76853046  0.54997753  0.00671569  1
  Tl  Tl10  1  0.23146954  0.45002247  0.50671569  1
  Tl  Tl11  1  0.73146954  0.04997753  0.99328431  1
  Tl  Tl12  1  0.73146954  0.04997753  0.50671569  1
  Tl  Tl13  1  0.23146954  0.45002247  0.99328431  1
  Tl  Tl14  1  0.76853046  0.54997753  0.49328431  1
  Tl  Tl15  1  0.26853046  0.95002247  0.00671569  1
  Sn  Sn16  1  0.17509137  0.00903030  0.66627374  1
  Sn  Sn17  1  0.67509137  0.49096970  0.66627374  1
  Sn  Sn18  1  0.32490863  0.50903030  0.16627374  1
  Sn  Sn19  1  0.82490863  0.99096970  0.33372626  1
  Sn  Sn20  1  0.82490863  0.99096970  0.16627374  1
  Sn  Sn21  1  0.32490863  0.50903030  0.33372626  1
  Sn  Sn22  1  0.67509137  0.49096970  0.83372626  1
  Sn  Sn23  1  0.17509137  0.00903030  0.83372626  1
  Se  Se24  1  0.01387072  0.83478370  0.90809625  1
  Se  Se25  1  0.51387072  0.66521630  0.59190375  1
  Se  Se26  1  0.48612928  0.33478370  0.09190375  1
  Se  Se27  1  0.98612928  0.16521630  0.40809625  1
  Se  Se28  1  0.98612928  0.16521630  0.09190375  1
  Se  Se29  1  0.48612928  0.33478370  0.40809625  1
  Se  Se30  1  0.51387072  0.66521630  0.90809625  1
  Se  Se31  1  0.01387072  0.83478370  0.59190375  1
  Se  Se32  1  0.12849424  0.68051848  0.39382526  1
  Se  Se33  1  0.62849424  0.81948152  0.10617474  1
  Se  Se34  1  0.37150576  0.18051848  0.60617474  1
  Se  Se35  1  0.87150576  0.31948152  0.89382526  1
  Se  Se36  1  0.87150576  0.31948152  0.60617474  1
  Se  Se37  1  0.37150576  0.18051848  0.89382526  1
  Se  Se38  1  0.62849424  0.81948152  0.39382526  1
  Se  Se39  1  0.33400832  0.84121299  0.75000000  1
  Se  Se40  1  0.00892393  0.16413212  0.75000000  1
  Se  Se41  1  0.50892393  0.33586788  0.75000000  1
  Se  Se42  1  0.49107607  0.66413212  0.25000000  1
  Se  Se43  1  0.99107607  0.83586788  0.25000000  1
  Se  Se44  1  0.66599168  0.15878701  0.25000000  1
  Se  Se45  1  0.16599168  0.34121299  0.25000000  1
  Se  Se46  1  0.83400832  0.65878701  0.75000000  1
  Se  Se47  1  0.12849424  0.68051848  0.10617474  1
