# generated using pymatgen
data_Na3ZrGaSi2SO12
_symmetry_space_group_name_H-M   'P 1'
_cell_length_a   9.06624641
_cell_length_b   9.06627302
_cell_length_c   22.59780123
_cell_angle_alpha   91.34805280
_cell_angle_beta   88.65241227
_cell_angle_gamma   120.21441547
_symmetry_Int_Tables_number   1
_chemical_formula_structural   Na3ZrGaSi2SO12
_chemical_formula_sum   'Na18 Zr6 Ga6 Si12 S6 O72'
_cell_volume   1604.54104643
_cell_formula_units_Z   6
loop_
 _symmetry_equiv_pos_site_id
 _symmetry_equiv_pos_as_xyz
  1  'x, y, z'
loop_
 _atom_site_type_symbol
 _atom_site_label
 _atom_site_symmetry_multiplicity
 _atom_site_fract_x
 _atom_site_fract_y
 _atom_site_fract_z
 _atom_site_occupancy
  Na  Na0  1  0.62543504  -0.00028576  0.24102302  1
  Na  Na1  1  -0.00031963  0.64363240  0.24400384  1
  Na  Na2  1  0.00028326  0.37456435  0.74102348  1
  Na  Na3  1  0.35636350  0.00031933  0.74400478  1
  Na  Na4  1  0.29210649  0.33308628  0.57435131  1
  Na  Na5  1  0.66636535  0.97698986  0.57735376  1
  Na  Na6  1  0.66690584  0.70789069  0.07435179  1
  Na  Na7  1  0.02300479  0.33363002  0.07735354  1
  Na  Na8  1  0.95881973  0.66639948  0.90768862  1
  Na  Na9  1  0.33302350  0.31033235  0.91067279  1
  Na  Na10  1  0.33360664  0.04117960  0.40768743  1
  Na  Na11  1  0.68966757  0.66697671  0.41067485  1
  Na  Na12  1  0.00156164  0.02678143  0.49368968  1
  Na  Na13  1  0.97322074  0.99844612  0.99369063  1
  Na  Na14  1  0.66825840  0.36012160  0.82703866  1
  Na  Na15  1  0.63987931  0.33173992  0.32703878  1
  Na  Na16  1  0.33494321  0.69347606  0.16036144  1
  Na  Na17  1  0.30652725  0.66505664  0.66036131  1
  Zr  Zr18  1  0.01610568  0.00255889  0.64642722  1
  Zr  Zr19  1  0.99743934  0.98389381  0.14642808  1
  Zr  Zr20  1  0.68277592  0.33591467  0.97977040  1
  Zr  Zr21  1  0.66408763  0.31722908  0.47976981  1
  Zr  Zr22  1  0.34942186  0.66923826  0.31311074  1
  Zr  Zr23  1  0.33076415  0.65058479  0.81311022  1
  Ga  Ga24  1  0.00386188  0.00636294  0.35202069  1
  Ga  Ga25  1  0.99363863  0.99613843  0.85201952  1
  Ga  Ga26  1  0.67052104  0.33968554  0.68535262  1
  Ga  Ga27  1  0.66031789  0.32947981  0.18535289  1
  Ga  Ga28  1  0.33721079  0.67304257  0.01869271  1
  Ga  Ga29  1  0.32695879  0.66278673  0.51869214  1
  Si  Si30  1  0.29713911  0.01017055  0.25377560  1
  Si  Si31  1  0.71321170  0.69852351  0.25148089  1
  Si  Si32  1  0.30147857  0.28679417  0.75148032  1
  Si  Si33  1  0.98982815  0.70286115  0.75377448  1
  Si  Si34  1  0.96378950  0.34347687  0.58710219  1
  Si  Si35  1  0.37988246  0.03183858  0.58481823  1
  Si  Si36  1  0.96816191  0.62011868  0.08481894  1
  Si  Si37  1  0.65652163  0.03620990  0.08710183  1
  Si  Si38  1  0.63046544  0.67680209  0.92044022  1
  Si  Si39  1  0.04654626  0.36517246  0.91815396  1
  Si  Si40  1  0.63483018  0.95345540  0.41815567  1
  Si  Si41  1  0.32319555  0.36953349  0.42044026  1
  S  S42  1  0.99729470  0.28996482  0.25139425  1
  S  S43  1  0.71003966  0.00270174  0.75138747  1
  S  S44  1  0.66395379  0.62333404  0.58473337  1
  S  S45  1  0.37666325  0.33604276  0.08472982  1
  S  S46  1  0.33058189  0.95671206  0.91805270  1
  S  S47  1  0.04327792  0.66941331  0.41805446  1
  O  O48  1  0.20561098  0.02478917  0.31514953  1
  O  O49  1  0.83349155  0.79306620  0.30918739  1
  O  O50  1  0.98154550  0.18407520  0.30247347  1
  O  O51  1  0.20693547  0.16651156  0.80918793  1
  O  O52  1  0.97520891  0.79438639  0.81515081  1
  O  O53  1  0.81592884  0.01845514  0.80247665  1
  O  O54  1  0.78260980  0.98074641  0.69471654  1
  O  O55  1  0.17934869  0.20694064  0.69268861  1
  O  O56  1  0.01811343  0.82722301  0.69774602  1
  O  O57  1  0.79305933  0.82064995  0.19268842  1
  O  O58  1  0.01925391  0.21738473  0.19471220  1
  O  O59  1  0.17277411  0.98188483  0.19774549  1
  O  O60  1  0.87226180  0.35813383  0.64847520  1
  O  O61  1  0.50017208  0.12636607  0.64252808  1
  O  O62  1  0.64820796  0.51740981  0.63581723  1
  O  O63  1  0.87363841  0.49983040  0.14252868  1
  O  O64  1  0.64186654  0.12773981  0.14847523  1
  O  O65  1  0.48259320  0.35179124  0.13581916  1
  O  O66  1  0.44927248  0.31407963  0.02804227  1
  O  O67  1  0.84601671  0.54029154  0.02602662  1
  O  O68  1  0.68480224  0.16058992  0.03108154  1
  O  O69  1  0.45970682  0.15398135  0.52602602  1
  O  O70  1  0.68592344  0.55072620  0.52804070  1
  O  O71  1  0.83940712  0.31519701  0.53107980  1
  O  O72  1  0.53893730  0.69144261  0.98181823  1
  O  O73  1  0.16685811  0.45974540  0.97586097  1
  O  O74  1  0.31488206  0.85071554  0.96915026  1
  O  O75  1  0.54025592  0.83314439  0.47586035  1
  O  O76  1  0.30855585  0.46105916  0.48181849  1
  O  O77  1  0.14928764  0.68511850  0.46915041  1
  O  O78  1  0.11592488  0.64743427  0.36137211  1
  O  O79  1  0.51266420  0.87360580  0.35936804  1
  O  O80  1  0.35146927  0.49389961  0.36440949  1
  O  O81  1  0.12639084  0.48733381  0.85936856  1
  O  O82  1  0.35256537  0.88407872  0.86137469  1
  O  O83  1  0.50610081  0.64852910  0.86441006  1
  O  O84  1  0.03087181  0.82665456  0.41806557  1
  O  O85  1  0.82126830  0.96687213  0.40933852  1
  O  O86  1  0.16179577  0.17543152  0.41289185  1
  O  O87  1  0.03312600  0.17873102  0.90933751  1
  O  O88  1  0.17334462  0.96913035  0.91806569  1
  O  O89  1  0.82456574  0.83820446  0.91289101  1
  O  O90  1  0.97072272  0.16169818  0.58772656  1
  O  O91  1  0.19114311  0.01762706  0.58709280  1
  O  O92  1  0.81205719  0.79996218  0.58908170  1
  O  O93  1  0.98237195  0.80885693  0.08709400  1
  O  O94  1  0.83830317  0.02927871  0.08772653  1
  O  O95  1  0.20003838  0.18794259  0.08908169  1
  O  O96  1  0.69753512  0.16002027  0.75138421  1
  O  O97  1  0.48793025  0.30020501  0.74265774  1
  O  O98  1  0.82842601  0.50874395  0.74621977  1
  O  O99  1  0.69979655  0.51207034  0.24265671  1
  O  O100  1  0.83998037  0.30246714  0.25138342  1
  O  O101  1  0.49125550  0.17157337  0.24621885  1
  O  O102  1  0.63738019  0.49500066  0.92106348  1
  O  O103  1  0.85780025  0.35098210  0.92044056  1
  O  O104  1  0.47875589  0.13330297  0.92241767  1
  O  O105  1  0.64901668  0.14219570  0.42043998  1
  O  O106  1  0.50499910  0.36261946  0.42106186  1
  O  O107  1  0.86670267  0.52124782  0.42241651  1
  O  O108  1  0.36421591  0.49335611  0.08472169  1
  O  O109  1  0.15461028  0.63352884  0.07600313  1
  O  O110  1  0.49511083  0.84210114  0.07956035  1
  O  O111  1  0.36646901  0.84538844  0.57600245  1
  O  O112  1  0.50664665  0.63578450  0.58472069  1
  O  O113  1  0.15789926  0.50488995  0.57955953  1
  O  O114  1  0.30408775  0.82838793  0.25439912  1
  O  O115  1  0.52445532  0.68432784  0.25376926  1
  O  O116  1  0.14540621  0.46662969  0.25575145  1
  O  O117  1  0.31567168  0.47554616  0.75377030  1
  O  O118  1  0.17161100  0.69591300  0.75439911  1
  O  O119  1  0.53336925  0.85459276  0.75575211  1
