# generated using pymatgen
data_Sr(InSe2)2
_symmetry_space_group_name_H-M   'P 1'
_cell_length_a   15.68309818
_cell_length_b   13.01992397
_cell_length_c   13.00434777
_cell_angle_alpha   74.13322108
_cell_angle_beta   53.00049083
_cell_angle_gamma   52.89944343
_symmetry_Int_Tables_number   1
_chemical_formula_structural   Sr(InSe2)2
_chemical_formula_sum   'Sr8 In16 Se32'
_cell_volume   1674.60370533
_cell_formula_units_Z   8
loop_
 _symmetry_equiv_pos_site_id
 _symmetry_equiv_pos_as_xyz
  1  'x, y, z'
loop_
 _atom_site_type_symbol
 _atom_site_label
 _atom_site_symmetry_multiplicity
 _atom_site_fract_x
 _atom_site_fract_y
 _atom_site_fract_z
 _atom_site_occupancy
  Sr  Sr0  1  0.75003267  0.74996892  0.74995953  1
  Sr  Sr1  1  0.49996872  0.50002774  0.50004335  1
  Sr  Sr2  1  0.25004279  0.24998205  0.24996183  1
  Sr  Sr3  1  0.99995618  0.00001799  0.00003601  1
  Sr  Sr4  1  0.00260966  0.49735444  0.00267770  1
  Sr  Sr5  1  0.49734841  0.00264305  0.49738308  1
  Sr  Sr6  1  0.24738880  0.75264628  0.24732391  1
  Sr  Sr7  1  0.75265321  0.24735739  0.75261666  1
  In  In8  1  0.26713673  0.09166150  0.98237074  1
  In  In9  1  0.65872440  0.98239461  0.09167635  1
  In  In10  1  0.98237836  0.65875510  0.26716688  1
  In  In11  1  0.09173900  0.26714283  0.65875945  1
  In  In12  1  0.98287214  0.15833131  0.26763250  1
  In  In13  1  0.59127513  0.26760421  0.15832148  1
  In  In14  1  0.26761806  0.59124696  0.98284857  1
  In  In15  1  0.15825940  0.98286183  0.59123654  1
  In  In16  1  0.51044622  0.76217902  0.23841020  1
  In  In17  1  0.48896588  0.23843066  0.76212608  1
  In  In18  1  0.23840892  0.48899007  0.51045030  1
  In  In19  1  0.76224116  0.51036844  0.48898231  1
  In  In20  1  0.73955137  0.48782227  0.01158256  1
  In  In21  1  0.76103872  0.01156036  0.48787760  1
  In  In22  1  0.01157653  0.76102155  0.73955147  1
  In  In23  1  0.48776592  0.73962252  0.76102328  1
  Se  Se24  1  0.76783874  0.80657360  0.47927027  1
  Se  Se25  1  0.94622071  0.47932709  0.80662707  1
  Se  Se26  1  0.47935737  0.94622063  0.76787290  1
  Se  Se27  1  0.80661142  0.76780905  0.94619150  1
  Se  Se28  1  0.48214122  0.44342333  0.77075053  1
  Se  Se29  1  0.30378709  0.77066269  0.44337512  1
  Se  Se30  1  0.77064982  0.30377417  0.48213110  1
  Se  Se31  1  0.44338645  0.48218567  0.30379215  1
  Se  Se32  1  0.97710121  0.45799929  0.27565513  1
  Se  Se33  1  0.28931024  0.27552952  0.45805849  1
  Se  Se34  1  0.27557222  0.28922570  0.97689527  1
  Se  Se35  1  0.45815329  0.97704184  0.28926934  1
  Se  Se36  1  0.27288838  0.79200843  0.97433565  1
  Se  Se37  1  0.96068177  0.97447683  0.79195234  1
  Se  Se38  1  0.97442674  0.96077705  0.27310030  1
  Se  Se39  1  0.79184135  0.27296527  0.96071739  1
  Se  Se40  1  0.71334414  0.03638101  0.21605381  1
  Se  Se41  1  0.03409033  0.21613360  0.03651474  1
  Se  Se42  1  0.21631760  0.03408882  0.71313597  1
  Se  Se43  1  0.03646216  0.71311792  0.03419705  1
  Se  Se44  1  0.53668738  0.21361565  0.03391987  1
  Se  Se45  1  0.21592978  0.03384677  0.21348781  1
  Se  Se46  1  0.03366958  0.21592701  0.53687732  1
  Se  Se47  1  0.21354461  0.53686871  0.21580981  1
  Se  Se48  1  0.71253057  0.53743597  0.71537591  1
  Se  Se49  1  0.03474855  0.71526124  0.53726534  1
  Se  Se50  1  0.71511721  0.03453200  0.71284199  1
  Se  Se51  1  0.53753015  0.71270942  0.03453772  1
  Se  Se52  1  0.53747843  0.71255810  0.53462932  1
  Se  Se53  1  0.21522886  0.53476347  0.71272850  1
  Se  Se54  1  0.53488676  0.21546699  0.53716275  1
  Se  Se55  1  0.71246849  0.53730104  0.21544716  1
