# generated using pymatgen
data_Na6Mg7Ge(SO4)12
_symmetry_space_group_name_H-M   'P 1'
_cell_length_a   17.33153836
_cell_length_b   8.65765379
_cell_length_c   22.39385151
_cell_angle_alpha   89.98850816
_cell_angle_beta   90.02050708
_cell_angle_gamma   119.95857554
_symmetry_Int_Tables_number   1
_chemical_formula_structural   Na6Mg7Ge(SO4)12
_chemical_formula_sum   'Na18 Mg21 Ge3 S36 O144'
_cell_volume   2911.23898067
_cell_formula_units_Z   3
loop_
 _symmetry_equiv_pos_site_id
 _symmetry_equiv_pos_as_xyz
  1  'x, y, z'
loop_
 _atom_site_type_symbol
 _atom_site_label
 _atom_site_symmetry_multiplicity
 _atom_site_fract_x
 _atom_site_fract_y
 _atom_site_fract_z
 _atom_site_occupancy
  Na  Na0  1  0.32115613  0.64163062  0.74969266  1
  Na  Na1  1  0.65148504  0.33350360  0.58453244  1
  Na  Na2  1  0.98766240  0.66747534  0.91790419  1
  Na  Na3  1  0.66557343  0.30364977  0.91545513  1
  Na  Na4  1  0.16673878  0.02764263  0.41755513  1
  Na  Na5  1  0.66654930  0.02717293  0.41754790  1
  Na  Na6  1  0.99468199  0.00245211  0.49864391  1
  Na  Na7  1  0.48457606  0.98099421  0.50117850  1
  Na  Na8  1  0.00316032  0.01721040  0.00014541  1
  Na  Na9  1  0.49087399  0.98465274  0.99797509  1
  Na  Na10  1  0.33794430  0.32517376  0.83666647  1
  Na  Na11  1  0.83073059  0.31616315  0.82970315  1
  Na  Na12  1  0.34027787  0.34599833  0.33313357  1
  Na  Na13  1  0.84097500  0.34639597  0.33269753  1
  Na  Na14  1  0.16758199  0.66678990  0.16599839  1
  Na  Na15  1  0.66602736  0.66607179  0.16613938  1
  Na  Na16  1  0.16526348  0.67194741  0.66371544  1
  Na  Na17  1  0.66278166  0.67520951  0.66936682  1
  Mg  Mg18  1  0.99673359  0.99939126  0.35196177  1
  Mg  Mg19  1  0.49613463  0.99939512  0.35203699  1
  Mg  Mg20  1  0.00128433  0.00769564  0.85203150  1
  Mg  Mg21  1  0.49651076  0.99526066  0.85036862  1
  Mg  Mg22  1  0.49712276  0.99365068  0.64980100  1
  Mg  Mg23  1  0.33660254  0.33128019  0.68245109  1
  Mg  Mg24  1  0.83207824  0.33058780  0.68531995  1
  Mg  Mg25  1  0.33328620  0.33305295  0.18403631  1
  Mg  Mg26  1  0.83312270  0.33310169  0.18418350  1
  Mg  Mg27  1  0.33356695  0.33656091  0.98358725  1
  Mg  Mg28  1  0.83318679  0.32197888  0.98624919  1
  Mg  Mg29  1  0.33610935  0.34110037  0.48378856  1
  Mg  Mg30  1  0.84046044  0.34009331  0.48394189  1
  Mg  Mg31  1  0.16967425  0.66779349  0.01818822  1
  Mg  Mg32  1  0.66488515  0.66821543  0.01857641  1
  Mg  Mg33  1  0.16756426  0.66214086  0.51843942  1
  Mg  Mg34  1  0.66596007  0.67133622  0.51660370  1
  Mg  Mg35  1  0.16685595  0.66389008  0.31439983  1
  Mg  Mg36  1  0.66657572  0.66402053  0.31379159  1
  Mg  Mg37  1  0.16641785  0.67186839  0.81669577  1
  Mg  Mg38  1  0.66515319  0.66550683  0.81474702  1
  Ge  Ge39  1  0.00075060  0.00291663  0.65045578  1
  Ge  Ge40  1  0.00045058  0.00124698  0.15050742  1
  Ge  Ge41  1  0.49883408  0.99919885  0.15004376  1
  S  S42  1  0.14472609  -0.00008446  0.24962111  1
  S  S43  1  0.64429977  0.00020245  0.24957227  1
  S  S44  1  0.35537404  0.71074046  0.24870304  1
  S  S45  1  0.85602317  0.71218128  0.24851714  1
  S  S46  1  0.00018069  0.28922162  0.24868387  1
  S  S47  1  0.50004104  0.28822673  0.24850577  1
  S  S48  1  0.14452582  0.28912849  0.74881060  1
  S  S49  1  0.64870331  0.29681709  0.75003362  1
  S  S50  1  0.99992807  0.71163010  0.74937832  1
  S  S51  1  0.50112746  0.70498750  0.74959466  1
  S  S52  1  0.35143599  0.00161942  0.75027643  1
  S  S53  1  0.85642819  -0.00017633  0.74869785  1
  S  S54  1  0.48126363  0.33324257  0.58282652  1
  S  S55  1  0.98094721  0.32738557  0.58691542  1
  S  S56  1  0.18103835  0.03572148  0.58560076  1
  S  S57  1  0.68679258  0.03812987  0.58263263  1
  S  S58  1  0.33241523  0.62862372  0.58497074  1
  S  S59  1  0.83776781  0.63566060  0.58576856  1
  S  S60  1  0.48084157  0.63505114  0.08652342  1
  S  S61  1  0.98187219  0.63606355  0.08531185  1
  S  S62  1  0.33627347  0.03886675  0.08611496  1
  S  S63  1  0.83621876  0.03563151  0.08688032  1
  S  S64  1  0.18266113  0.32671259  0.08642303  1
  S  S65  1  0.68185118  0.32715899  0.08546515  1
  S  S66  1  0.31397977  0.66433908  0.91564703  1
  S  S67  1  0.81357100  0.66921774  0.91763229  1
  S  S68  1  0.02007226  0.37291949  0.91743866  1
  S  S69  1  0.51874497  0.37329999  0.91696643  1
  S  S70  1  0.16784977  0.96396022  0.91724028  1
  S  S71  1  0.66718456  0.95993993  0.91650084  1
  S  S72  1  0.31331935  0.96021490  0.41714629  1
  S  S73  1  0.81375077  0.95944036  0.41663526  1
  S  S74  1  0.16672855  0.37274055  0.41626984  1
  S  S75  1  0.66749018  0.37302018  0.41738369  1
  S  S76  1  0.01995106  0.66445823  0.41620791  1
  S  S77  1  0.51865909  0.66465099  0.41502747  1
  O  O78  1  0.10350698  0.02364787  0.30366342  1
  O  O79  1  0.60361909  0.02400383  0.30375410  1
  O  O80  1  0.41054188  0.79532790  0.30099448  1
  O  O81  1  0.91080047  0.79593878  0.30088608  1
  O  O82  1  0.48804599  0.17926185  0.30092759  1
  O  O83  1  0.98758245  0.17915682  0.30093206  1
  O  O84  1  0.10261350  0.17954842  0.80076827  1
  O  O85  1  0.60609214  0.19020457  0.80462714  1
  O  O86  1  0.48555713  0.78745099  0.80283063  1
  O  O87  1  0.98800751  0.79338618  0.80366563  1
  O  O88  1  0.40455370  0.02484346  0.80431806  1
  O  O89  1  0.91150185  0.02439281  0.80105112  1
  O  O90  1  0.39252181  0.97017104  0.69694348  1
  O  O91  1  0.89790144  0.96790573  0.69220133  1
  O  O92  1  0.08783222  0.20852196  0.69250267  1
  O  O93  1  0.59598350  0.21228965  0.69511401  1
  O  O94  1  0.01590851  0.83039435  0.69407920  1
  O  O95  1  0.51221905  0.81095794  0.69544743  1
  O  O96  1  0.39632598  0.82568874  0.19216511  1
  O  O97  1  0.89726306  0.82717302  0.19213017  1
  O  O98  1  0.01609952  0.20681390  0.19211684  1
  O  O99  1  0.51612869  0.20550830  0.19208205  1
  O  O100  1  0.08548139  0.96800165  0.19425341  1
  O  O101  1  0.58540109  0.96910000  0.19432108  1
  O  O102  1  0.44125261  0.35785112  0.63695435  1
  O  O103  1  0.93911370  0.35036061  0.63997449  1
  O  O104  1  0.23540236  0.12360236  0.63775793  1
  O  O105  1  0.74175055  0.12676739  0.63521363  1
  O  O106  1  0.32144630  0.52609521  0.64076739  1
  O  O107  1  0.82335335  0.52411519  0.63852414  1
  O  O108  1  0.43948903  0.52923782  0.14000298  1
  O  O109  1  0.93747834  0.52536783  0.13720109  1
  O  O110  1  0.32482858  0.12096308  0.13985158  1
  O  O111  1  0.82469543  0.12058472  0.13983288  1
  O  O112  1  0.23515486  0.34920116  0.14006837  1
  O  O113  1  0.73701510  0.34880315  0.13748122  1
  O  O114  1  0.21988366  0.29304275  0.03243717  1
  O  O115  1  0.71857013  0.29598655  0.02958210  1
  O  O116  1  0.42710717  0.56075981  0.03239942  1
  O  O117  1  0.92947597  0.56354819  0.02931238  1
  O  O118  1  0.35199551  0.14651291  0.03215164  1
  O  O119  1  0.85317381  0.14365490  0.03225500  1
  O  O120  1  0.21592710  0.13783612  0.52949835  1
  O  O121  1  0.72691038  0.14883752  0.52765205  1
  O  O122  1  0.34323563  0.53975731  0.53223262  1
  O  O123  1  0.85363763  0.56005071  0.53134023  1
  O  O124  1  0.42766265  0.30875052  0.52916317  1
  O  O125  1  0.92745388  0.29266124  0.53219560  1
  O  O126  1  0.26984797  0.68841779  0.96800106  1
  O  O127  1  0.77297333  0.69233501  0.97130869  1
  O  O128  1  0.07277569  0.45628410  0.97108309  1
  O  O129  1  0.57603738  0.45497421  0.97025619  1
  O  O130  1  0.15084962  0.84778108  0.97000282  1
  O  O131  1  0.65614070  0.85666230  0.97079375  1
  O  O132  1  0.27178702  0.85390984  0.47093894  1
  O  O133  1  0.77230557  0.85310193  0.47053910  1
  O  O134  1  0.15414587  0.45342749  0.46997349  1
  O  O135  1  0.65628580  0.45167340  0.47336886  1
  O  O136  1  0.07592625  0.69458025  0.46966374  1
  O  O137  1  0.57507124  0.69694098  0.46865839  1
  O  O138  1  0.06076949  0.64109116  0.36186520  1
  O  O139  1  0.56084851  0.64211731  0.36119292  1
  O  O140  1  0.25760895  0.87968806  0.36318543  1
  O  O141  1  0.75751024  0.87827555  0.36306401  1
  O  O142  1  0.17883801  0.47752173  0.36190432  1
  O  O143  1  0.67853347  0.48170359  0.36464938  1
  O  O144  1  0.05997263  0.48425340  0.86329967  1
  O  O145  1  0.56032992  0.47942709  0.86295837  1
  O  O146  1  0.17840576  0.88110016  0.86251643  1
  O  O147  1  0.68045624  0.88012776  0.86259574  1
  O  O148  1  0.26281101  0.64071950  0.85926527  1
  O  O149  1  0.75892446  0.63919621  0.86383301  1
  O  O150  1  0.01214512  0.82898226  0.41093275  1
  O  O151  1  0.51144419  0.82974213  0.40980152  1
  O  O152  1  0.40306715  0.98123355  0.41104309  1
  O  O153  1  0.90328607  0.98004412  0.41084403  1
  O  O154  1  0.08720091  0.18833854  0.41113013  1
  O  O155  1  0.58776292  0.19012589  0.41202888  1
  O  O156  1  0.00898569  0.19322171  0.91110619  1
  O  O157  1  0.51158290  0.19361824  0.91135268  1
  O  O158  1  0.08490444  0.97807145  0.91155299  1
  O  O159  1  0.58783835  0.98478787  0.91110708  1
  O  O160  1  0.40368275  0.82608546  0.91118985  1
  O  O161  1  0.90548533  0.82474639  0.91133414  1
  O  O162  1  0.49350409  0.17423225  0.58789513  1
  O  O163  1  0.98877558  0.15689704  0.59283029  1
  O  O164  1  0.08828021  0.02061414  0.59230013  1
  O  O165  1  0.59756823  0.02429170  0.58812998  1
  O  O166  1  0.41344511  0.80799999  0.58877438  1
  O  O167  1  0.92029052  0.81915593  0.59251316  1
  O  O168  1  0.48920192  0.82139869  0.09257875  1
  O  O169  1  0.98909058  0.82013416  0.09192930  1
  O  O170  1  0.42151010  0.02344896  0.09193433  1
  O  O171  1  0.92131862  0.02170053  0.09268724  1
  O  O172  1  0.08949538  0.15650751  0.09248271  1
  O  O173  1  0.59014848  0.15787608  0.09184117  1
  O  O174  1  0.34026693  0.15836523  0.74392328  1
  O  O175  1  0.84963274  0.16150206  0.74131906  1
  O  O176  1  0.23392933  0.31041298  0.74115741  1
  O  O177  1  0.73813481  0.31260025  0.74573082  1
  O  O178  1  0.41848889  0.52549478  0.74462040  1
  O  O179  1  0.91971992  0.53737366  0.74102396  1
  O  O180  1  0.34764368  0.53475144  0.24110396  1
  O  O181  1  0.84823299  0.53586021  0.24069534  1
  O  O182  1  0.41992057  0.30388024  0.24104277  1
  O  O183  1  0.91973500  0.30475911  0.24106479  1
  O  O184  1  0.23191313  0.16067562  0.24156735  1
  O  O185  1  0.73188763  0.16146066  0.24152057  1
  O  O186  1  0.32287541  0.50358311  0.92201729  1
  O  O187  1  0.82360239  0.50542373  0.92313272  1
  O  O188  1  0.42962722  0.35270162  0.92404482  1
  O  O189  1  0.93000096  0.35824757  0.92289944  1
  O  O190  1  0.24651462  0.14128265  0.92399885  1
  O  O191  1  0.74692003  0.14535607  0.92200628  1
  O  O192  1  0.32090322  0.14001446  0.42290153  1
  O  O193  1  0.82158409  0.13945657  0.42226382  1
  O  O194  1  0.24603689  0.34719857  0.42158997  1
  O  O195  1  0.74715360  0.34890388  0.42200333  1
  O  O196  1  0.42935061  0.50700590  0.42140884  1
  O  O197  1  0.93003193  0.50619058  0.42257305  1
  O  O198  1  0.16880837  0.48075602  0.07999981  1
  O  O199  1  0.66944177  0.48251995  0.07979293  1
  O  O200  1  0.07192393  0.66146269  0.07952026  1
  O  O201  1  0.57161253  0.66219605  0.08030524  1
  O  O202  1  0.25945306  0.85667343  0.07995625  1
  O  O203  1  0.75923636  0.85567150  0.08029122  1
  O  O204  1  0.16751394  0.85424981  0.58014866  1
  O  O205  1  0.67685490  0.85976331  0.57725156  1
  O  O206  1  0.25240156  0.64808366  0.57960423  1
  O  O207  1  0.75778945  0.65485163  0.57923465  1
  O  O208  1  0.07099831  0.48143839  0.58023728  1
  O  O209  1  0.57326711  0.49243251  0.57759870  1
  O  O210  1  0.15225627  0.83811938  0.25229085  1
  O  O211  1  0.65232775  0.83877035  0.25216553  1
  O  O212  1  0.26700935  0.69590054  0.25226216  1
  O  O213  1  0.76749559  0.69684177  0.25194730  1
  O  O214  1  0.08078672  0.46602585  0.25202034  1
  O  O215  1  0.58118260  0.46533243  0.25168707  1
  O  O216  1  0.15416214  0.46933734  0.75251542  1
  O  O217  1  0.65820965  0.47600766  0.75454005  1
  O  O218  1  0.08053726  0.69603035  0.75217952  1
  O  O219  1  0.58039668  0.68551288  0.75541948  1
  O  O220  1  0.26202389  0.83511435  0.75533755  1
  O  O221  1  0.76818393  0.83944347  0.75204079  1
