# generated using pymatgen
data_Na3InSiGe(PO6)2
_symmetry_space_group_name_H-M   'P 1'
_cell_length_a   15.45657156
_cell_length_b   8.97403141
_cell_length_c   9.03458870
_cell_angle_alpha   90.00000000
_cell_angle_beta   126.12657632
_cell_angle_gamma   90.00000000
_symmetry_Int_Tables_number   1
_chemical_formula_structural   Na3InSiGe(PO6)2
_chemical_formula_sum   'Na12 In4 Si4 Ge4 P8 O48'
_cell_volume   1012.20410879
_cell_formula_units_Z   4
loop_
 _symmetry_equiv_pos_site_id
 _symmetry_equiv_pos_as_xyz
  1  'x, y, z'
loop_
 _atom_site_type_symbol
 _atom_site_label
 _atom_site_symmetry_multiplicity
 _atom_site_fract_x
 _atom_site_fract_y
 _atom_site_fract_z
 _atom_site_occupancy
  Na  Na0  1  0.25165728  0.73018394  0.99622012  1
  Na  Na1  1  0.75165728  0.76981606  0.49622012  1
  Na  Na2  1  0.75165728  0.23018394  0.99622012  1
  Na  Na3  1  0.25165728  0.26981606  0.49622012  1
  Na  Na4  1  0.50621038  0.10223774  0.75586592  1
  Na  Na5  1  0.50621038  0.89776226  0.25586592  1
  Na  Na6  1  0.00621038  0.60223774  0.75586592  1
  Na  Na7  1  0.00621038  0.39776226  0.25586592  1
  Na  Na8  1  0.18593370  0.93143871  0.29079883  1
  Na  Na9  1  0.18593370  0.06856129  0.79079883  1
  Na  Na10  1  0.68593370  0.43143871  0.29079883  1
  Na  Na11  1  0.68593370  0.56856129  0.79079883  1
  In  In12  1  0.10304836  0.74644359  0.56110308  1
  In  In13  1  0.10304836  0.25355641  0.06110308  1
  In  In14  1  0.60304836  0.24644359  0.56110308  1
  In  In15  1  0.60304836  0.75355641  0.06110308  1
  Si  Si16  1  0.65006572  0.88776752  0.74797326  1
  Si  Si17  1  0.65006572  0.11223248  0.24797326  1
  Si  Si18  1  0.15006572  0.38776752  0.74797326  1
  Si  Si19  1  0.15006572  0.61223248  0.24797326  1
  Ge  Ge20  1  0.89818046  0.76131432  0.93365760  1
  Ge  Ge21  1  0.89818046  0.23868568  0.43365760  1
  Ge  Ge22  1  0.39818046  0.26131432  0.93365760  1
  Ge  Ge23  1  0.39818046  0.73868568  0.43365760  1
  P  P24  1  0.99191850  0.95930566  0.74962713  1
  P  P25  1  0.99191850  0.04069434  0.24962713  1
  P  P26  1  0.49191850  0.45930566  0.74962713  1
  P  P27  1  0.49191850  0.54069434  0.24962713  1
  P  P28  1  0.35355926  0.90870503  0.75430704  1
  P  P29  1  0.35355926  0.09129497  0.25430704  1
  P  P30  1  0.85355926  0.40870503  0.75430704  1
  P  P31  1  0.85355926  0.59129497  0.25430704  1
  O  O32  1  0.15615538  0.56741359  0.74660628  1
  O  O33  1  0.85386047  0.58559871  0.75611750  1
  O  O34  1  0.85386047  0.41440129  0.25611750  1
  O  O35  1  0.15615538  0.43258641  0.24660628  1
  O  O36  1  0.65615538  0.06741359  0.74660628  1
  O  O37  1  0.35386047  0.08559871  0.75611750  1
  O  O38  1  0.35386047  0.91440129  0.25611750  1
  O  O39  1  0.65615538  0.93258641  0.24660628  1
  O  O40  1  0.42648332  0.56289797  0.57747604  1
  O  O41  1  0.56282776  0.54356072  0.92938250  1
  O  O42  1  0.56282776  0.45643928  0.42938250  1
  O  O43  1  0.42648332  0.43710203  0.07747604  1
  O  O44  1  0.92648332  0.06289797  0.57747604  1
  O  O45  1  0.06282776  0.04356072  0.92938250  1
  O  O46  1  0.06282776  0.95643928  0.42938250  1
  O  O47  1  0.92648332  0.93710203  0.07747604  1
  O  O48  1  0.25541159  0.85892919  0.74577503  1
  O  O49  1  0.75135204  0.80122434  0.76471592  1
  O  O50  1  0.75135204  0.19877566  0.26471592  1
  O  O51  1  0.25541159  0.14107081  0.24577503  1
  O  O52  1  0.75541159  0.35892919  0.74577503  1
  O  O53  1  0.25135204  0.30122434  0.76471592  1
  O  O54  1  0.25135204  0.69877566  0.26471592  1
  O  O55  1  0.75541159  0.64107081  0.24577503  1
  O  O56  1  0.35412540  0.86846847  0.58597227  1
  O  O57  1  0.65090203  0.84502608  0.91900194  1
  O  O58  1  0.65090203  0.15497392  0.41900194  1
  O  O59  1  0.35412540  0.13153153  0.08597227  1
  O  O60  1  0.85412540  0.36846847  0.58597227  1
  O  O61  1  0.15090203  0.34502608  0.91900194  1
  O  O62  1  0.15090203  0.65497392  0.41900194  1
  O  O63  1  0.85412540  0.63153153  0.08597227  1
  O  O64  1  0.45096574  0.85130664  0.93647592  1
  O  O65  1  0.53897653  0.80987711  0.55666217  1
  O  O66  1  0.53897653  0.19012289  0.05666217  1
  O  O67  1  0.45096574  0.14869336  0.43647592  1
  O  O68  1  0.95096574  0.35130664  0.93647592  1
  O  O69  1  0.03897653  0.30987711  0.55666217  1
  O  O70  1  0.03897653  0.69012289  0.05666217  1
  O  O71  1  0.95096574  0.64869336  0.43647592  1
  O  O72  1  0.06886647  0.85523514  0.74108716  1
  O  O73  1  0.90949961  0.85942019  0.75117428  1
  O  O74  1  0.90949961  0.14057981  0.25117428  1
  O  O75  1  0.06886647  0.14476486  0.24108716  1
  O  O76  1  0.56886647  0.35523514  0.74108716  1
  O  O77  1  0.40949961  0.35942019  0.75117428  1
  O  O78  1  0.40949961  0.64057981  0.25117428  1
  O  O79  1  0.56886647  0.64476486  0.24108716  1
