# generated using pymatgen
data_Na4SnO3
_symmetry_space_group_name_H-M   'P 1'
_cell_length_a   5.78080872
_cell_length_b   5.84671795
_cell_length_c   8.77001450
_cell_angle_alpha   83.51603032
_cell_angle_beta   70.75682821
_cell_angle_gamma   69.96249469
_symmetry_Int_Tables_number   1
_chemical_formula_structural   Na4SnO3
_chemical_formula_sum   'Na8 Sn2 O6'
_cell_volume   262.91436281
_cell_formula_units_Z   2
loop_
 _symmetry_equiv_pos_site_id
 _symmetry_equiv_pos_as_xyz
  1  'x, y, z'
loop_
 _atom_site_type_symbol
 _atom_site_label
 _atom_site_symmetry_multiplicity
 _atom_site_fract_x
 _atom_site_fract_y
 _atom_site_fract_z
 _atom_site_occupancy
  Na  Na0  1  0.52320967  0.25224348  0.93312455  1
  Na  Na1  1  0.96338180  0.21872194  0.08705979  1
  Na  Na2  1  0.59950620  0.69351785  0.71698255  1
  Na  Na3  1  0.31648875  0.19351785  0.28301745  1
  Na  Na4  1  0.75435705  0.24950650  0.50752320  1
  Na  Na5  1  0.26187926  0.74950650  0.49247680  1
  Na  Na6  1  0.05044259  0.71872194  0.91294021  1
  Na  Na7  1  0.45633422  0.75224348  0.06687545  1
  Sn  Sn8  1  0.86715528  0.74872959  0.28631086  1
  Sn  Sn9  1  0.15346614  0.24872959  0.71368914  1
  O  O10  1  0.05014998  0.97172261  0.32138740  1
  O  O11  1  0.37153738  0.47172261  0.67861260  1
  O  O12  1  0.17861396  0.51151463  0.13154917  1
  O  O13  1  0.31016314  0.01151463  0.86845083  1
  O  O14  1  0.70340635  0.96154439  0.12449788  1
  O  O15  1  0.82790623  0.46154439  0.87550212  1
