# generated using pymatgen
data_Na6Zr4Si5SO24
_symmetry_space_group_name_H-M   'P 1'
_cell_length_a   9.23115049
_cell_length_b   9.23059318
_cell_length_c   23.09166093
_cell_angle_alpha   89.93181113
_cell_angle_beta   89.97598489
_cell_angle_gamma   119.93578160
_symmetry_Int_Tables_number   1
_chemical_formula_structural   Na6Zr4Si5SO24
_chemical_formula_sum   'Na18 Zr12 Si15 S3 O72'
_cell_volume   1705.10572431
_cell_formula_units_Z   3
loop_
 _symmetry_equiv_pos_site_id
 _symmetry_equiv_pos_as_xyz
  1  'x, y, z'
loop_
 _atom_site_type_symbol
 _atom_site_label
 _atom_site_symmetry_multiplicity
 _atom_site_fract_x
 _atom_site_fract_y
 _atom_site_fract_z
 _atom_site_occupancy
  Na  Na0  1  0.64013436  0.00355730  0.25200955  1
  Na  Na1  1  0.36052267  0.36326903  0.24746159  1
  Na  Na2  1  0.00002448  0.63447681  0.25039554  1
  Na  Na3  1  0.63535531  0.63466930  0.74800185  1
  Na  Na4  1  0.99670019  0.36268452  0.75022556  1
  Na  Na5  1  0.36772750  0.00411502  0.75040669  1
  Na  Na6  1  0.30107266  0.33222548  0.58527587  1
  Na  Na7  1  0.02928893  0.69922567  0.58315162  1
  Na  Na8  1  0.67091190  0.96965348  0.58339157  1
  Na  Na9  1  0.03894000  0.33579918  0.08663381  1
  Na  Na10  1  0.97707111  0.66719754  0.91707946  1
  Na  Na11  1  0.33290496  0.02582088  0.41663144  1
  Na  Na12  1  0.98292119  0.98913061  0.49840938  1
  Na  Na13  1  0.02060932  0.00777639  0.00010723  1
  Na  Na14  1  0.66070959  0.31528758  0.83418178  1
  Na  Na15  1  0.68475722  0.33847843  0.33593772  1
  Na  Na16  1  0.33568962  0.66456925  0.16539847  1
  Na  Na17  1  0.33503236  0.66582491  0.66680904  1
  Zr  Zr18  1  0.98580409  0.98984854  0.35171888  1
  Zr  Zr19  1  0.01148579  0.01453159  0.85221857  1
  Zr  Zr20  1  0.99979997  0.99950817  0.64896704  1
  Zr  Zr21  1  0.00928111  0.99374962  0.14792878  1
  Zr  Zr22  1  0.66848078  0.33391275  0.68449321  1
  Zr  Zr23  1  0.66617622  0.34304593  0.18530537  1
  Zr  Zr24  1  0.65634906  0.32911203  0.98054572  1
  Zr  Zr25  1  0.68134091  0.33699438  0.48157857  1
  Zr  Zr26  1  0.31705059  0.65857515  0.01921625  1
  Zr  Zr27  1  0.33665265  0.67789426  0.51876104  1
  Zr  Zr28  1  0.32948248  0.67211591  0.31456793  1
  Zr  Zr29  1  0.32519871  0.66996706  0.81482580  1
  Si  Si30  1  0.29504905  0.00283239  0.25284115  1
  Si  Si31  1  0.70656343  0.70929983  0.24863388  1
  Si  Si32  1  0.99948499  0.28971303  0.24819881  1
  Si  Si33  1  0.29678471  0.29662307  0.74869482  1
  Si  Si34  1  0.99689142  0.70691691  0.75163859  1
  Si  Si35  1  0.70721697  0.99877280  0.75021655  1
  Si  Si36  1  0.96374322  0.33292066  0.58441676  1
  Si  Si37  1  0.37412675  0.04383460  0.58200932  1
  Si  Si38  1  0.66579121  0.62519975  0.58347161  1
  Si  Si39  1  0.95609222  0.62822374  0.08162290  1
  Si  Si40  1  0.37026763  0.33487984  0.08376722  1
  Si  Si41  1  0.03341467  0.36759140  0.91712095  1
  Si  Si42  1  0.33388243  0.96253707  0.91633579  1
  Si  Si43  1  0.63072822  0.96468535  0.41664430  1
  Si  Si44  1  0.03536838  0.66760347  0.41638821  1
  S  S45  1  0.66600563  0.04111826  0.08344295  1
  S  S46  1  0.62503008  0.66728925  0.91671252  1
  S  S47  1  0.33322096  0.37341875  0.41677385  1
  O  O48  1  0.21417720  0.03907504  0.30994753  1
  O  O49  1  0.82926394  0.79113772  0.30495197  1
  O  O50  1  0.96732598  0.16543055  0.30325391  1
  O  O51  1  0.20587575  0.17050475  0.80356904  1
  O  O52  1  0.96634171  0.79299545  0.80841967  1
  O  O53  1  0.83373782  0.03126108  0.80407055  1
  O  O54  1  0.78882738  0.96704023  0.69137398  1
  O  O55  1  0.17877364  0.21447457  0.69117079  1
  O  O56  1  0.03158509  0.82428595  0.69382190  1
  O  O57  1  0.79369315  0.83433503  0.19387053  1
  O  O58  1  0.03166881  0.20820245  0.18995546  1
  O  O59  1  0.16971579  0.96459630  0.19741983  1
  O  O60  1  0.88210271  0.36944475  0.64194855  1
  O  O61  1  0.49211621  0.12729481  0.63947087  1
  O  O62  1  0.63359504  0.51159578  0.64224816  1
  O  O63  1  0.87169907  0.50790772  0.13933181  1
  O  O64  1  0.64125071  0.11607272  0.13712456  1
  O  O65  1  0.47952545  0.35289075  0.14263887  1
  O  O66  1  0.46836287  0.30937703  0.02920412  1
  O  O67  1  0.84536853  0.53075644  0.02461465  1
  O  O68  1  0.68959760  0.15018680  0.03274433  1
  O  O69  1  0.45979264  0.16049449  0.52504038  1
  O  O70  1  0.69778047  0.53106682  0.52944541  1
  O  O71  1  0.83734267  0.29777491  0.52972127  1
  O  O72  1  0.54052735  0.68558074  0.96789884  1
  O  O73  1  0.15105942  0.46073906  0.97439188  1
  O  O74  1  0.31174857  0.83737088  0.97055487  1
  O  O75  1  0.53906217  0.84986070  0.47453970  1
  O  O76  1  0.31460504  0.45559921  0.46921319  1
  O  O77  1  0.15399763  0.68981289  0.47329252  1
  O  O78  1  0.12741310  0.64416185  0.35862455  1
  O  O79  1  0.51192546  0.86822248  0.35982443  1
  O  O80  1  0.35204142  0.47404216  0.36406763  1
  O  O81  1  0.12813675  0.48821550  0.86023688  1
  O  O82  1  0.35855903  0.87612705  0.85713311  1
  O  O83  1  0.52708984  0.64571638  0.86306238  1
  O  O84  1  0.03918186  0.84776982  0.41257719  1
  O  O85  1  0.81730426  0.98704003  0.41249087  1
  O  O86  1  0.18286877  0.20415632  0.41290323  1
  O  O87  1  0.01361456  0.18236555  0.91285755  1
  O  O88  1  0.15459893  0.96103694  0.91270452  1
  O  O89  1  0.79558817  0.81500607  0.91263750  1
  O  O90  1  0.97982058  0.16474156  0.58858437  1
  O  O91  1  0.18691802  0.02082331  0.58824473  1
  O  O92  1  0.83264326  0.81180774  0.58821715  1
  O  O93  1  0.97428278  0.81265440  0.08700835  1
  O  O94  1  0.82250642  0.03316926  0.08755070  1
  O  O95  1  0.17762379  0.17467579  0.08726319  1
  O  O96  1  0.68635797  0.16519667  0.74524825  1
  O  O97  1  0.48105346  0.31220215  0.74438617  1
  O  O98  1  0.83242215  0.52011173  0.74545199  1
  O  O99  1  0.68960218  0.52295884  0.24323813  1
  O  O100  1  0.83195389  0.30955555  0.24304465  1
  O  O101  1  0.48256373  0.16393600  0.24351884  1
  O  O102  1  0.64481601  0.51571330  0.92131410  1
  O  O103  1  0.85548694  0.36725277  0.92242433  1
  O  O104  1  0.49814227  0.14843422  0.92237462  1
  O  O105  1  0.62742795  0.14148901  0.42051595  1
  O  O106  1  0.48347792  0.35391273  0.42053558  1
  O  O107  1  0.84933367  0.50315434  0.42057047  1
  O  O108  1  0.35377429  0.50433198  0.07819443  1
  O  O109  1  0.14185402  0.63953593  0.07797420  1
  O  O110  1  0.51891841  0.87256442  0.07656756  1
  O  O111  1  0.35540986  0.85580059  0.57777719  1
  O  O112  1  0.49665670  0.64081159  0.57667837  1
  O  O113  1  0.14923388  0.49797290  0.57628757  1
  O  O114  1  0.31286987  0.83340105  0.25621651  1
  O  O115  1  0.51823180  0.68200396  0.25682529  1
  O  O116  1  0.16754561  0.47565727  0.25638403  1
  O  O117  1  0.31739852  0.48246533  0.75684378  1
  O  O118  1  0.16635872  0.68842948  0.75563064  1
  O  O119  1  0.52266904  0.82969947  0.75686041  1
