# generated using pymatgen
data_MgMnCo5O12
_symmetry_space_group_name_H-M   'P 1'
_cell_length_a   4.90643857
_cell_length_b   4.91255741
_cell_length_c   10.00232937
_cell_angle_alpha   85.80233147
_cell_angle_beta   81.87608019
_cell_angle_gamma   60.02418326
_symmetry_Int_Tables_number   1
_chemical_formula_structural   MgMnCo5O12
_chemical_formula_sum   'Mg1 Mn1 Co5 O12'
_cell_volume   206.74228581
_cell_formula_units_Z   1
loop_
 _symmetry_equiv_pos_site_id
 _symmetry_equiv_pos_as_xyz
  1  'x, y, z'
loop_
 _atom_site_type_symbol
 _atom_site_label
 _atom_site_symmetry_multiplicity
 _atom_site_fract_x
 _atom_site_fract_y
 _atom_site_fract_z
 _atom_site_occupancy
  Mg  Mg0  1  0.92153854  0.33598661  0.24925387  1
  Mn  Mn1  1  0.98812522  0.99720223  0.99554758  1
  Co  Co2  1  0.18258717  0.66778052  0.49707729  1
  Co  Co3  1  0.65223267  0.66895244  0.99648189  1
  Co  Co4  1  0.32155630  0.33335489  0.99883044  1
  Co  Co5  1  0.84562421  0.33435417  0.50971066  1
  Co  Co6  1  0.51599068  0.00097792  0.49708922  1
  O  O7  1  0.95292076  0.65740286  0.10267629  1
  O  O8  1  0.35541158  0.66337060  0.90152356  1
  O  O9  1  0.19945128  0.33504153  0.39841961  1
  O  O10  1  0.55559238  0.65705503  0.39849483  1
  O  O11  1  0.47560666  0.33375852  0.59437028  1
  O  O12  1  0.16729503  0.98780785  0.59453288  1
  O  O13  1  0.82140143  0.67968665  0.59439616  1
  O  O14  1  0.63543430  0.33688626  0.10312462  1
  O  O15  1  0.28077668  0.00866331  0.10298067  1
  O  O16  1  0.01214169  0.34046984  0.90156692  1
  O  O17  1  0.67619691  -0.00191417  0.90164585  1
  O  O18  1  0.87761653  0.01316292  0.39838837  1
