# generated using pymatgen
data_GdVO4
_symmetry_space_group_name_H-M   'P 1'
_cell_length_a   6.01550880
_cell_length_b   6.01550847
_cell_length_c   6.01550966
_cell_angle_alpha   106.19449445
_cell_angle_beta   106.19448601
_cell_angle_gamma   116.24448842
_symmetry_Int_Tables_number   1
_chemical_formula_structural   GdVO4
_chemical_formula_sum   'Gd2 V2 O8'
_cell_volume   165.79319203
_cell_formula_units_Z   2
loop_
 _symmetry_equiv_pos_site_id
 _symmetry_equiv_pos_as_xyz
  1  'x, y, z'
loop_
 _atom_site_type_symbol
 _atom_site_label
 _atom_site_symmetry_multiplicity
 _atom_site_fract_x
 _atom_site_fract_y
 _atom_site_fract_z
 _atom_site_occupancy
  Gd  Gd0  1  0.87500000  0.12500000  0.75000000  1
  Gd  Gd1  1  0.12500000  0.87500000  0.25000000  1
  V  V2  1  0.62499900  0.37500100  0.25000000  1
  V  V3  1  0.37500100  0.62499900  0.75000000  1
  O  O4  1  0.79771331  0.73049387  0.43278056  1
  O  O5  1  0.79771331  0.36493175  0.06721844  1
  O  O6  1  0.26950613  0.20228669  0.06721944  1
  O  O7  1  0.20228669  0.63506825  0.93278156  1
  O  O8  1  0.20228669  0.26950613  0.56721944  1
  O  O9  1  0.63506825  0.20228669  0.43278156  1
  O  O10  1  0.36493175  0.79771331  0.56721844  1
  O  O11  1  0.73049387  0.79771331  0.93278056  1
