# generated using pymatgen
data_Sb2O3
_symmetry_space_group_name_H-M   'P 1'
_cell_length_a   4.96361487
_cell_length_b   5.40283676
_cell_length_c   12.37936514
_cell_angle_alpha   90.00000000
_cell_angle_beta   90.00000000
_cell_angle_gamma   90.00000000
_symmetry_Int_Tables_number   1
_chemical_formula_structural   Sb2O3
_chemical_formula_sum   'Sb8 O12'
_cell_volume   331.98487350
_cell_formula_units_Z   4
loop_
 _symmetry_equiv_pos_site_id
 _symmetry_equiv_pos_as_xyz
  1  'x, y, z'
loop_
 _atom_site_type_symbol
 _atom_site_label
 _atom_site_symmetry_multiplicity
 _atom_site_fract_x
 _atom_site_fract_y
 _atom_site_fract_z
 _atom_site_occupancy
  Sb  Sb0  1  0.95852590  0.82224158  0.87261043  1
  Sb  Sb1  1  0.45852590  0.67775842  0.12738957  1
  Sb  Sb2  1  0.54147410  0.82224158  0.62738957  1
  Sb  Sb3  1  0.04147410  0.67775842  0.37261043  1
  Sb  Sb4  1  0.04147410  0.17775842  0.12738957  1
  Sb  Sb5  1  0.54147410  0.32224158  0.87261043  1
  Sb  Sb6  1  0.45852590  0.17775842  0.37261043  1
  Sb  Sb7  1  0.95852590  0.32224158  0.62738957  1
  O  O8  1  0.75000000  0.98466754  0.75000000  1
  O  O9  1  0.25000000  0.51533246  0.25000000  1
  O  O10  1  0.25000000  0.01533246  0.25000000  1
  O  O11  1  0.75000000  0.48466754  0.75000000  1
  O  O12  1  0.85085753  0.14750802  0.94200839  1
  O  O13  1  0.35085753  0.35249198  0.05799161  1
  O  O14  1  0.64914247  0.14750802  0.55799161  1
  O  O15  1  0.14914247  0.35249198  0.44200839  1
  O  O16  1  0.14914247  0.85249198  0.05799161  1
  O  O17  1  0.64914247  0.64750802  0.94200839  1
  O  O18  1  0.35085753  0.85249198  0.44200839  1
  O  O19  1  0.85085753  0.64750802  0.55799161  1
