# generated using pymatgen
data_Na14Mg6Si5Sn2S7O48
_symmetry_space_group_name_H-M   'P 1'
_cell_length_a   18.17775133
_cell_length_b   9.09737612
_cell_length_c   22.37700172
_cell_angle_alpha   90.00327928
_cell_angle_beta   89.87611966
_cell_angle_gamma   120.17641063
_symmetry_Int_Tables_number   1
_chemical_formula_structural   Na14Mg6Si5Sn2S7O48
_chemical_formula_sum   'Na42 Mg18 Si15 Sn6 S21 O144'
_cell_volume   3198.98901811
_cell_formula_units_Z   3
loop_
 _symmetry_equiv_pos_site_id
 _symmetry_equiv_pos_as_xyz
  1  'x, y, z'
loop_
 _atom_site_type_symbol
 _atom_site_label
 _atom_site_symmetry_multiplicity
 _atom_site_fract_x
 _atom_site_fract_y
 _atom_site_fract_z
 _atom_site_occupancy
  Na  Na0  1  0.81051532  0.00307041  0.25012160  1
  Na  Na1  1  0.68670347  0.35501547  0.24501484  1
  Na  Na2  1  0.50481821  0.64618583  0.24728116  1
  Na  Na3  1  0.30840130  0.61582318  0.75052172  1
  Na  Na4  1  0.00486960  0.37810379  0.74689284  1
  Na  Na5  1  0.17498281  0.99847390  0.74442075  1
  Na  Na6  1  0.15152664  0.32530909  0.57808390  1
  Na  Na7  1  0.66322890  0.35379402  0.58293840  1
  Na  Na8  1  0.01614045  0.70205955  0.57857629  1
  Na  Na9  1  0.52389496  0.69012915  0.58641125  1
  Na  Na10  1  0.32721038  0.98648469  0.58353888  1
  Na  Na11  1  0.82519746  0.95554202  0.58659544  1
  Na  Na12  1  0.15949904  0.96778327  0.07895772  1
  Na  Na13  1  0.65496058  0.98180501  0.07249701  1
  Na  Na14  1  0.32197723  0.69232974  0.08258259  1
  Na  Na15  1  0.82937822  0.67100971  0.07962996  1
  Na  Na16  1  0.02415911  0.35846712  0.08315669  1
  Na  Na17  1  0.51584946  0.33021081  0.06958316  1
  Na  Na18  1  0.48979971  0.66574591  0.91856266  1
  Na  Na19  1  0.98213943  0.66461639  0.91418328  1
  Na  Na20  1  0.35569117  0.04805585  0.92336060  1
  Na  Na21  1  0.84390118  0.03688118  0.91346931  1
  Na  Na22  1  0.16727236  0.29590227  0.91597648  1
  Na  Na23  1  0.66176659  0.28682994  0.92484543  1
  Na  Na24  1  0.48225005  0.30476327  0.42736906  1
  Na  Na25  1  0.99023246  0.31505644  0.42187999  1
  Na  Na26  1  0.15999828  0.03400247  0.42856614  1
  Na  Na27  1  0.67012419  0.04167825  0.42169009  1
  Na  Na28  1  0.34135707  0.65023238  0.41789369  1
  Na  Na29  1  0.85675904  0.66349020  0.42643540  1
  Na  Na30  1  0.00560700  0.99121769  0.49965361  1
  Na  Na31  1  0.50604548  0.01343902  0.50515156  1
  Na  Na32  1  0.00603359  0.99847680  0.00014696  1
  Na  Na33  1  0.50579334  0.01976819  0.99435825  1
  Na  Na34  1  0.33686159  0.33261521  0.83161331  1
  Na  Na35  1  0.82993584  0.33440246  0.82735172  1
  Na  Na36  1  0.31978898  0.32547107  0.33396792  1
  Na  Na37  1  0.84046091  0.34403705  0.33346769  1
  Na  Na38  1  0.16678191  0.66947244  0.15682322  1
  Na  Na39  1  0.66718007  0.66262359  0.16314060  1
  Na  Na40  1  0.15876388  0.67153566  0.66973478  1
  Na  Na41  1  0.66928727  0.66634769  0.65840867  1
  Mg  Mg42  1  0.00606772  0.00305248  0.35570958  1
  Mg  Mg43  1  0.50369836  0.00373036  0.34619955  1
  Mg  Mg44  1  0.00343746  0.99326753  0.84032836  1
  Mg  Mg45  1  0.50582683  0.00903460  0.85507753  1
  Mg  Mg46  1  0.33019639  0.31804158  0.68108448  1
  Mg  Mg47  1  0.82959627  0.34346611  0.68266417  1
  Mg  Mg48  1  0.32185587  0.31579510  0.17770583  1
  Mg  Mg49  1  0.83128382  0.34063908  0.18023249  1
  Mg  Mg50  1  0.33285922  0.31723821  0.98659959  1
  Mg  Mg51  1  0.82731821  0.33527210  0.98596192  1
  Mg  Mg52  1  0.32710582  0.32218415  0.48876033  1
  Mg  Mg53  1  0.83503723  0.34855546  0.49052675  1
  Mg  Mg54  1  0.16679595  0.66931526  0.02320118  1
  Mg  Mg55  1  0.66130060  0.65348902  0.01288837  1
  Mg  Mg56  1  0.15859551  0.66501631  0.51560661  1
  Mg  Mg57  1  0.66767594  0.66759187  0.52532251  1
  Mg  Mg58  1  0.66601015  0.67483850  0.31627858  1
  Mg  Mg59  1  0.16054644  0.65692645  0.81194515  1
  Si  Si60  1  0.65042290  0.00082564  0.25198098  1
  Si  Si61  1  0.15144688  0.29924960  0.75150610  1
  Si  Si62  1  0.99540687  0.68851479  0.75485293  1
  Si  Si63  1  0.47721038  0.33535688  0.58210581  1
  Si  Si64  1  0.18555510  0.03047511  0.58364056  1
  Si  Si65  1  0.69053975  0.04513941  0.58258983  1
  Si  Si66  1  0.83481208  0.63302641  0.58346540  1
  Si  Si67  1  0.97726705  0.61851634  0.08247038  1
  Si  Si68  1  0.33473229  0.03882573  0.08478585  1
  Si  Si69  1  0.18909917  0.33803703  0.08169145  1
  Si  Si70  1  0.68652545  0.34264608  0.08540366  1
  Si  Si71  1  0.51449895  0.36696858  0.91741418  1
  Si  Si72  1  0.66943353  0.96660206  0.92020452  1
  Si  Si73  1  0.16978295  0.37276086  0.41970211  1
  Si  Si74  1  0.01360191  0.66173163  0.41763027  1
  Sn  Sn75  1  0.00526208  0.98936831  0.65222271  1
  Sn  Sn76  1  0.50658540  0.01708963  0.64912324  1
  Sn  Sn77  1  0.00632608  0.99701002  0.14835110  1
  Sn  Sn78  1  0.50361503  0.00645914  0.14896320  1
  Sn  Sn79  1  0.16168037  0.65372588  0.32111735  1
  Sn  Sn80  1  0.66410018  0.67188156  0.81971644  1
  S  S81  1  0.15036207  0.99796531  0.25344720  1
  S  S82  1  0.35093349  0.70464281  0.25203818  1
  S  S83  1  0.85486791  0.71015968  0.25283687  1
  S  S84  1  0.00033693  0.29095378  0.25082737  1
  S  S85  1  0.49828934  0.29718978  0.25355715  1
  S  S86  1  0.64881689  0.30189794  0.75361109  1
  S  S87  1  0.50069163  0.71014428  0.75081896  1
  S  S88  1  0.35711939  0.00166523  0.75272115  1
  S  S89  1  0.84918806  0.99299138  0.75214679  1
  S  S90  1  0.97932193  0.33071086  0.58412084  1
  S  S91  1  0.33389816  0.62795189  0.58411395  1
  S  S92  1  0.47894933  0.62433083  0.08568596  1
  S  S93  1  0.83353617  0.03985396  0.08492211  1
  S  S94  1  0.31140504  0.66665097  0.91560514  1
  S  S95  1  0.81546054  0.67206082  0.91736020  1
  S  S96  1  0.01968338  0.37030226  0.91753359  1
  S  S97  1  0.16610565  0.95631874  0.91628485  1
  S  S98  1  0.31693625  0.96146403  0.41537137  1
  S  S99  1  0.81189442  0.95744728  0.41514959  1
  S  S100  1  0.66397094  0.37484075  0.41396476  1
  S  S101  1  0.51974129  0.66852765  0.41558918  1
  O  O102  1  0.10473830  0.01363007  0.30447016  1
  O  O103  1  0.60500138  0.03379870  0.30846841  1
  O  O104  1  0.40355211  0.79216656  0.30522457  1
  O  O105  1  0.90733501  0.80206965  0.30397177  1
  O  O106  1  0.48472040  0.18831124  0.30585345  1
  O  O107  1  0.99078427  0.18485656  0.30287170  1
  O  O108  1  0.10737728  0.18239074  0.81009071  1
  O  O109  1  0.60290772  0.19554764  0.80469291  1
  O  O110  1  0.49127768  0.79687721  0.80305352  1
  O  O111  1  0.98106971  0.77508707  0.81355985  1
  O  O112  1  0.41054803  0.01760032  0.80369015  1
  O  O113  1  0.90092623  0.01296219  0.80587808  1
  O  O114  1  0.39407801  0.96501001  0.69582230  1
  O  O115  1  0.88850972  0.96915617  0.69693029  1
  O  O116  1  0.08463598  0.21364944  0.69192545  1
  O  O117  1  0.59614261  0.23092278  0.69655409  1
  O  O118  1  0.01843610  0.81455073  0.69421409  1
  O  O119  1  0.51207388  0.81347883  0.69419005  1
  O  O120  1  0.39072131  0.80786621  0.19656003  1
  O  O121  1  0.89141872  0.82005472  0.19625180  1
  O  O122  1  0.01123177  0.21018382  0.19413912  1
  O  O123  1  0.51369568  0.22028629  0.19844394  1
  O  O124  1  0.09892727  0.96760921  0.19636468  1
  O  O125  1  0.58302176  0.95357533  0.19280583  1
  O  O126  1  0.43409625  0.37359767  0.63791052  1
  O  O127  1  0.94009781  0.35453272  0.63765375  1
  O  O128  1  0.24173101  0.11267151  0.64310650  1
  O  O129  1  0.75050355  0.13194813  0.63902155  1
  O  O130  1  0.32146167  0.52560005  0.63778006  1
  O  O131  1  0.81587889  0.50810897  0.63847689  1
  O  O132  1  0.44019079  0.52557689  0.14056191  1
  O  O133  1  0.93514395  0.49707324  0.13938975  1
  O  O134  1  0.32103712  0.12661383  0.14235520  1
  O  O135  1  0.82097610  0.11588665  0.13905538  1
  O  O136  1  0.24741244  0.37570551  0.13977582  1
  O  O137  1  0.73986807  0.36923443  0.14624478  1
  O  O138  1  0.22383443  0.28869538  0.02210047  1
  O  O139  1  0.72376407  0.29761045  0.02662552  1
  O  O140  1  0.42762436  0.54612226  0.03176929  1
  O  O141  1  0.92036006  0.55192248  0.02174347  1
  O  O142  1  0.36088665  0.15492597  0.02443145  1
  O  O143  1  0.84933057  0.14447225  0.03101916  1
  O  O144  1  0.22324913  0.14688855  0.52373904  1
  O  O145  1  0.72190378  0.15677279  0.52051713  1
  O  O146  1  0.35068812  0.55634850  0.52978255  1
  O  O147  1  0.85963319  0.56916183  0.52212842  1
  O  O148  1  0.42173888  0.29042544  0.52028254  1
  O  O149  1  0.92866984  0.30658344  0.52920929  1
  O  O150  1  0.27267499  0.69431623  0.96941575  1
  O  O151  1  0.77466900  0.69473083  0.97071241  1
  O  O152  1  0.07342363  0.45029018  0.97066543  1
  O  O153  1  0.57527362  0.44785467  0.97498527  1
  O  O154  1  0.15561386  0.85347249  0.97010330  1
  O  O155  1  0.65415956  0.84704375  0.97824490  1
  O  O156  1  0.27858817  0.85606170  0.46864930  1
  O  O157  1  0.77120918  0.84927297  0.46783401  1
  O  O158  1  0.15607684  0.46602612  0.47650013  1
  O  O159  1  0.65311965  0.45679834  0.46735410  1
  O  O160  1  0.07713957  0.70356068  0.47317013  1
  O  O161  1  0.57406773  0.69653639  0.46805013  1
  O  O162  1  0.05629268  0.62003570  0.35638324  1
  O  O163  1  0.55917054  0.64346447  0.36097859  1
  O  O164  1  0.26163074  0.88297395  0.36095206  1
  O  O165  1  0.75901557  0.87751153  0.36061499  1
  O  O166  1  0.19682095  0.50523367  0.35922382  1
  O  O167  1  0.67422463  0.47781530  0.35952697  1
  O  O168  1  0.05994084  0.47386943  0.86357368  1
  O  O169  1  0.55995785  0.49605367  0.85774173  1
  O  O170  1  0.17718306  0.87495373  0.86256504  1
  O  O171  1  0.69474649  0.88488403  0.86084673  1
  O  O172  1  0.25843943  0.64219117  0.86194752  1
  O  O173  1  0.76061414  0.63935625  0.86283848  1
  O  O174  1  0.00305684  0.82832982  0.40884529  1
  O  O175  1  0.50862815  0.82129805  0.40996123  1
  O  O176  1  0.40251352  0.97682128  0.40712030  1
  O  O177  1  0.89781187  0.97742979  0.40798832  1
  O  O178  1  0.08239237  0.19150719  0.40952782  1
  O  O179  1  0.58430544  0.20141682  0.41029160  1
  O  O180  1  0.00762492  0.19445564  0.91229423  1
  O  O181  1  0.50334343  0.17836806  0.90926455  1
  O  O182  1  0.08823165  0.97448990  0.91358412  1
  O  O183  1  0.58197734  0.97377281  0.91035051  1
  O  O184  1  0.39831703  0.81899694  0.90885406  1
  O  O185  1  0.89974523  0.83042433  0.91139280  1
  O  O186  1  0.48181752  0.15109132  0.58995908  1
  O  O187  1  0.98682100  0.17360829  0.58805741  1
  O  O188  1  0.09024289  0.01998700  0.58675927  1
  O  O189  1  0.58856215  0.01778232  0.58982686  1
  O  O190  1  0.41282254  0.80409607  0.59012124  1
  O  O191  1  0.91931596  0.83380135  0.59088432  1
  O  O192  1  0.48603519  0.79812841  0.08880581  1
  O  O193  1  0.98205598  0.81313486  0.09032886  1
  O  O194  1  0.41996698  0.00782876  0.09221155  1
  O  O195  1  0.91222925  0.02143474  0.09081483  1
  O  O196  1  0.08838600  0.16036784  0.08923281  1
  O  O197  1  0.58946824  0.16323129  0.08914394  1
  O  O198  1  0.34933541  0.15310646  0.74625857  1
  O  O199  1  0.84088218  0.14406013  0.74694014  1
  O  O200  1  0.24606826  0.31748982  0.74403208  1
  O  O201  1  0.73082219  0.31320009  0.74732576  1
  O  O202  1  0.42353892  0.54313049  0.74506373  1
  O  O203  1  0.91710436  0.49422850  0.74640954  1
  O  O204  1  0.34732031  0.53925588  0.24733708  1
  O  O205  1  0.84674875  0.54236050  0.24712126  1
  O  O206  1  0.42645300  0.32708788  0.24679667  1
  O  O207  1  0.92323254  0.30359157  0.24531141  1
  O  O208  1  0.23389243  0.15202650  0.24784028  1
  O  O209  1  0.74545434  0.16838724  0.24444799  1
  O  O210  1  0.32070305  0.51324570  0.92134900  1
  O  O211  1  0.82550101  0.52053077  0.92068270  1
  O  O212  1  0.42234210  0.36041268  0.91914785  1
  O  O213  1  0.93386293  0.35331679  0.92330437  1
  O  O214  1  0.24298345  0.13016178  0.91973004  1
  O  O215  1  0.75493316  0.15691889  0.92155620  1
  O  O216  1  0.32716462  0.13314793  0.41850874  1
  O  O217  1  0.82080449  0.12855447  0.42059017  1
  O  O218  1  0.25541611  0.35380254  0.42057322  1
  O  O219  1  0.73955200  0.35335836  0.41697443  1
  O  O220  1  0.43387828  0.51461538  0.42109912  1
  O  O221  1  0.92129174  0.48366855  0.41926980  1
  O  O222  1  0.17163632  0.49565426  0.07496978  1
  O  O223  1  0.67521648  0.51081971  0.07990199  1
  O  O224  1  0.07479487  0.65973905  0.07601373  1
  O  O225  1  0.56626787  0.65052285  0.08108950  1
  O  O226  1  0.25232908  0.85004763  0.07708751  1
  O  O227  1  0.75842180  0.86632078  0.07875589  1
  O  O228  1  0.17515085  0.84004517  0.57840571  1
  O  O229  1  0.67186893  0.85100739  0.57566586  1
  O  O230  1  0.25910150  0.65052468  0.57723622  1
  O  O231  1  0.75231223  0.65725375  0.57583127  1
  O  O232  1  0.06674364  0.48199326  0.57896347  1
  O  O233  1  0.57456999  0.49036975  0.57508453  1
  O  O234  1  0.15981684  0.84207484  0.25711681  1
  O  O235  1  0.65691591  0.82588504  0.25419008  1
  O  O236  1  0.26478986  0.68899895  0.25508235  1
  O  O237  1  0.76746170  0.68897152  0.25660228  1
  O  O238  1  0.07939100  0.46309545  0.25254456  1
  O  O239  1  0.57899579  0.46553224  0.25875603  1
  O  O240  1  0.16231492  0.48929242  0.75380160  1
  O  O241  1  0.65822672  0.47710396  0.75713705  1
  O  O242  1  0.08651228  0.68899795  0.75668341  1
  O  O243  1  0.57958181  0.69637095  0.75262950  1
  O  O244  1  0.27136936  0.84726852  0.75669187  1
  O  O245  1  0.76222317  0.83022718  0.75529099  1
