# generated using pymatgen
data_Na2Y4Ti4Si3(S3O16)3
_symmetry_space_group_name_H-M   'P 1'
_cell_length_a   17.90695487
_cell_length_b   8.95634448
_cell_length_c   23.29700399
_cell_angle_alpha   89.85906360
_cell_angle_beta   89.72337850
_cell_angle_gamma   120.06521414
_symmetry_Int_Tables_number   1
_chemical_formula_structural   Na2Y4Ti4Si3(S3O16)3
_chemical_formula_sum   'Na6 Y12 Ti12 Si9 S27 O144'
_cell_volume   3233.59410360
_cell_formula_units_Z   3
loop_
 _symmetry_equiv_pos_site_id
 _symmetry_equiv_pos_as_xyz
  1  'x, y, z'
loop_
 _atom_site_type_symbol
 _atom_site_label
 _atom_site_symmetry_multiplicity
 _atom_site_fract_x
 _atom_site_fract_y
 _atom_site_fract_z
 _atom_site_occupancy
  Na  Na0  1  0.99351362  0.02178662  0.50220696  1
  Na  Na1  1  0.49480867  0.96943826  0.00464546  1
  Na  Na2  1  0.31764527  0.30894066  0.83800400  1
  Na  Na3  1  0.82711187  0.32945985  0.82611903  1
  Na  Na4  1  0.32892637  0.32145019  0.32541473  1
  Na  Na5  1  0.81412904  0.32415727  0.33372264  1
  Y  Y6  1  0.00636241  0.00340118  0.35099176  1
  Y  Y7  1  0.50646845  0.00851859  0.85215882  1
  Y  Y8  1  0.99936002  0.00443933  0.64670532  1
  Y  Y9  1  0.50191126  0.99495443  0.14706046  1
  Y  Y10  1  0.32386476  0.33105944  0.98303681  1
  Y  Y11  1  0.84225623  0.34621508  0.98224590  1
  Y  Y12  1  0.34169718  0.33575401  0.47994294  1
  Y  Y13  1  0.82594118  0.31835533  0.48226004  1
  Y  Y14  1  0.16389785  0.67264059  0.30248902  1
  Y  Y15  1  0.67153955  0.66809075  0.30380199  1
  Y  Y16  1  0.17097776  0.67616365  0.80693508  1
  Y  Y17  1  0.66298785  0.65517906  0.80314454  1
  Ti  Ti18  1  0.51504566  0.01865428  0.35494910  1
  Ti  Ti19  1  0.00517153  0.99602892  0.85951060  1
  Ti  Ti20  1  0.50954545  0.02316631  0.64647685  1
  Ti  Ti21  1  0.00836326  0.99423661  0.14623822  1
  Ti  Ti22  1  0.34045654  0.33837970  0.67715614  1
  Ti  Ti23  1  0.83590368  0.33295117  0.68129676  1
  Ti  Ti24  1  0.33826826  0.34394874  0.18404546  1
  Ti  Ti25  1  0.83428117  0.32925495  0.18319532  1
  Ti  Ti26  1  0.16028631  0.68548820  0.02345377  1
  Ti  Ti27  1  0.66406933  0.67249864  0.02826643  1
  Ti  Ti28  1  0.16643938  0.66250527  0.52444948  1
  Ti  Ti29  1  0.65943631  0.63569728  0.51738431  1
  Si  Si30  1  0.15325777  0.02488554  0.24611590  1
  Si  Si31  1  0.65525470  0.03157214  0.25050729  1
  Si  Si32  1  0.65395153  0.28351206  0.74663484  1
  Si  Si33  1  0.48402701  0.33434561  0.58241711  1
  Si  Si34  1  0.98323464  0.34283806  0.58135210  1
  Si  Si35  1  0.47999864  0.62506625  0.08083148  1
  Si  Si36  1  0.97932157  0.62675158  0.08550673  1
  Si  Si37  1  0.16491973  0.95403937  0.91504562  1
  Si  Si38  1  0.66465387  0.37113648  0.41270756  1
  S  S39  1  0.36052190  0.69461566  0.25272645  1
  S  S40  1  0.86299894  0.70471344  0.24313181  1
  S  S41  1  0.98934223  0.27621401  0.24473444  1
  S  S42  1  0.48687095  0.27685488  0.25135326  1
  S  S43  1  0.15118688  0.27287343  0.75432187  1
  S  S44  1  0.98856639  0.69957275  0.75309715  1
  S  S45  1  0.48560058  0.69714689  0.74445487  1
  S  S46  1  0.36088134  0.02127902  0.74263871  1
  S  S47  1  0.86129199  0.02823977  0.75333227  1
  S  S48  1  0.19200453  0.03357419  0.58265720  1
  S  S49  1  0.68483702  0.03118438  0.58879129  1
  S  S50  1  0.33246484  0.62710728  0.58684203  1
  S  S51  1  0.82559737  0.62011386  0.58263393  1
  S  S52  1  0.32573054  0.03177577  0.08262917  1
  S  S53  1  0.83221928  0.03584730  0.08735974  1
  S  S54  1  0.18422251  0.34121616  0.08844926  1
  S  S55  1  0.68954166  0.34987459  0.08050451  1
  S  S56  1  0.31069939  0.67733747  0.91989008  1
  S  S57  1  0.81528480  0.67737374  0.91309801  1
  S  S58  1  0.02445678  0.36467632  0.91406461  1
  S  S59  1  0.52691261  0.38109598  0.92226770  1
  S  S60  1  0.66440029  0.94457846  0.92137719  1
  S  S61  1  0.31226078  0.94597853  0.41552705  1
  S  S62  1  0.81148906  0.94195820  0.42128023  1
  S  S63  1  0.16313493  0.38284133  0.42200309  1
  S  S64  1  0.02775903  0.67486509  0.42206640  1
  S  S65  1  0.52756072  0.68349109  0.41542239  1
  O  O66  1  0.11818844  0.06511770  0.30505985  1
  O  O67  1  0.60152420  0.05551796  0.30793045  1
  O  O68  1  0.41589290  0.78076541  0.30265475  1
  O  O69  1  0.91128770  0.77582213  0.29744873  1
  O  O70  1  0.47442906  0.16406788  0.30215579  1
  O  O71  1  0.97414409  0.17588463  0.29871070  1
  O  O72  1  0.10361012  0.16128352  0.80535529  1
  O  O73  1  0.61732581  0.16930779  0.80489768  1
  O  O74  1  0.46900773  0.76441934  0.79823228  1
  O  O75  1  0.97894537  0.79191017  0.80375185  1
  O  O76  1  0.40986265  0.05359172  0.79677416  1
  O  O77  1  0.91624421  0.05084496  0.80330308  1
  O  O78  1  0.40755262  0.00136396  0.69373737  1
  O  O79  1  0.89573297  0.99558109  0.70038466  1
  O  O80  1  0.10157631  0.19790489  0.70178531  1
  O  O81  1  0.58639438  0.16619558  0.69477061  1
  O  O82  1  0.00210126  0.79936756  0.70046308  1
  O  O83  1  0.49518580  0.80663757  0.69499201  1
  O  O84  1  0.39123742  0.79389837  0.19948633  1
  O  O85  1  0.90907249  0.82046002  0.19421409  1
  O  O86  1  0.99740787  0.18581378  0.19497611  1
  O  O87  1  0.49722857  0.20450785  0.19799716  1
  O  O88  1  0.08659412  0.00824200  0.19418206  1
  O  O89  1  0.59761926  0.00093890  0.19576359  1
  O  O90  1  0.42962068  0.37052147  0.63610874  1
  O  O91  1  0.93094271  0.36708706  0.63787659  1
  O  O92  1  0.24658108  0.12495382  0.63389682  1
  O  O93  1  0.74658055  0.12886314  0.63699313  1
  O  O94  1  0.31170100  0.49760011  0.63631389  1
  O  O95  1  0.81442186  0.50990866  0.63401864  1
  O  O96  1  0.42920229  0.50006100  0.13803426  1
  O  O97  1  0.92533227  0.48362626  0.13677295  1
  O  O98  1  0.31477287  0.11921762  0.13339464  1
  O  O99  1  0.81033269  0.11647614  0.13670052  1
  O  O100  1  0.24564556  0.37001691  0.13624522  1
  O  O101  1  0.74102417  0.36889091  0.13226306  1
  O  O102  1  0.21180744  0.28478291  0.03718942  1
  O  O103  1  0.72500113  0.30903398  0.02937404  1
  O  O104  1  0.42789539  0.53609358  0.02433986  1
  O  O105  1  0.92471197  0.56194234  0.02794225  1
  O  O106  1  0.33809072  0.13068968  0.02976132  1
  O  O107  1  0.85264858  0.14604896  0.03598420  1
  O  O108  1  0.22422561  0.14461863  0.53129743  1
  O  O109  1  0.71196673  0.14319756  0.53786706  1
  O  O110  1  0.35366497  0.55871188  0.53591062  1
  O  O111  1  0.84212607  0.54914765  0.53067053  1
  O  O112  1  0.42157998  0.28347898  0.52923102  1
  O  O113  1  0.92703986  0.30935117  0.52543862  1
  O  O114  1  0.26069197  0.67670262  0.97100137  1
  O  O115  1  0.77904198  0.70090358  0.96641266  1
  O  O116  1  0.07223850  0.44199567  0.96737637  1
  O  O117  1  0.58135303  0.47996671  0.97230130  1
  O  O118  1  0.15296484  0.83407520  0.97429785  1
  O  O119  1  0.66430959  0.84606880  0.97374938  1
  O  O120  1  0.26919426  0.84861466  0.46929111  1
  O  O121  1  0.76087934  0.84294600  0.47323281  1
  O  O122  1  0.16277784  0.48080467  0.47454342  1
  O  O123  1  0.65356642  0.47138669  0.47257980  1
  O  O124  1  0.08234193  0.68474306  0.47242542  1
  O  O125  1  0.57563153  0.69652657  0.46938172  1
  O  O126  1  0.06684502  0.66264090  0.36788771  1
  O  O127  1  0.56694980  0.65418410  0.36528136  1
  O  O128  1  0.25679357  0.86440107  0.36529368  1
  O  O129  1  0.76864403  0.86137709  0.36775266  1
  O  O130  1  0.16612484  0.47501325  0.36954606  1
  O  O131  1  0.67980677  0.48964046  0.35888309  1
  O  O132  1  0.06515988  0.47101443  0.86323080  1
  O  O133  1  0.56678366  0.47172734  0.86787475  1
  O  O134  1  0.17550309  0.86303071  0.85991437  1
  O  O135  1  0.66783468  0.85932287  0.86886606  1
  O  O136  1  0.26758403  0.67074652  0.86556865  1
  O  O137  1  0.76088394  0.65167584  0.86286454  1
  O  O138  1  0.02335851  0.83687040  0.42292842  1
  O  O139  1  0.52241843  0.84417715  0.40910835  1
  O  O140  1  0.39612996  0.95483800  0.40826511  1
  O  O141  1  0.89782364  0.95437597  0.42357579  1
  O  O142  1  0.08225349  0.21172831  0.42438319  1
  O  O143  1  0.57060596  0.18612321  0.40539235  1
  O  O144  1  0.01910327  0.19212949  0.90566499  1
  O  O145  1  0.52196154  0.20903374  0.92232674  1
  O  O146  1  0.07218506  0.95844498  0.90420846  1
  O  O147  1  0.58292609  0.95251421  0.92327230  1
  O  O148  1  0.39703370  0.83810718  0.92057043  1
  O  O149  1  0.90142041  0.83904043  0.90259053  1
  O  O150  1  0.50056285  0.17886373  0.60228710  1
  O  O151  1  0.00632711  0.19158822  0.58883708  1
  O  O152  1  0.10196658  0.98957952  0.59250168  1
  O  O153  1  0.59537057  0.99566291  0.60283889  1
  O  O154  1  0.40446765  0.79652962  0.60207464  1
  O  O155  1  0.90032874  0.79596992  0.59051045  1
  O  O156  1  0.50001771  0.82017023  0.08386968  1
  O  O157  1  0.99963782  0.82170319  0.10201209  1
  O  O158  1  0.39911082  0.00292238  0.08844077  1
  O  O159  1  0.90391612  0.00791435  0.10109233  1
  O  O160  1  0.09465093  0.19790103  0.10188325  1
  O  O161  1  0.59823971  0.21636028  0.08639427  1
  O  O162  1  0.34905438  0.17473433  0.73323554  1
  O  O163  1  0.85690378  0.19095584  0.74548329  1
  O  O164  1  0.23642530  0.28235334  0.74996757  1
  O  O165  1  0.74849454  0.30543262  0.73043127  1
  O  O166  1  0.40676529  0.51947545  0.73581132  1
  O  O167  1  0.90693263  0.52952480  0.74844264  1
  O  O168  1  0.35686497  0.52260054  0.24521835  1
  O  O169  1  0.85620344  0.53355350  0.23541404  1
  O  O170  1  0.40553421  0.28835618  0.24677833  1
  O  O171  1  0.91142178  0.29724788  0.23776798  1
  O  O172  1  0.24737183  0.19272396  0.22946544  1
  O  O173  1  0.74908088  0.21347658  0.23914609  1
  O  O174  1  0.32222990  0.52444009  0.92008558  1
  O  O175  1  0.83029132  0.52755652  0.91575894  1
  O  O176  1  0.43930266  0.35662092  0.92512546  1
  O  O177  1  0.93393866  0.33065236  0.91754736  1
  O  O178  1  0.24216900  0.14912569  0.91775985  1
  O  O179  1  0.74027170  0.12096140  0.92336242  1
  O  O180  1  0.32383206  0.12451755  0.41881254  1
  O  O181  1  0.82282274  0.11754474  0.42233072  1
  O  O182  1  0.23954682  0.36060051  0.42464177  1
  O  O183  1  0.74186622  0.33108081  0.41915856  1
  O  O184  1  0.43704290  0.53562326  0.42026197  1
  O  O185  1  0.94045076  0.52373757  0.42605217  1
  O  O186  1  0.18112929  0.49950976  0.07766473  1
  O  O187  1  0.69317934  0.51956218  0.07006802  1
  O  O188  1  0.07350062  0.63804024  0.07132546  1
  O  O189  1  0.57875488  0.63903128  0.07265886  1
  O  O190  1  0.24536285  0.85736923  0.07659800  1
  O  O191  1  0.75312325  0.86525442  0.07608095  1
  O  O192  1  0.19493100  0.87215879  0.57447753  1
  O  O193  1  0.68223269  0.86746863  0.58045807  1
  O  O194  1  0.25291558  0.63653096  0.57779490  1
  O  O195  1  0.74673452  0.63426462  0.57565927  1
  O  O196  1  0.08052029  0.52565029  0.57037850  1
  O  O197  1  0.57512115  0.51202249  0.56976023  1
  O  O198  1  0.15992022  0.85386500  0.24894517  1
  O  O199  1  0.67525275  0.88323913  0.26506542  1
  O  O200  1  0.27098515  0.65335677  0.26306141  1
  O  O201  1  0.77714776  0.68470104  0.24545924  1
  O  O202  1  0.06634045  0.44692060  0.25031792  1
  O  O203  1  0.55978238  0.45165680  0.25848523  1
  O  O204  1  0.16324984  0.44593829  0.76139766  1
  O  O205  1  0.65958181  0.46689337  0.74940546  1
  O  O206  1  0.06123436  0.66925768  0.76017921  1
  O  O207  1  0.56157215  0.67699922  0.74992600  1
  O  O208  1  0.27544085  0.86641305  0.74594357  1
  O  O209  1  0.77257524  0.88514825  0.76184313  1
