# generated using pymatgen
data_Na6Ca4Nb4Si5S7O48
_symmetry_space_group_name_H-M   'P 1'
_cell_length_a   18.31695031
_cell_length_b   9.14115159
_cell_length_c   23.33237669
_cell_angle_alpha   90.00041740
_cell_angle_beta   90.23088592
_cell_angle_gamma   119.97452871
_symmetry_Int_Tables_number   1
_chemical_formula_structural   Na6Ca4Nb4Si5S7O48
_chemical_formula_sum   'Na18 Ca12 Nb12 Si15 S21 O144'
_cell_volume   3384.15614371
_cell_formula_units_Z   3
loop_
 _symmetry_equiv_pos_site_id
 _symmetry_equiv_pos_as_xyz
  1  'x, y, z'
loop_
 _atom_site_type_symbol
 _atom_site_label
 _atom_site_symmetry_multiplicity
 _atom_site_fract_x
 _atom_site_fract_y
 _atom_site_fract_z
 _atom_site_occupancy
  Na  Na0  1  0.00026027  0.61636340  0.25001985  1
  Na  Na1  1  0.50016150  0.61371585  0.25016642  1
  Na  Na2  1  0.00091029  0.38068844  0.75021897  1
  Na  Na3  1  0.50022344  0.38267248  0.74979414  1
  Na  Na4  1  0.33053060  0.97031210  0.58073009  1
  Na  Na5  1  0.83020928  0.69143697  0.08407593  1
  Na  Na6  1  0.99134059  0.97959574  0.49561713  1
  Na  Na7  1  0.50361570  0.99869890  0.49744487  1
  Na  Na8  1  0.00468855  0.00677067  0.00265146  1
  Na  Na9  1  0.48938541  0.99738262  0.00052671  1
  Na  Na10  1  0.32486881  0.34942130  0.82976919  1
  Na  Na11  1  0.81654050  0.31455197  0.82830146  1
  Na  Na12  1  0.32727931  0.32045453  0.32119633  1
  Na  Na13  1  0.82309664  0.29821651  0.32743115  1
  Na  Na14  1  0.17294889  0.68360709  0.17006222  1
  Na  Na15  1  0.66664278  0.68315679  0.17282234  1
  Na  Na16  1  0.17845906  0.64916497  0.66426242  1
  Na  Na17  1  0.66898019  0.65736465  0.66874083  1
  Ca  Ca18  1  0.32905558  0.33806116  0.68822078  1
  Ca  Ca19  1  0.82452868  0.32615702  0.69172907  1
  Ca  Ca20  1  0.32811893  0.32291648  0.19267777  1
  Ca  Ca21  1  0.82827204  0.31922479  0.18865009  1
  Ca  Ca22  1  0.17249563  0.67232934  0.01561630  1
  Ca  Ca23  1  0.66196933  0.66377239  0.01281886  1
  Ca  Ca24  1  0.16271753  0.66216436  0.51174153  1
  Ca  Ca25  1  0.67211945  0.67256952  0.51494788  1
  Ca  Ca26  1  0.16864593  0.67444469  0.31345422  1
  Ca  Ca27  1  0.67216706  0.67888531  0.31403231  1
  Ca  Ca28  1  0.17726326  0.66716921  0.81654110  1
  Ca  Ca29  1  0.66653301  0.66122897  0.81349132  1
  Nb  Nb30  1  0.00315766  0.00022740  0.35573607  1
  Nb  Nb31  1  0.49848825  0.00169700  0.34547726  1
  Nb  Nb32  1  0.99943837  0.00777573  0.85001464  1
  Nb  Nb33  1  0.50299290  0.00516956  0.85626490  1
  Nb  Nb34  1  0.99798367  0.00763111  0.64755265  1
  Nb  Nb35  1  0.50436136  0.00767978  0.64134002  1
  Nb  Nb36  1  0.00467709  0.00178265  0.14195736  1
  Nb  Nb37  1  0.49789787  0.00092601  0.15249300  1
  Nb  Nb38  1  0.33852993  0.33949449  0.97956168  1
  Nb  Nb39  1  0.83739139  0.33214234  0.99028849  1
  Nb  Nb40  1  0.34029837  0.34766347  0.48788330  1
  Nb  Nb41  1  0.83494625  0.33503272  0.47702470  1
  Si  Si42  1  0.14237014  0.99824035  0.25018789  1
  Si  Si43  1  0.64652090  0.00264332  0.25017414  1
  Si  Si44  1  0.35061099  0.70700358  0.24926581  1
  Si  Si45  1  0.50404542  0.29924592  0.24932843  1
  Si  Si46  1  0.14691201  0.29287305  0.74991821  1
  Si  Si47  1  0.64261165  0.28590789  0.75036612  1
  Si  Si48  1  0.85161269  0.99628680  0.74938536  1
  Si  Si49  1  0.48584792  0.34367794  0.59061202  1
  Si  Si50  1  0.33147025  0.63314132  0.58748538  1
  Si  Si51  1  0.98590980  0.62981422  0.09080812  1
  Si  Si52  1  0.83226811  0.02869106  0.08759864  1
  Si  Si53  1  0.31815526  0.66850992  0.91662364  1
  Si  Si54  1  0.51725725  0.36812602  0.91328633  1
  Si  Si55  1  0.81824741  0.96338635  0.41673327  1
  Si  Si56  1  0.01780863  0.66776012  0.41370471  1
  S  S57  1  0.86138040  0.72568124  0.24856403  1
  S  S58  1  0.00088819  0.27992724  0.24954114  1
  S  S59  1  0.00267629  0.72348350  0.74953404  1
  S  S60  1  0.50075912  0.72161053  0.74935650  1
  S  S61  1  0.36039306  0.99629696  0.74842791  1
  S  S62  1  0.97727461  0.32686572  0.58548425  1
  S  S63  1  0.18392562  0.04404995  0.58269079  1
  S  S64  1  0.68653223  0.04486567  0.58284588  1
  S  S65  1  0.83929085  0.63172819  0.58498952  1
  S  S66  1  0.47687119  0.63051704  0.08416515  1
  S  S67  1  0.33916461  0.04642398  0.08351514  1
  S  S68  1  0.18703068  0.32758042  0.08292860  1
  S  S69  1  0.68411450  0.32357407  0.08177826  1
  S  S70  1  0.82350183  0.66442059  0.91752994  1
  S  S71  1  0.01026692  0.35891049  0.91541767  1
  S  S72  1  0.16533983  0.97385425  0.91692413  1
  S  S73  1  0.67130370  0.98162897  0.91658785  1
  S  S74  1  0.32331606  0.98170531  0.41968178  1
  S  S75  1  0.17089418  0.36052927  0.41738768  1
  S  S76  1  0.66415085  0.35512239  0.41812576  1
  S  S77  1  0.51137052  0.66634518  0.41730505  1
  O  O78  1  0.08382528  0.00376595  0.30465546  1
  O  O79  1  0.58627073  0.00060127  0.30637091  1
  O  O80  1  0.41040844  0.82464785  0.30630613  1
  O  O81  1  0.91126009  0.82273398  0.29980158  1
  O  O82  1  0.49962507  0.17797197  0.30588869  1
  O  O83  1  0.99638064  0.18151049  0.30157069  1
  O  O84  1  0.08498982  0.17077842  0.80579486  1
  O  O85  1  0.58471257  0.16280973  0.80453527  1
  O  O86  1  0.49653075  0.81083836  0.80140867  1
  O  O87  1  0.99720909  0.81299123  0.80220825  1
  O  O88  1  0.40951580  -0.00265728  0.79965273  1
  O  O89  1  0.91295119  0.99569301  0.80524914  1
  O  O90  1  0.40254031  0.98432439  0.69416259  1
  O  O91  1  0.91070790  0.98808061  0.69232113  1
  O  O92  1  0.08393759  0.17193964  0.69289505  1
  O  O93  1  0.58359943  0.16803349  0.69256621  1
  O  O94  1  0.00668027  0.82243392  0.69688215  1
  O  O95  1  0.50052400  0.81646263  0.69666561  1
  O  O96  1  0.40870442  0.83206623  0.19242245  1
  O  O97  1  0.90384105  0.82182136  0.19407635  1
  O  O98  1  0.00067537  0.18434031  0.19673892  1
  O  O99  1  0.50493947  0.18345027  0.19211906  1
  O  O100  1  0.08231962  0.99595183  0.19257135  1
  O  O101  1  0.58534587  0.99528388  0.19226050  1
  O  O102  1  0.43888006  0.34032918  0.64768257  1
  O  O103  1  0.94038421  0.34209899  0.63888627  1
  O  O104  1  0.23265458  0.11664109  0.63477818  1
  O  O105  1  0.73354243  0.11973747  0.63505625  1
  O  O106  1  0.31301818  0.51645481  0.64082063  1
  O  O107  1  0.83336501  0.53816135  0.63666292  1
  O  O108  1  0.43877278  0.53807249  0.13639858  1
  O  O109  1  0.93841053  0.53725056  0.14735930  1
  O  O110  1  0.33341093  0.12773566  0.13507448  1
  O  O111  1  0.81491857  0.11354651  0.13965169  1
  O  O112  1  0.23368835  0.34608662  0.13478244  1
  O  O113  1  0.73383571  0.34943723  0.13321886  1
  O  O114  1  0.22756216  0.29911324  0.03146645  1
  O  O115  1  0.73217115  0.30476132  0.02980733  1
  O  O116  1  0.42034681  0.53061696  0.03279295  1
  O  O117  1  0.91411159  0.52022303  0.03281390  1
  O  O118  1  0.34531644  0.15297870  0.03157513  1
  O  O119  1  0.84372946  0.16406314  0.02897474  1
  O  O120  1  0.22825221  0.15520313  0.53125721  1
  O  O121  1  0.72821120  0.15628505  0.53217961  1
  O  O122  1  0.34300525  0.52305115  0.52951350  1
  O  O123  1  0.84832847  0.54475080  0.53310074  1
  O  O124  1  0.41469649  0.30983184  0.53313431  1
  O  O125  1  0.92193818  0.30371217  0.53495180  1
  O  O126  1  0.28942292  0.72205876  0.97275475  1
  O  O127  1  0.79280238  0.70015139  0.97058253  1
  O  O128  1  0.06350430  0.43170148  0.96517854  1
  O  O129  1  0.57360337  0.43284904  0.96908459  1
  O  O130  1  0.14727844  0.86944239  0.96753760  1
  O  O131  1  0.65557761  0.88128933  0.96821076  1
  O  O132  1  0.28966236  0.88440765  0.47285992  1
  O  O133  1  0.79127046  0.85927089  0.47457535  1
  O  O134  1  0.15389192  0.42807713  0.46916605  1
  O  O135  1  0.64993431  0.42830766  0.46936150  1
  O  O136  1  0.07168318  0.71207840  0.47071837  1
  O  O137  1  0.56358525  0.69219846  0.46769017  1
  O  O138  1  0.04111441  0.61309973  0.35498853  1
  O  O139  1  0.54244483  0.63304521  0.36439187  1
  O  O140  1  0.27084756  0.90240350  0.36944535  1
  O  O141  1  0.76060538  0.90943346  0.36123890  1
  O  O142  1  0.18677804  0.46311945  0.36658434  1
  O  O143  1  0.68138181  0.45430643  0.36649622  1
  O  O144  1  0.04301118  0.45222539  0.86172182  1
  O  O145  1  0.54040413  0.46786475  0.85402657  1
  O  O146  1  0.18071337  0.90488830  0.86487502  1
  O  O147  1  0.68689400  0.91063471  0.86540736  1
  O  O148  1  0.26127300  0.60807084  0.86016398  1
  O  O149  1  0.77096264  0.64034399  0.86743173  1
  O  O150  1  0.99727119  0.82748154  0.40384573  1
  O  O151  1  0.49660315  0.81356725  0.41200808  1
  O  O152  1  0.41120125  0.00686013  0.41222790  1
  O  O153  1  0.91731512  0.01244704  0.40146154  1
  O  O154  1  0.09368179  0.18555715  0.40889362  1
  O  O155  1  0.59066648  0.17824947  0.41172449  1
  O  O156  1  0.99739203  0.17888768  0.90828826  1
  O  O157  1  0.49699949  0.16675170  0.90299576  1
  O  O158  1  0.08945157  0.99942265  0.90756497  1
  O  O159  1  0.59370363  0.00079687  0.90838361  1
  O  O160  1  0.41677588  0.82019425  0.90057932  1
  O  O161  1  0.91250580  0.81587204  0.90777474  1
  O  O162  1  0.48341886  0.15121791  0.59053883  1
  O  O163  1  0.98312473  0.16216409  0.58832848  1
  O  O164  1  0.09769790  0.02856605  0.58636841  1
  O  O165  1  0.59934127  0.03240794  0.58636416  1
  O  O166  1  0.42425687  0.81589179  0.59118481  1
  O  O167  1  0.92155602  0.80561791  0.58885460  1
  O  O168  1  0.48099378  0.79963899  0.08332893  1
  O  O169  1  0.98332742  0.81594897  0.08993047  1
  O  O170  1  0.42006544  0.03663512  0.08399752  1
  O  O171  1  0.92497256  0.03293294  0.09033667  1
  O  O172  1  0.09909498  0.16515886  0.08629149  1
  O  O173  1  0.60023107  0.16645986  0.08255880  1
  O  O174  1  0.35909097  0.15582967  0.74979603  1
  O  O175  1  0.86534636  0.18346057  0.75238243  1
  O  O176  1  0.23190300  0.29056025  0.75608776  1
  O  O177  1  0.73241645  0.29937472  0.75462980  1
  O  O178  1  0.42614731  0.55028250  0.75023056  1
  O  O179  1  0.92697746  0.55584801  0.74831008  1
  O  O180  1  0.36264242  0.54652946  0.25104984  1
  O  O181  1  0.86036848  0.56398283  0.24980376  1
  O  O182  1  0.42019682  0.30952028  0.25246073  1
  O  O183  1  0.92609613  0.30119074  0.25025545  1
  O  O184  1  0.22964733  0.16690817  0.25384095  1
  O  O185  1  0.73226025  0.17559228  0.25558526  1
  O  O186  1  0.33047330  0.49757908  0.93434048  1
  O  O187  1  0.83343256  0.51102393  0.92456186  1
  O  O188  1  0.41814024  0.33141718  0.93306497  1
  O  O189  1  0.92313239  0.33543218  0.92474128  1
  O  O190  1  0.24037281  0.14860893  0.92707734  1
  O  O191  1  0.74520503  0.15878910  0.92551282  1
  O  O192  1  0.33199675  0.15473752  0.42761226  1
  O  O193  1  0.83103857  0.16198213  0.43499250  1
  O  O194  1  0.24460427  0.33168983  0.42760281  1
  O  O195  1  0.74192314  0.33384593  0.42901232  1
  O  O196  1  0.42332348  0.50757305  0.42793313  1
  O  O197  1  0.91829611  0.50453716  0.43402612  1
  O  O198  1  0.17116879  0.46742315  0.07477523  1
  O  O199  1  0.67807167  0.47496639  0.07191794  1
  O  O200  1  0.07617703  0.65978367  0.07664766  1
  O  O201  1  0.56087403  0.65306306  0.07571318  1
  O  O202  1  0.26641548  0.87720241  0.07757863  1
  O  O203  1  0.76190363  0.83731500  0.07470248  1
  O  O204  1  0.17517500  0.87681740  0.57446955  1
  O  O205  1  0.67167329  0.87446269  0.57520890  1
  O  O206  1  0.26095452  0.68537297  0.57613226  1
  O  O207  1  0.76817447  0.66023679  0.57954928  1
  O  O208  1  0.06284171  0.46695591  0.57813452  1
  O  O209  1  0.57739041  0.49331442  0.57805289  1
  O  O210  1  0.13586807  0.81719584  0.24685268  1
  O  O211  1  0.63969762  0.82163717  0.24765052  1
  O  O212  1  0.26236357  0.69790617  0.24724174  1
  O  O213  1  0.77748858  0.70607362  0.24910041  1
  O  O214  1  0.07843970  0.44454423  0.24922246  1
  O  O215  1  0.58935688  0.47606213  0.24788871  1
  O  O216  1  0.13778815  0.45874383  0.74654924  1
  O  O217  1  0.63683229  0.45478791  0.74672570  1
  O  O218  1  0.07907569  0.70984567  0.75207528  1
  O  O219  1  0.57847729  0.71209555  0.74882758  1
  O  O220  1  0.27525812  0.84853132  0.74864161  1
  O  O221  1  0.76354268  0.82987134  0.74710447  1
