# generated using pymatgen
data_Sr2MgCrSbO6
_symmetry_space_group_name_H-M   'P 1'
_cell_length_a   5.83264500
_cell_length_b   5.96036504
_cell_length_c   6.33210718
_cell_angle_alpha   57.04556439
_cell_angle_beta   62.57664571
_cell_angle_gamma   60.70624560
_symmetry_Int_Tables_number   1
_chemical_formula_structural   Sr2MgCrSbO6
_chemical_formula_sum   'Sr2 Mg1 Cr1 Sb1 O6'
_cell_volume   155.30593398
_cell_formula_units_Z   1
loop_
 _symmetry_equiv_pos_site_id
 _symmetry_equiv_pos_as_xyz
  1  'x, y, z'
loop_
 _atom_site_type_symbol
 _atom_site_label
 _atom_site_symmetry_multiplicity
 _atom_site_fract_x
 _atom_site_fract_y
 _atom_site_fract_z
 _atom_site_occupancy
  Sr  Sr0  1  0.19191900  0.79710900  0.81904900  1
  Sr  Sr1  1  0.80808100  0.20289100  0.18095100  1
  Mg  Mg2  1  0.50000000  0.50000000  0.50000000  1
  Cr  Cr3  1  0.00000000  0.50000000  0.50000000  1
  Sb  Sb4  1  0.50000000  0.00000000  0.00000000  1
  O  O5  1  0.75142400  0.85443200  0.64272000  1
  O  O6  1  0.24857600  0.14556800  0.35728000  1
  O  O7  1  0.30475100  0.66217000  0.23165700  1
  O  O8  1  0.80142300  0.66216800  0.23165600  1
  O  O9  1  0.69524900  0.33783000  0.76834300  1
  O  O10  1  0.19857700  0.33783200  0.76834400  1
