# generated using pymatgen
data_Sn15Os3O14
_symmetry_space_group_name_H-M   'P 1'
_cell_length_a   7.18387218
_cell_length_b   7.18387218
_cell_length_c   13.01650792
_cell_angle_alpha   74.02225514
_cell_angle_beta   74.02225514
_cell_angle_gamma   59.54681296
_symmetry_Int_Tables_number   1
_chemical_formula_structural   Sn15Os3O14
_chemical_formula_sum   'Sn15 Os3 O14'
_cell_volume   549.19283738
_cell_formula_units_Z   1
loop_
 _symmetry_equiv_pos_site_id
 _symmetry_equiv_pos_as_xyz
  1  'x, y, z'
loop_
 _atom_site_type_symbol
 _atom_site_label
 _atom_site_symmetry_multiplicity
 _atom_site_fract_x
 _atom_site_fract_y
 _atom_site_fract_z
 _atom_site_occupancy
  Sn  Sn0  1  0.32807915  0.85317250  0.08894169  1
  Sn  Sn1  1  0.42355344  0.90509488  0.34671365  1
  Sn  Sn2  1  0.90509488  0.42355344  0.34671365  1
  Sn  Sn3  1  0.98596036  0.98596036  0.61821560  1
  Sn  Sn4  1  0.09082215  0.57103642  0.83797467  1
  Sn  Sn5  1  0.57103642  0.09082215  0.83797467  1
  Sn  Sn6  1  0.84965063  0.84965063  0.08060628  1
  Sn  Sn7  1  0.55704487  0.55704487  0.87323944  1
  Sn  Sn8  1  0.90478472  0.90478472  0.34138672  1
  Sn  Sn9  1  0.99575630  0.51091931  0.57433806  1
  Sn  Sn10  1  0.51091931  0.99575630  0.57433806  1
  Sn  Sn11  1  0.51298172  0.51298172  0.57904736  1
  Sn  Sn12  1  0.09683112  0.09683112  0.82217968  1
  Sn  Sn13  1  0.85317250  0.32807915  0.08894169  1
  Sn  Sn14  1  0.32093371  0.32093371  0.11101026  1
  Os  Os15  1  0.71118107  0.71118107  0.96545891  1
  Os  Os16  1  0.11582969  0.11582969  0.23180220  1
  Os  Os17  1  0.30213236  0.30213236  0.69390583  1
  O  O18  1  0.77603428  0.77603428  0.25197696  1
  O  O19  1  0.76309058  0.25697168  0.81681833  1
  O  O20  1  0.25697168  0.76309058  0.81681833  1
  O  O21  1  0.02063612  0.57627355  0.40737907  1
  O  O22  1  0.57627355  0.02063612  0.40737907  1
  O  O23  1  0.65632967  0.65632967  0.63030804  1
  O  O24  1  0.57764177  0.57764177  0.41111019  1
  O  O25  1  0.37622258  0.37622258  0.94284211  1
  O  O26  1  0.87746084  0.87746084  0.52604051  1
  O  O27  1  0.04131946  0.04131946  0.98976610  1
  O  O28  1  0.30486277  0.87701231  0.53266522  1
  O  O29  1  0.87701231  0.30486277  0.53266522  1
  O  O30  1  0.18205493  0.64703105  0.11395522  1
  O  O31  1  0.64703105  0.18205493  0.11395522  1
