# generated using pymatgen
data_Na3TiAlSi2SO12
_symmetry_space_group_name_H-M   'P 1'
_cell_length_a   8.82987784
_cell_length_b   8.82987756
_cell_length_c   21.83858313
_cell_angle_alpha   90.07428994
_cell_angle_beta   89.92571007
_cell_angle_gamma   120.15284859
_symmetry_Int_Tables_number   1
_chemical_formula_structural   Na3TiAlSi2SO12
_chemical_formula_sum   'Na18 Ti6 Al6 Si12 S6 O72'
_cell_volume   1472.28882651
_cell_formula_units_Z   6
loop_
 _symmetry_equiv_pos_site_id
 _symmetry_equiv_pos_as_xyz
  1  'x, y, z'
loop_
 _atom_site_type_symbol
 _atom_site_label
 _atom_site_symmetry_multiplicity
 _atom_site_fract_x
 _atom_site_fract_y
 _atom_site_fract_z
 _atom_site_occupancy
  Na  Na0  1  0.62921964  0.00151615  0.24554196  1
  Na  Na1  1  0.00127125  0.64017964  0.24830125  1
  Na  Na2  1  0.99848385  0.37078036  0.74554196  1
  Na  Na3  1  0.35982036  0.99872875  0.74830125  1
  Na  Na4  1  0.29588664  0.33484915  0.57887496  1
  Na  Na5  1  0.66793825  0.97351264  0.58163425  1
  Na  Na6  1  0.66515085  0.70411336  0.07887496  1
  Na  Na7  1  0.02648736  0.33206175  0.08163425  1
  Na  Na8  1  0.96255264  0.66818315  0.91220896  1
  Na  Na9  1  0.33460425  0.30684664  0.91496825  1
  Na  Na10  1  0.33181685  0.03744736  0.41220896  1
  Na  Na11  1  0.69315336  0.66539575  0.41496825  1
  Na  Na12  1  0.00220793  0.01407031  0.49741838  1
  Na  Na13  1  0.98592969  0.99779207  0.99741838  1
  Na  Na14  1  0.66887493  0.34740331  0.83075138  1
  Na  Na15  1  0.65259669  0.33112507  0.33075138  1
  Na  Na16  1  0.33554093  0.68073731  0.16408538  1
  Na  Na17  1  0.31926269  0.66445907  0.66408538  1
  Ti  Ti18  1  0.02418919  0.00986221  0.64626793  1
  Ti  Ti19  1  0.99013779  0.97581081  0.14626793  1
  Ti  Ti20  1  0.69085619  0.34319521  0.97960093  1
  Ti  Ti21  1  0.65680479  0.30914381  0.47960093  1
  Ti  Ti22  1  0.35752219  0.67652921  0.31293493  1
  Ti  Ti23  1  0.32347079  0.64247781  0.81293493  1
  Al  Al24  1  0.00431442  0.00847260  0.35220641  1
  Al  Al25  1  0.99152740  0.99568558  0.85220641  1
  Al  Al26  1  0.67098142  0.34180560  0.68553941  1
  Al  Al27  1  0.65819440  0.32901858  0.18553941  1
  Al  Al28  1  0.33764742  0.67513960  0.01887341  1
  Al  Al29  1  0.32486040  0.66235258  0.51887341  1
  Si  Si30  1  0.29275350  0.00861210  0.25263052  1
  Si  Si31  1  0.71296683  0.70139586  0.25222205  1
  Si  Si32  1  0.29860414  0.28703317  0.75222205  1
  Si  Si33  1  0.99138790  0.70724650  0.75263052  1
  Si  Si34  1  0.95942050  0.34194510  0.58596352  1
  Si  Si35  1  0.37963383  0.03472886  0.58555505  1
  Si  Si36  1  0.96527114  0.62036617  0.08555505  1
  Si  Si37  1  0.65805490  0.04057950  0.08596352  1
  Si  Si38  1  0.62608650  0.67527910  0.91929752  1
  Si  Si39  1  0.04629983  0.36806286  0.91888905  1
  Si  Si40  1  0.63193714  0.95370017  0.41888905  1
  Si  Si41  1  0.32472090  0.37391350  0.41929752  1
  S  S42  1  0.00239272  0.28909562  0.25039528  1
  S  S43  1  0.71090438  -0.00239272  0.75039528  1
  S  S44  1  0.66905972  0.62242862  0.58372828  1
  S  S45  1  0.37757138  0.33094028  0.08372828  1
  S  S46  1  0.33572572  0.95576262  0.91706228  1
  S  S47  1  0.04423738  0.66427428  0.41706228  1
  O  O48  1  0.19764042  0.02905891  0.31278151  1
  O  O49  1  0.83753189  0.79968838  0.31056139  1
  O  O50  1  0.97177730  0.17440923  0.30394978  1
  O  O51  1  0.20031162  0.16246811  0.81056139  1
  O  O52  1  0.97094109  0.80235958  0.81278151  1
  O  O53  1  0.82559077  0.02822270  0.80394978  1
  O  O54  1  0.78560112  0.96974664  0.69363270  1
  O  O55  1  0.16926787  0.20596806  0.69079098  1
  O  O56  1  0.02837672  0.84127212  0.69353762  1
  O  O57  1  0.79403194  0.83073213  0.19079098  1
  O  O58  1  0.03025336  0.21439888  0.19363270  1
  O  O59  1  0.15872788  0.97162328  0.19353762  1
  O  O60  1  0.86430742  0.36239191  0.64611451  1
  O  O61  1  0.50419889  0.13302138  0.64389439  1
  O  O62  1  0.63844430  0.50774223  0.63728278  1
  O  O63  1  0.86697862  0.49580111  0.14389439  1
  O  O64  1  0.63760809  0.13569258  0.14611451  1
  O  O65  1  0.49225777  0.36155570  0.13728278  1
  O  O66  1  0.45226812  0.30307964  0.02696570  1
  O  O67  1  0.83593487  0.53930106  0.02412398  1
  O  O68  1  0.69504372  0.17460512  0.02687062  1
  O  O69  1  0.46069894  0.16406513  0.52412398  1
  O  O70  1  0.69692036  0.54773188  0.52696570  1
  O  O71  1  0.82539488  0.30495628  0.52687062  1
  O  O72  1  0.53097342  0.69572591  0.97944851  1
  O  O73  1  0.17086489  0.46635538  0.97722839  1
  O  O74  1  0.30511030  0.84107623  0.97061678  1
  O  O75  1  0.53364462  0.82913511  0.47722839  1
  O  O76  1  0.30427409  0.46902658  0.47944851  1
  O  O77  1  0.15892377  0.69488970  0.47061678  1
  O  O78  1  0.11893412  0.63641364  0.36029970  1
  O  O79  1  0.50260087  0.87263506  0.35745798  1
  O  O80  1  0.36170972  0.50793912  0.36020462  1
  O  O81  1  0.12736494  0.49739913  0.85745798  1
  O  O82  1  0.36358636  0.88106588  0.86029970  1
  O  O83  1  0.49206088  0.63829028  0.86020462  1
  O  O84  1  0.02761861  0.82411181  0.41379077  1
  O  O85  1  0.82005727  0.96801966  0.40799673  1
  O  O86  1  0.16105755  0.17592796  0.41033164  1
  O  O87  1  0.03198034  0.17994273  0.90799673  1
  O  O88  1  0.17588819  0.97238139  0.91379077  1
  O  O89  1  0.82407204  0.83894245  0.91033164  1
  O  O90  1  0.96803819  0.15657058  0.58929117  1
  O  O91  1  0.18738825  0.02580889  0.58825079  1
  O  O92  1  0.82206763  0.80195158  0.59010111  1
  O  O93  1  0.97419111  0.81261175  0.08825079  1
  O  O94  1  0.84342942  0.03196181  0.08929117  1
  O  O95  1  0.19804842  0.17793237  0.09010111  1
  O  O96  1  0.69428561  0.15744481  0.74712377  1
  O  O97  1  0.48672427  0.30135266  0.74132973  1
  O  O98  1  0.82772455  0.50926096  0.74366464  1
  O  O99  1  0.69864734  0.51327573  0.24132973  1
  O  O100  1  0.84255519  0.30571439  0.24712377  1
  O  O101  1  0.49073904  0.17227545  0.24366464  1
  O  O102  1  0.63470519  0.48990358  0.92262417  1
  O  O103  1  0.85405525  0.35914189  0.92158379  1
  O  O104  1  0.48873463  0.13528458  0.92343411  1
  O  O105  1  0.64085811  0.14594475  0.42158379  1
  O  O106  1  0.51009642  0.36529481  0.42262417  1
  O  O107  1  0.86471542  0.51126537  0.42343411  1
  O  O108  1  0.36095161  0.49077881  0.08045777  1
  O  O109  1  0.15339027  0.63468666  0.07466373  1
  O  O110  1  0.49439055  0.84259496  0.07699864  1
  O  O111  1  0.36531334  0.84660973  0.57466373  1
  O  O112  1  0.50922119  0.63904839  0.58045777  1
  O  O113  1  0.15740504  0.50560945  0.57699864  1
  O  O114  1  0.30137119  0.82323758  0.25595817  1
  O  O115  1  0.52072125  0.69247589  0.25491779  1
  O  O116  1  0.15540063  0.46861858  0.25676811  1
  O  O117  1  0.30752411  0.47927875  0.75491779  1
  O  O118  1  0.17676242  0.69862881  0.75595817  1
  O  O119  1  0.53138142  0.84459937  0.75676811  1
