# generated using pymatgen
data_Hg3PO4
_symmetry_space_group_name_H-M   'P 1'
_cell_length_a   5.00678827
_cell_length_b   8.68139024
_cell_length_c   14.29612733
_cell_angle_alpha   58.07348275
_cell_angle_beta   90.00000000
_cell_angle_gamma   90.00000000
_symmetry_Int_Tables_number   1
_chemical_formula_structural   Hg3PO4
_chemical_formula_sum   'Hg12 P4 O16'
_cell_volume   527.39370965
_cell_formula_units_Z   4
loop_
 _symmetry_equiv_pos_site_id
 _symmetry_equiv_pos_as_xyz
  1  'x, y, z'
loop_
 _atom_site_type_symbol
 _atom_site_label
 _atom_site_symmetry_multiplicity
 _atom_site_fract_x
 _atom_site_fract_y
 _atom_site_fract_z
 _atom_site_occupancy
  Hg  Hg0  1  0.15966095  0.44117450  0.37671382  1
  Hg  Hg1  1  0.34881533  0.73269422  0.95560048  1
  Hg  Hg2  1  0.15118467  0.73269422  0.45560048  1
  Hg  Hg3  1  0.65118467  0.26730578  0.04439952  1
  Hg  Hg4  1  0.84881533  0.26730578  0.54439952  1
  Hg  Hg5  1  0.65966095  0.55882550  0.12328618  1
  Hg  Hg6  1  0.84033905  0.55882550  0.62328618  1
  Hg  Hg7  1  0.34033905  0.44117450  0.87671382  1
  Hg  Hg8  1  0.35874211  0.95424046  0.58620386  1
  Hg  Hg9  1  0.85874211  0.04575954  0.91379614  1
  Hg  Hg10  1  0.64125789  0.04575954  0.41379614  1
  Hg  Hg11  1  0.14125789  0.95424046  0.08620386  1
  P  P12  1  0.12857141  0.23498989  0.22591334  1
  P  P13  1  0.87142859  0.76501011  0.77408666  1
  P  P14  1  0.62857141  0.76501011  0.27408666  1
  P  P15  1  0.37142859  0.23498989  0.72591334  1
  O  O16  1  0.48196584  0.40988276  0.71741271  1
  O  O17  1  0.98196584  0.59011724  0.78258729  1
  O  O18  1  0.51803416  0.59011724  0.28258729  1
  O  O19  1  0.01803416  0.40988276  0.21741271  1
  O  O20  1  0.06474497  0.23784992  0.72942161  1
  O  O21  1  0.56474497  0.76215008  0.77057839  1
  O  O22  1  0.93525503  0.76215008  0.27057839  1
  O  O23  1  0.43525503  0.23784992  0.22942161  1
  O  O24  1  0.47319610  0.06819380  0.83436972  1
  O  O25  1  0.04004003  0.22595992  0.12577866  1
  O  O26  1  0.52680390  0.93180620  0.16563028  1
  O  O27  1  0.02680390  0.06819380  0.33436972  1
  O  O28  1  0.45995997  0.22595992  0.62577866  1
  O  O29  1  0.95995997  0.77404008  0.87422134  1
  O  O30  1  0.54004003  0.77404008  0.37422134  1
  O  O31  1  0.97319610  0.93180620  0.66563028  1
