# generated using pymatgen
data_Na6Sc5Ta3(PO4)12
_symmetry_space_group_name_H-M   'P 1'
_cell_length_a   17.70387230
_cell_length_b   8.85056962
_cell_length_c   22.81065844
_cell_angle_alpha   90.02841803
_cell_angle_beta   90.00559206
_cell_angle_gamma   119.97354002
_symmetry_Int_Tables_number   1
_chemical_formula_structural   Na6Sc5Ta3(PO4)12
_chemical_formula_sum   'Na18 Sc15 Ta9 P36 O144'
_cell_volume   3096.16138643
_cell_formula_units_Z   3
loop_
 _symmetry_equiv_pos_site_id
 _symmetry_equiv_pos_as_xyz
  1  'x, y, z'
loop_
 _atom_site_type_symbol
 _atom_site_label
 _atom_site_symmetry_multiplicity
 _atom_site_fract_x
 _atom_site_fract_y
 _atom_site_fract_z
 _atom_site_occupancy
  Na  Na0  1  0.68342903  0.36812971  0.24937073  1
  Na  Na1  1  0.00017033  0.63227635  0.24946874  1
  Na  Na2  1  0.99957176  0.36627731  0.74782178  1
  Na  Na3  1  0.49963482  0.36634597  0.74793115  1
  Na  Na4  1  0.18298388  0.99807692  0.74782498  1
  Na  Na5  1  0.68296276  0.99809654  0.74802112  1
  Na  Na6  1  0.00010110  0.99967272  0.50420066  1
  Na  Na7  1  0.49992541  0.00007147  0.50432817  1
  Na  Na8  1  0.99897058  0.99825270  0.00493949  1
  Na  Na9  1  0.50108804  0.00212456  0.00458297  1
  Na  Na10  1  0.33319296  0.34068920  0.83570610  1
  Na  Na11  1  0.83285979  0.34026060  0.83635046  1
  Na  Na12  1  0.33322846  0.33356049  0.33846537  1
  Na  Na13  1  0.83312193  0.32491375  0.33646307  1
  Na  Na14  1  0.16957774  0.66534965  0.16970854  1
  Na  Na15  1  0.66789197  0.67695188  0.16932756  1
  Na  Na16  1  0.17087903  0.66609553  0.66571073  1
  Na  Na17  1  0.67084069  0.66600192  0.66588343  1
  Sc  Sc18  1  0.99909527  0.99866927  0.64443506  1
  Sc  Sc19  1  0.49905727  0.99853076  0.64446772  1
  Sc  Sc20  1  0.99833463  0.00054245  0.14639014  1
  Sc  Sc21  1  0.50084528  0.99940913  0.14638346  1
  Sc  Sc22  1  0.33296665  0.34028574  0.68154097  1
  Sc  Sc23  1  0.83294370  0.34022585  0.68156984  1
  Sc  Sc24  1  0.83291462  0.32376318  0.18375158  1
  Sc  Sc25  1  0.33363142  0.33300358  0.98022095  1
  Sc  Sc26  1  0.83320312  0.33294330  0.98194851  1
  Sc  Sc27  1  0.33322833  0.33295971  0.48164860  1
  Sc  Sc28  1  0.83350953  0.33394135  0.48127397  1
  Sc  Sc29  1  0.16993735  0.66614857  0.31500893  1
  Sc  Sc30  1  0.66620766  0.67314422  0.31530676  1
  Sc  Sc31  1  0.16950191  0.66603859  0.81615753  1
  Sc  Sc32  1  0.66941197  0.66628538  0.81631549  1
  Ta  Ta33  1  0.00042208  0.00310439  0.35507260  1
  Ta  Ta34  1  0.49907130  0.99773688  0.35511532  1
  Ta  Ta35  1  0.99933222  0.99838336  0.85530344  1
  Ta  Ta36  1  0.49966239  0.99854420  0.85531617  1
  Ta  Ta37  1  0.33346292  0.33527861  0.18661437  1
  Ta  Ta38  1  0.16637315  0.66711203  0.02104776  1
  Ta  Ta39  1  0.66697639  0.66571664  0.02085704  1
  Ta  Ta40  1  0.16644544  0.66689021  0.51993134  1
  Ta  Ta41  1  0.66651586  0.66692763  0.52006763  1
  P  P42  1  0.14492375  0.00212767  0.24943926  1
  P  P43  1  0.64403971  0.99790321  0.24979571  1
  P  P44  1  0.35601965  0.71211913  0.24894819  1
  P  P45  1  0.85464298  0.71175082  0.25003554  1
  P  P46  1  0.00042587  0.28996054  0.24988003  1
  P  P47  1  0.49864288  0.28732790  0.24966086  1
  P  P48  1  0.14459986  0.28934986  0.75013808  1
  P  P49  1  0.64464169  0.28956149  0.75008657  1
  P  P50  1  0.99895359  0.70971930  0.75033204  1
  P  P51  1  0.49892967  0.70969905  0.75031358  1
  P  P52  1  0.35490640  0.99778372  0.74988008  1
  P  P53  1  0.85481463  0.99769639  0.74982594  1
  P  P54  1  0.47944787  0.33344886  0.58281937  1
  P  P55  1  0.97947528  0.33361411  0.58280798  1
  P  P56  1  0.18732808  0.04133045  0.58297332  1
  P  P57  1  0.68738485  0.04152900  0.58290105  1
  P  P58  1  0.33323986  0.62564238  0.58159886  1
  P  P59  1  0.83331017  0.62561597  0.58164008  1
  P  P60  1  0.47780554  0.62225247  0.08211766  1
  P  P61  1  0.97874591  0.62568650  0.08302600  1
  P  P62  1  0.33355677  0.04486297  0.08246919  1
  P  P63  1  0.83375959  0.04178723  0.08160073  1
  P  P64  1  0.18884908  0.33328436  0.08215340  1
  P  P65  1  0.68718194  0.33181811  0.08308046  1
  P  P66  1  0.31174463  0.66626354  0.91687062  1
  P  P67  1  0.81172339  0.66536870  0.91665728  1
  P  P68  1  0.02143842  0.37701676  0.91577080  1
  P  P69  1  0.52150071  0.37688842  0.91555731  1
  P  P70  1  0.16693517  0.95693026  0.91572136  1
  P  P71  1  0.66711468  0.95721319  0.91589631  1
  P  P72  1  0.31109761  0.95691853  0.41597148  1
  P  P73  1  0.81157028  0.95731128  0.41623991  1
  P  P74  1  0.16739467  0.37725849  0.41627136  1
  P  P75  1  0.66695863  0.37724724  0.41499119  1
  P  P76  1  0.02167957  0.66627096  0.41493271  1
  P  P77  1  0.52110097  0.66506555  0.41616546  1
  O  O78  1  0.10120061  0.03094093  0.30519068  1
  O  O79  1  0.59589797  0.02494527  0.30490926  1
  O  O80  1  0.41431578  0.79886232  0.30481961  1
  O  O81  1  0.91584271  0.80659405  0.30501486  1
  O  O82  1  0.48386276  0.16940569  0.30506375  1
  O  O83  1  0.98945503  0.17178292  0.30540721  1
  O  O84  1  0.09709403  0.16872833  0.80571713  1
  O  O85  1  0.59713028  0.16885211  0.80566565  1
  O  O86  1  0.48826062  0.80546324  0.80601820  1
  O  O87  1  0.98829824  0.80558879  0.80605644  1
  O  O88  1  0.41500547  0.02394107  0.80544575  1
  O  O89  1  0.91503135  0.02397061  0.80543830  1
  O  O90  1  0.39757310  0.97240036  0.69642509  1
  O  O91  1  0.89764249  0.97239130  0.69645127  1
  O  O92  1  0.08674786  0.20575579  0.69705286  1
  O  O93  1  0.58676165  0.20581688  0.69703197  1
  O  O94  1  0.01667576  0.82662934  0.69752144  1
  O  O95  1  0.51660021  0.82654725  0.69748809  1
  O  O96  1  0.39790882  0.82065839  0.19511003  1
  O  O97  1  0.89737444  0.82168832  0.19627436  1
  O  O98  1  0.01392835  0.20569073  0.19622699  1
  O  O99  1  0.51448681  0.20557437  0.19616219  1
  O  O100  1  0.08801009  0.97023950  0.19602295  1
  O  O101  1  0.58902942  0.97424803  0.19593334  1
  O  O102  1  0.44403893  0.37011266  0.64005451  1
  O  O103  1  0.94398799  0.37004248  0.64007818  1
  O  O104  1  0.24104204  0.11224558  0.64023119  1
  O  O105  1  0.74102580  0.11227823  0.64019807  1
  O  O106  1  0.31448972  0.51418152  0.63744426  1
  O  O107  1  0.81442504  0.51415915  0.63744963  1
  O  O108  1  0.43298084  0.50283202  0.13787071  1
  O  O109  1  0.94393362  0.51770282  0.13975434  1
  O  O110  1  0.31840978  0.13461839  0.13801074  1
  O  O111  1  0.81438344  0.11462622  0.13714377  1
  O  O112  1  0.24875742  0.36395078  0.13794937  1
  O  O113  1  0.74097099  0.36942917  0.13989077  1
  O  O114  1  0.23143142  0.30920033  0.02859400  1
  O  O115  1  0.73060739  0.30861162  0.02932439  1
  O  O116  1  0.42314699  0.53715358  0.02855341  1
  O  O117  1  0.92393628  0.53864259  0.02923486  1
  O  O118  1  0.34550525  0.15325913  0.02865467  1
  O  O119  1  0.84589891  0.15084996  0.02757415  1
  O  O120  1  0.23108378  0.15299916  0.52970777  1
  O  O121  1  0.73121779  0.15328974  0.52960867  1
  O  O122  1  0.34586286  0.54042798  0.52790158  1
  O  O123  1  0.84583471  0.54043414  0.52785262  1
  O  O124  1  0.42363722  0.30943115  0.52955289  1
  O  O125  1  0.92353159  0.30945363  0.52954118  1
  O  O126  1  0.26708277  0.69678772  0.97151276  1
  O  O127  1  0.76681260  0.69609376  0.97113716  1
  O  O128  1  0.08259942  0.46883045  0.97015140  1
  O  O129  1  0.58168424  0.46782125  0.96976881  1
  O  O130  1  0.15269591  0.83613772  0.97005695  1
  O  O131  1  0.65171033  0.83569194  0.97000175  1
  O  O132  1  0.26716538  0.83757281  0.47074988  1
  O  O133  1  0.76725973  0.83783431  0.47089014  1
  O  O134  1  0.15181120  0.46578311  0.47095434  1
  O  O135  1  0.65169376  0.46750551  0.46937922  1
  O  O136  1  0.08193135  0.69622241  0.46947160  1
  O  O137  1  0.58105661  0.69709346  0.47082377  1
  O  O138  1  0.06255486  0.64338282  0.35939531  1
  O  O139  1  0.56344649  0.64131251  0.36196587  1
  O  O140  1  0.25707150  0.87248826  0.36173501  1
  O  O141  1  0.75740016  0.87227920  0.36200659  1
  O  O142  1  0.17896489  0.48510887  0.36203133  1
  O  O143  1  0.67815122  0.48107473  0.35929752  1
  O  O144  1  0.06222238  0.48153024  0.86016276  1
  O  O145  1  0.56172048  0.48103947  0.85984421  1
  O  O146  1  0.17843093  0.87597274  0.86000939  1
  O  O147  1  0.67822269  0.87580135  0.86002948  1
  O  O148  1  0.25766041  0.64180990  0.86251439  1
  O  O149  1  0.75772665  0.64180866  0.86229942  1
  O  O150  1  0.01516146  0.83779614  0.40833010  1
  O  O151  1  0.51451287  0.83675671  0.40861726  1
  O  O152  1  0.40329346  0.96959006  0.40850885  1
  O  O153  1  0.90395240  0.97082358  0.40875899  1
  O  O154  1  0.08171005  0.19277816  0.40918739  1
  O  O155  1  0.58091718  0.19200048  0.40810632  1
  O  O156  1  0.01509099  0.19292252  0.90914572  1
  O  O157  1  0.51476175  0.19249356  0.90898765  1
  O  O158  1  0.08141929  0.96994368  0.90951003  1
  O  O159  1  0.58133986  0.97033198  0.90930737  1
  O  O160  1  0.40355171  0.83707787  0.90955602  1
  O  O161  1  0.90348331  0.83677612  0.90933873  1
  O  O162  1  0.49313058  0.17695167  0.58875639  1
  O  O163  1  0.99314475  0.17707724  0.58877837  1
  O  O164  1  0.09546739  0.01424387  0.58903042  1
  O  O165  1  0.59550485  0.01427547  0.58900811  1
  O  O166  1  0.41161306  0.80880613  0.58848848  1
  O  O167  1  0.91155800  0.80881952  0.58848692  1
  O  O168  1  0.49048563  0.80349350  0.09032908  1
  O  O169  1  0.99388807  0.81051187  0.08862373  1
  O  O170  1  0.41086456  0.01791098  0.09097550  1
  O  O171  1  0.91179436  0.01398183  0.08780201  1
  O  O172  1  0.09827731  0.17861131  0.09076048  1
  O  O173  1  0.59486528  0.17593615  0.08844416  1
  O  O174  1  0.34855248  0.16643627  0.74767951  1
  O  O175  1  0.84857747  0.16641422  0.74765686  1
  O  O176  1  0.23329267  0.29769536  0.74729636  1
  O  O177  1  0.73329686  0.29773062  0.74723536  1
  O  O178  1  0.41848448  0.52649383  0.74728907  1
  O  O179  1  0.91852138  0.52657565  0.74728308  1
  O  O180  1  0.34852323  0.52632623  0.24142937  1
  O  O181  1  0.84871597  0.53063121  0.24739795  1
  O  O182  1  0.41500587  0.30475342  0.24187867  1
  O  O183  1  0.91818777  0.30879297  0.24729183  1
  O  O184  1  0.23722527  0.17004477  0.24163510  1
  O  O185  1  0.73272317  0.16963950  0.24740989  1
  O  O186  1  0.32450872  0.51043056  0.92400831  1
  O  O187  1  0.82471461  0.51010885  0.92382580  1
  O  O188  1  0.43084834  0.35150323  0.92336037  1
  O  O189  1  0.93103875  0.35214545  0.92346147  1
  O  O190  1  0.24484433  0.13807038  0.92350560  1
  O  O191  1  0.74493685  0.13848676  0.92336719  1
  O  O192  1  0.32472729  0.13881891  0.42359380  1
  O  O193  1  0.82460206  0.13869355  0.42379498  1
  O  O194  1  0.24489028  0.35054799  0.42360849  1
  O  O195  1  0.74444847  0.35064354  0.42319512  1
  O  O196  1  0.43045055  0.51021046  0.42361935  1
  O  O197  1  0.93110330  0.51053095  0.42320813  1
  O  O198  1  0.18211461  0.50458964  0.07534605  1
  O  O199  1  0.67807591  0.50128928  0.07243446  1
  O  O200  1  0.07269220  0.64255236  0.07223089  1
  O  O201  1  0.57000672  0.63655403  0.07551183  1
  O  O202  1  0.24808366  0.86016071  0.07533996  1
  O  O203  1  0.74869974  0.85440060  0.07213091  1
  O  O204  1  0.17842324  0.85468565  0.57304465  1
  O  O205  1  0.67852873  0.85469584  0.57305875  1
  O  O206  1  0.24885134  0.64358775  0.57265120  1
  O  O207  1  0.74877957  0.64321285  0.57260408  1
  O  O208  1  0.07273217  0.50273844  0.57305520  1
  O  O209  1  0.57281704  0.50234864  0.57297400  1
  O  O210  1  0.15465069  0.84078070  0.25723484  1
  O  O211  1  0.65449630  0.83849077  0.25692309  1
  O  O212  1  0.26475308  0.68464408  0.25662784  1
  O  O213  1  0.76214919  0.68266119  0.25690591  1
  O  O214  1  0.07954569  0.47478228  0.25693898  1
  O  O215  1  0.57952611  0.46742525  0.25761328  1
  O  O216  1  0.15166569  0.46823404  0.75781441  1
  O  O217  1  0.65169293  0.46836787  0.75779522  1
  O  O218  1  0.08107714  0.69104617  0.75795109  1
  O  O219  1  0.58104452  0.69097794  0.75785922  1
  O  O220  1  0.26242629  0.84140534  0.75694025  1
  O  O221  1  0.76239443  0.84134599  0.75691194  1
