# generated using pymatgen
data_Na7Ta2Al2Si5PO24
_symmetry_space_group_name_H-M   'P 1'
_cell_length_a   8.92824671
_cell_length_b   8.93338353
_cell_length_c   21.91979615
_cell_angle_alpha   89.62346292
_cell_angle_beta   90.12358675
_cell_angle_gamma   119.87268486
_symmetry_Int_Tables_number   1
_chemical_formula_structural   Na7Ta2Al2Si5PO24
_chemical_formula_sum   'Na21 Ta6 Al6 Si15 P3 O72'
_cell_volume   1515.98638033
_cell_formula_units_Z   3
loop_
 _symmetry_equiv_pos_site_id
 _symmetry_equiv_pos_as_xyz
  1  'x, y, z'
loop_
 _atom_site_type_symbol
 _atom_site_label
 _atom_site_symmetry_multiplicity
 _atom_site_fract_x
 _atom_site_fract_y
 _atom_site_fract_z
 _atom_site_occupancy
  Na  Na0  1  0.64025408  0.00928718  0.24891745  1
  Na  Na1  1  0.37194140  0.36265829  0.24612799  1
  Na  Na2  1  0.98965402  0.62610779  0.24715142  1
  Na  Na3  1  0.63629909  0.62626957  0.74679357  1
  Na  Na4  1  0.98963807  0.36127735  0.74771150  1
  Na  Na5  1  0.37425431  0.01175082  0.74716212  1
  Na  Na6  1  0.30483880  0.34149619  0.58122511  1
  Na  Na7  1  0.03950838  0.69746949  0.58022779  1
  Na  Na8  1  0.65791835  0.96062668  0.58069404  1
  Na  Na9  1  0.30023561  0.96281037  0.07892885  1
  Na  Na10  1  0.04242254  0.34588158  0.08181058  1
  Na  Na11  1  0.97274619  0.67639776  0.91462613  1
  Na  Na12  1  0.32225234  0.29111104  0.91488720  1
  Na  Na13  1  0.32338318  0.02818052  0.41456154  1
  Na  Na14  1  0.70732350  0.67585840  0.41477090  1
  Na  Na15  1  0.99707639  0.00696447  0.49290366  1
  Na  Na16  1  0.98547401  0.99497557  0.99385714  1
  Na  Na17  1  0.66751730  0.32202650  0.82847633  1
  Na  Na18  1  0.67730783  0.33207650  0.32886758  1
  Na  Na19  1  0.34182931  0.66342784  0.15945987  1
  Na  Na20  1  0.33472017  0.66684909  0.66099808  1
  Ta  Ta21  1  0.99938057  0.99961815  0.64585800  1
  Ta  Ta22  1  -0.00022832  0.99787860  0.14516910  1
  Ta  Ta23  1  0.66614608  0.33212975  0.97884652  1
  Ta  Ta24  1  0.67251056  0.33206429  0.47864519  1
  Ta  Ta25  1  0.32919087  0.66755830  0.31233651  1
  Ta  Ta26  1  0.33149429  0.66942537  0.81283840  1
  Al  Al27  1  0.99317130  0.99669788  0.35211003  1
  Al  Al28  1  0.00343445  0.00621873  0.85234700  1
  Al  Al29  1  0.66699999  0.33338086  0.68669885  1
  Al  Al30  1  0.66778070  0.33996987  0.18757074  1
  Al  Al31  1  0.32611666  0.65760842  0.01898672  1
  Al  Al32  1  0.33622949  0.67269716  0.52033938  1
  Si  Si33  1  0.29222714  0.00779002  0.25295581  1
  Si  Si34  1  0.71392410  0.70746402  0.25280547  1
  Si  Si35  1  0.99306858  0.28251615  0.25150870  1
  Si  Si36  1  0.29406938  0.28688100  0.75235166  1
  Si  Si37  1  0.99263535  0.70829299  0.75366256  1
  Si  Si38  1  0.71628641  0.00625043  0.75275004  1
  Si  Si39  1  0.96093274  0.34065564  0.58650986  1
  Si  Si40  1  0.38190212  0.04325170  0.58541340  1
  Si  Si41  1  0.66022996  0.61811266  0.58500127  1
  Si  Si42  1  0.95684254  0.62055423  0.08535737  1
  Si  Si43  1  0.38441025  0.34686996  0.08584605  1
  Si  Si44  1  0.04211454  0.36720038  0.91878719  1
  Si  Si45  1  0.32891402  0.95320045  0.91999586  1
  Si  Si46  1  0.62939063  0.95517642  0.41869871  1
  Si  Si47  1  0.04573125  0.67230421  0.41943903  1
  P  P48  1  0.66125886  0.04077445  0.08553423  1
  P  P49  1  0.62121004  0.67476348  0.91987226  1
  P  P50  1  0.32524144  0.37540649  0.41941421  1
  O  O51  1  0.20104646  0.03709449  0.31143994  1
  O  O52  1  0.83433252  0.79399869  0.31173813  1
  O  O53  1  0.96188043  0.15414618  0.30748411  1
  O  O54  1  0.20452264  0.16469183  0.81091437  1
  O  O55  1  0.96568894  0.80114866  0.81200295  1
  O  O56  1  0.84538396  0.03664027  0.80798409  1
  O  O57  1  0.79609071  0.96390471  0.69034784  1
  O  O58  1  0.16620968  0.20264764  0.69162622  1
  O  O59  1  0.03560050  0.83413399  0.69218824  1
  O  O60  1  0.80248471  0.84058978  0.19379360  1
  O  O61  1  0.03540819  0.20400535  0.18930229  1
  O  O62  1  0.16498765  0.96501192  0.19211991  1
  O  O63  1  0.87111974  0.37186690  0.64502929  1
  O  O64  1  0.50285209  0.13449023  0.64382771  1
  O  O65  1  0.63144553  0.49821261  0.64411427  1
  O  O66  1  0.86521927  0.49636513  0.14362728  1
  O  O67  1  0.63400752  0.12438638  0.14234830  1
  O  O68  1  0.49572452  0.35806531  0.14533707  1
  O  O69  1  0.46817481  0.30237665  0.02542256  1
  O  O70  1  0.83683051  0.52923591  0.02403772  1
  O  O71  1  0.69517006  0.16420812  0.02897850  1
  O  O72  1  0.46487547  0.16854438  0.52420779  1
  O  O73  1  0.69987820  0.53282304  0.52437860  1
  O  O74  1  0.82860605  0.29810204  0.52721922  1
  O  O75  1  0.52651791  0.69173386  0.97369986  1
  O  O76  1  0.16359483  0.46133480  0.97717917  1
  O  O77  1  0.30330693  0.83014335  0.97780989  1
  O  O78  1  0.53490073  0.83348454  0.47754765  1
  O  O79  1  0.30855684  0.46568223  0.47589834  1
  O  O80  1  0.16821821  0.69815407  0.47737159  1
  O  O81  1  0.13255817  0.63774657  0.35780769  1
  O  O82  1  0.50112478  0.86328666  0.35831610  1
  O  O83  1  0.35942657  0.49236364  0.36128036  1
  O  O84  1  0.13414235  0.49741137  0.85845087  1
  O  O85  1  0.36295945  0.86615793  0.85821416  1
  O  O86  1  0.50855148  0.63728877  0.86027296  1
  O  O87  1  0.02849011  0.84479782  0.41187541  1
  O  O88  1  0.81668675  0.97225935  0.41034071  1
  O  O89  1  0.17136465  0.19360691  0.41241056  1
  O  O90  1  0.02665475  0.18075035  0.91020551  1
  O  O91  1  0.15636822  0.97081665  0.91238112  1
  O  O92  1  0.80542317  0.82695609  0.91257614  1
  O  O93  1  0.97472253  0.16234296  0.58806851  1
  O  O94  1  0.18783317  0.02618081  0.58840573  1
  O  O95  1  0.83759155  0.81165968  0.58820145  1
  O  O96  1  0.97822821  0.81632528  0.08768771  1
  O  O97  1  0.83226619  0.03362983  0.08773008  1
  O  O98  1  0.18773230  0.16707831  0.08847549  1
  O  O99  1  0.68994611  0.17206904  0.74429425  1
  O  O100  1  0.48468123  0.31006136  0.74396727  1
  O  O101  1  0.82739198  0.51709775  0.74545930  1
  O  O102  1  0.69015691  0.51642416  0.24421667  1
  O  O103  1  0.82614675  0.30810136  0.24302634  1
  O  O104  1  0.48530324  0.17068252  0.24369633  1
  O  O105  1  0.63591334  0.50387239  0.92332238  1
  O  O106  1  0.85391497  0.36292271  0.92154172  1
  O  O107  1  0.49965717  0.15079242  0.92241467  1
  O  O108  1  0.63204423  0.14288289  0.42100565  1
  O  O109  1  0.49593442  0.36289878  0.42150770  1
  O  O110  1  0.84824754  0.50115163  0.42107983  1
  O  O111  1  0.35563479  0.51063960  0.07698131  1
  O  O112  1  0.15088721  0.64658502  0.07815604  1
  O  O113  1  0.50198238  0.86376586  0.07611549  1
  O  O114  1  0.35753208  0.85135197  0.57792856  1
  O  O115  1  0.49203981  0.64155410  0.57681050  1
  O  O116  1  0.15190060  0.50572698  0.57620792  1
  O  O117  1  0.30695238  0.82858556  0.25525503  1
  O  O118  1  0.51909981  0.68793463  0.25647670  1
  O  O119  1  0.17049826  0.47629591  0.25612755  1
  O  O120  1  0.31191641  0.48101787  0.75640151  1
  O  O121  1  0.17179321  0.69320422  0.75562641  1
  O  O122  1  0.52312129  0.82831716  0.75622779  1
