# generated using pymatgen
data_Na3ZnGaP2SO12
_symmetry_space_group_name_H-M   'P 1'
_cell_length_a   8.88279654
_cell_length_b   8.83497647
_cell_length_c   22.18048494
_cell_angle_alpha   90.30271032
_cell_angle_beta   90.00000000
_cell_angle_gamma   120.17920902
_symmetry_Int_Tables_number   1
_chemical_formula_structural   Na3ZnGaP2SO12
_chemical_formula_sum   'Na18 Zn6 Ga6 P12 S6 O72'
_cell_volume   1504.74036772
_cell_formula_units_Z   6
loop_
 _symmetry_equiv_pos_site_id
 _symmetry_equiv_pos_as_xyz
  1  'x, y, z'
loop_
 _atom_site_type_symbol
 _atom_site_label
 _atom_site_symmetry_multiplicity
 _atom_site_fract_x
 _atom_site_fract_y
 _atom_site_fract_z
 _atom_site_occupancy
  Na  Na0  1  0.36222889  0.36023293  0.24848902  1
  Na  Na1  1  0.99861006  0.63058677  0.24827046  1
  Na  Na2  1  0.63197671  0.63058677  0.74827046  1
  Na  Na3  1  0.99800404  0.36023293  0.74848902  1
  Na  Na4  1  0.02889589  0.69356593  0.58182202  1
  Na  Na5  1  0.66527706  0.96391977  0.58160346  1
  Na  Na6  1  0.29864371  0.96391977  0.08160346  1
  Na  Na7  1  0.66467104  0.69356593  0.08182202  1
  Na  Na8  1  0.69556189  0.02689993  0.91515602  1
  Na  Na9  1  0.33194306  0.29725377  0.91493746  1
  Na  Na10  1  0.96530971  0.29725377  0.41493746  1
  Na  Na11  1  0.33133704  0.02689993  0.41515602  1
  Na  Na12  1  0.99237848  0.99439804  0.49857370  1
  Na  Na13  1  0.00201956  0.99439804  0.99857370  1
  Na  Na14  1  0.65904548  0.32773104  0.83190670  1
  Na  Na15  1  0.66868656  0.32773104  0.33190670  1
  Na  Na16  1  0.32571148  0.66106504  0.16524070  1
  Na  Na17  1  0.33535256  0.66106504  0.66524070  1
  Zn  Zn18  1  0.99236341  0.99514850  0.34966222  1
  Zn  Zn19  1  0.00278509  0.99514850  0.84966222  1
  Zn  Zn20  1  0.65903041  0.32848150  0.68299522  1
  Zn  Zn21  1  0.66945209  0.32848150  0.18299522  1
  Zn  Zn22  1  0.32569641  0.66181550  0.01632922  1
  Zn  Zn23  1  0.33611809  0.66181550  0.51632922  1
  Ga  Ga24  1  0.99447802  0.01326148  0.65075243  1
  Ga  Ga25  1  0.01878346  0.01326148  0.15075243  1
  Ga  Ga26  1  0.66114502  0.34659448  0.98408543  1
  Ga  Ga27  1  0.68545046  0.34659448  0.48408543  1
  Ga  Ga28  1  0.32781102  0.67992848  0.31741943  1
  Ga  Ga29  1  0.35211646  0.67992848  0.81741943  1
  P  P30  1  0.29497037  0.00080829  0.25117437  1
  P  P31  1  -0.00111945  0.29043995  0.25145686  1
  P  P32  1  0.29155940  0.29043995  0.75145686  1
  P  P33  1  0.70583792  0.00080829  0.75117437  1
  P  P34  1  0.96163737  0.33414129  0.58450737  1
  P  P35  1  0.66554755  0.62377295  0.58478986  1
  P  P36  1  0.95822640  0.62377295  0.08478986  1
  P  P37  1  0.37250492  0.33414129  0.08450737  1
  P  P38  1  0.62830337  0.66747529  0.91784137  1
  P  P39  1  0.33221355  0.95710695  0.91812386  1
  P  P40  1  0.62489240  0.95710695  0.41812386  1
  P  P41  1  0.03917092  0.66747529  0.41784137  1
  S  S42  1  0.70584982  0.71124106  0.24972993  1
  S  S43  1  0.00539124  0.71124106  0.74972993  1
  S  S44  1  0.37251682  0.04457406  0.58306293  1
  S  S45  1  0.67205824  0.04457406  0.08306293  1
  S  S46  1  0.03918282  0.37790806  0.91639693  1
  S  S47  1  0.33872424  0.37790806  0.41639693  1
  O  O48  1  0.21365406  0.03338846  0.30698471  1
  O  O49  1  0.81763680  0.78739390  0.30286383  1
  O  O50  1  0.97202260  0.18418828  0.30825957  1
  O  O51  1  0.21216569  0.18418828  0.80825957  1
  O  O52  1  0.96975710  0.78739390  0.80286383  1
  O  O53  1  0.81973440  0.03338846  0.80698471  1
  O  O54  1  0.78441543  0.95906549  0.69383427  1
  O  O55  1  0.17052171  0.20735396  0.69501693  1
  O  O56  1  0.03390117  0.81769489  0.69422341  1
  O  O57  1  0.78379372  0.81769489  0.19422341  1
  O  O58  1  0.03683225  0.20735396  0.19501693  1
  O  O59  1  0.17465006  0.95906549  0.19383427  1
  O  O60  1  0.88032106  0.36672146  0.64031771  1
  O  O61  1  0.48430380  0.12072690  0.63619683  1
  O  O62  1  0.63868960  0.51752128  0.64159257  1
  O  O63  1  0.87883269  0.51752128  0.14159257  1
  O  O64  1  0.63642410  0.12072690  0.13619683  1
  O  O65  1  0.48640140  0.36672146  0.14031771  1
  O  O66  1  0.45108243  0.29239849  0.02716727  1
  O  O67  1  0.83718871  0.54068696  0.02834993  1
  O  O68  1  0.70056817  0.15102789  0.02755641  1
  O  O69  1  0.45046072  0.15102789  0.52755641  1
  O  O70  1  0.70349925  0.54068696  0.52834993  1
  O  O71  1  0.84131706  0.29239849  0.52716727  1
  O  O72  1  0.54698706  0.70005546  0.97365171  1
  O  O73  1  0.15096980  0.45406090  0.96953083  1
  O  O74  1  0.30535560  0.85085528  0.97492657  1
  O  O75  1  0.54549869  0.85085528  0.47492657  1
  O  O76  1  0.30309010  0.45406090  0.46953083  1
  O  O77  1  0.15306740  0.70005546  0.47365171  1
  O  O78  1  0.11774843  0.62573249  0.36050127  1
  O  O79  1  0.50385471  0.87402096  0.36168393  1
  O  O80  1  0.36723417  0.48436189  0.36089041  1
  O  O81  1  0.11712672  0.48436189  0.86089041  1
  O  O82  1  0.37016525  0.87402096  0.86168393  1
  O  O83  1  0.50798306  0.62573249  0.86050127  1
  O  O84  1  0.02635269  0.83284188  0.40993307  1
  O  O85  1  0.81008740  0.98782256  0.41100610  1
  O  O86  1  0.18087669  0.20036203  0.41083937  1
  O  O87  1  0.01948534  0.20036203  0.91083937  1
  O  O88  1  0.17773515  0.98782256  0.91100610  1
  O  O89  1  0.80648919  0.83284188  0.90993307  1
  O  O90  1  0.97102006  0.16135001  0.58936147  1
  O  O91  1  0.19437695  0.02113630  0.58956198  1
  O  O92  1  0.84009228  0.81128521  0.59000629  1
  O  O93  1  0.97119293  0.81128521  0.09000629  1
  O  O94  1  0.82675935  0.02113630  0.08956198  1
  O  O95  1  0.19032996  0.16135001  0.08936147  1
  O  O96  1  0.69301969  0.16617488  0.74326607  1
  O  O97  1  0.47675440  0.32115556  0.74433910  1
  O  O98  1  0.84754369  0.53369503  0.74417237  1
  O  O99  1  0.68615234  0.53369503  0.24417237  1
  O  O100  1  0.84440215  0.32115556  0.24433910  1
  O  O101  1  0.47315619  0.16617488  0.24326607  1
  O  O102  1  0.63768706  0.49468301  0.92269447  1
  O  O103  1  0.86104395  0.35446930  0.92289498  1
  O  O104  1  0.50675928  0.14461821  0.92333929  1
  O  O105  1  0.63785993  0.14461821  0.42333929  1
  O  O106  1  0.49342635  0.35446930  0.42289498  1
  O  O107  1  0.85699696  0.49468301  0.42269447  1
  O  O108  1  0.35968569  0.49950888  0.07660007  1
  O  O109  1  0.14342040  0.65448956  0.07767310  1
  O  O110  1  0.51420969  0.86702903  0.07750637  1
  O  O111  1  0.35281834  0.86702903  0.57750637  1
  O  O112  1  0.51106815  0.65448956  0.57767310  1
  O  O113  1  0.13982219  0.49950888  0.57660007  1
  O  O114  1  0.30435306  0.82801701  0.25602847  1
  O  O115  1  0.52770995  0.68780330  0.25622898  1
  O  O116  1  0.17342528  0.47795221  0.25667329  1
  O  O117  1  0.30452593  0.47795221  0.75667329  1
  O  O118  1  0.16009235  0.68780330  0.75622898  1
  O  O119  1  0.52366296  0.82801701  0.75602847  1
