# generated using pymatgen
data_Na8In2Si5Sn2SO24
_symmetry_space_group_name_H-M   'P 1'
_cell_length_a   9.22608535
_cell_length_b   9.21279692
_cell_length_c   22.66283613
_cell_angle_alpha   90.25393686
_cell_angle_beta   89.33659722
_cell_angle_gamma   120.04039199
_symmetry_Int_Tables_number   1
_chemical_formula_structural   Na8In2Si5Sn2SO24
_chemical_formula_sum   'Na24 In6 Si15 Sn6 S3 O72'
_cell_volume   1667.42878941
_cell_formula_units_Z   3
loop_
 _symmetry_equiv_pos_site_id
 _symmetry_equiv_pos_as_xyz
  1  'x, y, z'
loop_
 _atom_site_type_symbol
 _atom_site_label
 _atom_site_symmetry_multiplicity
 _atom_site_fract_x
 _atom_site_fract_y
 _atom_site_fract_z
 _atom_site_occupancy
  Na  Na0  1  0.64012803  0.00134484  0.25250662  1
  Na  Na1  1  0.35952995  0.36150999  0.24722747  1
  Na  Na2  1  0.99992069  0.63847911  0.24968760  1
  Na  Na3  1  0.63685478  0.63567672  0.74656766  1
  Na  Na4  1  0.99700780  0.36319911  0.74939066  1
  Na  Na5  1  0.36666749  0.00467437  0.74944408  1
  Na  Na6  1  0.30030623  0.33754513  0.58669983  1
  Na  Na7  1  0.03897888  0.70207014  0.58326198  1
  Na  Na8  1  0.66387089  0.96096366  0.58330650  1
  Na  Na9  1  0.28529746  0.96369967  0.08137457  1
  Na  Na10  1  0.66953454  0.69149560  0.08729424  1
  Na  Na11  1  0.04541426  0.33874764  0.08640722  1
  Na  Na12  1  0.97530392  0.66818028  0.91614584  1
  Na  Na13  1  0.70405588  0.04415713  0.90937949  1
  Na  Na14  1  0.32103239  0.28444422  0.91825279  1
  Na  Na15  1  0.95927305  0.29500155  0.41296918  1
  Na  Na16  1  0.32832254  0.02173213  0.41623098  1
  Na  Na17  1  0.71254404  0.68021274  0.41821117  1
  Na  Na18  1  0.99124910  0.98999395  0.50125282  1
  Na  Na19  1  0.01921788  0.00749510  0.99983862  1
  Na  Na20  1  0.66706780  0.32545538  0.83147614  1
  Na  Na21  1  0.67329872  0.33267509  0.33197272  1
  Na  Na22  1  0.32475285  0.65760681  0.16714522  1
  Na  Na23  1  0.33401072  0.66752235  0.66425946  1
  In  In24  1  0.99370756  0.99288380  0.34604568  1
  In  In25  1  0.00913352  0.00658870  0.84641868  1
  In  In26  1  0.00734281  0.99930754  0.15389593  1
  In  In27  1  0.66609679  0.33291476  0.98221066  1
  In  In28  1  0.31319499  0.65332690  0.01721799  1
  In  In29  1  0.33573634  0.67706367  0.52057348  1
  Si  Si30  1  0.30013242  0.00280388  0.25023466  1
  Si  Si31  1  0.69916440  0.70274591  0.25025716  1
  Si  Si32  1  0.99969400  0.29760937  0.25019110  1
  Si  Si33  1  0.29885314  0.29845904  0.74930166  1
  Si  Si34  1  0.99613935  0.70558884  0.74962893  1
  Si  Si35  1  0.70496851  0.99947368  0.75062180  1
  Si  Si36  1  0.96187486  0.33002019  0.58463842  1
  Si  Si37  1  0.37463658  0.04642520  0.58440570  1
  Si  Si38  1  0.66810421  0.62547150  0.58349778  1
  Si  Si39  1  0.95872500  0.62959372  0.08311295  1
  Si  Si40  1  0.37181523  0.33432783  0.08270344  1
  Si  Si41  1  0.03588963  0.36607048  0.91593006  1
  Si  Si42  1  0.33390604  0.96080329  0.91737949  1
  Si  Si43  1  0.62984407  0.96338960  0.41753728  1
  Si  Si44  1  0.03602380  0.66606414  0.41816742  1
  Sn  Sn45  1  0.99993321  0.00049848  0.64903386  1
  Sn  Sn46  1  0.66867545  0.33475265  0.68451879  1
  Sn  Sn47  1  0.66789798  0.34265994  0.18596205  1
  Sn  Sn48  1  0.67724974  0.33110006  0.48586879  1
  Sn  Sn49  1  0.32957790  0.67474623  0.31473434  1
  Sn  Sn50  1  0.32348756  0.66945785  0.81201894  1
  S  S51  1  0.66657844  0.03751594  0.08386324  1
  S  S52  1  0.62438074  0.66880819  0.91631628  1
  S  S53  1  0.33555972  0.37362652  0.41653256  1
  O  O54  1  0.22826883  0.04902773  0.30870645  1
  O  O55  1  0.81416930  0.77145727  0.30832299  1
  O  O56  1  0.96069173  0.18429812  0.30913198  1
  O  O57  1  0.23166735  0.18582200  0.80880945  1
  O  O58  1  0.95391718  0.77636431  0.80926056  1
  O  O59  1  0.81688430  0.03786269  0.80942848  1
  O  O60  1  0.78599528  0.95919120  0.69210820  1
  O  O61  1  0.17473342  0.21712360  0.69231773  1
  O  O62  1  0.03750056  0.82786088  0.69191542  1
  O  O63  1  0.77169614  0.82082879  0.19179040  1
  O  O64  1  0.03917581  0.22305999  0.19086761  1
  O  O65  1  0.18525114  0.95621824  0.19193304  1
  O  O66  1  0.87828845  0.36979883  0.64179654  1
  O  O67  1  0.49452442  0.12981150  0.64152509  1
  O  O68  1  0.63363026  0.50780748  0.64156843  1
  O  O69  1  0.87396746  0.50342949  0.14087096  1
  O  O70  1  0.63820833  0.11701138  0.13691439  1
  O  O71  1  0.48981863  0.36409069  0.14144662  1
  O  O72  1  0.44998470  0.29442398  0.02397398  1
  O  O73  1  0.84667552  0.54848577  0.02404114  1
  O  O74  1  0.69527493  0.14068980  0.02978525  1
  O  O75  1  0.45508951  0.16494016  0.52443132  1
  O  O76  1  0.70422757  0.54318873  0.52357045  1
  O  O77  1  0.84537578  0.28793036  0.52513027  1
  O  O78  1  0.54846032  0.69348568  0.97044301  1
  O  O79  1  0.15165545  0.43712678  0.97439220  1
  O  O80  1  0.30831636  0.85136020  0.97699806  1
  O  O81  1  0.55179080  0.84295438  0.47468135  1
  O  O82  1  0.30822496  0.45020281  0.47034543  1
  O  O83  1  0.14977293  0.69709305  0.47574544  1
  O  O84  1  0.11660999  0.62247312  0.35916367  1
  O  O85  1  0.50930736  0.87943793  0.35874859  1
  O  O86  1  0.36264069  0.47938774  0.36317890  1
  O  O87  1  0.12511132  0.49048770  0.85796782  1
  O  O88  1  0.37253691  0.87594868  0.85864554  1
  O  O89  1  0.51922662  0.64254613  0.86323712  1
  O  O90  1  0.02210281  0.83576821  0.41233555  1
  O  O91  1  0.81954173  0.99225690  0.41231635  1
  O  O92  1  0.18524820  0.20530963  0.41181500  1
  O  O93  1  0.00951390  0.17670776  0.91194939  1
  O  O94  1  0.16120250  0.97032308  0.91334211  1
  O  O95  1  0.79253636  0.81841931  0.91166235  1
  O  O96  1  0.97399420  0.15807067  0.58959260  1
  O  O97  1  0.18870198  0.03116183  0.58869609  1
  O  O98  1  0.84000819  0.81123403  0.58806797  1
  O  O99  1  0.97002334  0.81283422  0.08775135  1
  O  O100  1  0.81920915  0.02314954  0.08864605  1
  O  O101  1  0.18276782  0.17043302  0.08721704  1
  O  O102  1  0.68349165  0.16639962  0.74381790  1
  O  O103  1  0.48627099  0.31908104  0.74260195  1
  O  O104  1  0.83076710  0.51675830  0.74367232  1
  O  O105  1  0.67911438  0.51407092  0.24515558  1
  O  O106  1  0.82939629  0.31527992  0.24347010  1
  O  O107  1  0.49081966  0.16762580  0.24219206  1
  O  O108  1  0.63940840  0.51450743  0.91899473  1
  O  O109  1  0.85316317  0.35845114  0.91930729  1
  O  O110  1  0.50347222  0.14904600  0.91847022  1
  O  O111  1  0.63614888  0.14896756  0.42179966  1
  O  O112  1  0.48954193  0.35973544  0.42018985  1
  O  O113  1  0.84526070  0.49331942  0.42139703  1
  O  O114  1  0.36873202  0.51266378  0.08025798  1
  O  O115  1  0.14668871  0.64992564  0.08366066  1
  O  O116  1  0.51638918  0.86996409  0.07937912  1
  O  O117  1  0.35583121  0.86087628  0.58223441  1
  O  O118  1  0.49946411  0.64051172  0.57938538  1
  O  O119  1  0.14757904  0.49509026  0.57914969  1
  O  O120  1  0.31940600  0.83381336  0.25549387  1
  O  O121  1  0.50886166  0.67782907  0.25864445  1
  O  O122  1  0.17081585  0.48566961  0.25686323  1
  O  O123  1  0.31864156  0.48746144  0.75599861  1
  O  O124  1  0.16744800  0.68939308  0.75257300  1
  O  O125  1  0.51780299  0.82668305  0.75558321  1
