# generated using pymatgen
data_Rb3CuO2
_symmetry_space_group_name_H-M   'P 1'
_cell_length_a   9.67276423
_cell_length_b   6.72784901
_cell_length_c   9.40906271
_cell_angle_alpha   68.05019164
_cell_angle_beta   90.00000000
_cell_angle_gamma   90.00000000
_symmetry_Int_Tables_number   1
_chemical_formula_structural   Rb3CuO2
_chemical_formula_sum   'Rb12 Cu4 O8'
_cell_volume   567.92708170
_cell_formula_units_Z   4
loop_
 _symmetry_equiv_pos_site_id
 _symmetry_equiv_pos_as_xyz
  1  'x, y, z'
loop_
 _atom_site_type_symbol
 _atom_site_label
 _atom_site_symmetry_multiplicity
 _atom_site_fract_x
 _atom_site_fract_y
 _atom_site_fract_z
 _atom_site_occupancy
  Rb  Rb0  1  0.96569702  0.75411853  0.50483459  1
  Rb  Rb1  1  0.46569702  0.24588147  0.99516541  1
  Rb  Rb2  1  0.03430298  0.24588147  0.49516541  1
  Rb  Rb3  1  0.53430298  0.75411853  0.00483459  1
  Rb  Rb4  1  0.52432283  0.73726539  0.62504045  1
  Rb  Rb5  1  0.02432283  0.26273461  0.87495955  1
  Rb  Rb6  1  0.47567717  0.26273461  0.37495955  1
  Rb  Rb7  1  0.97567717  0.73726539  0.12504045  1
  Rb  Rb8  1  0.79113791  0.24134169  0.18723533  1
  Rb  Rb9  1  0.29113791  0.75865831  0.31276467  1
  Rb  Rb10  1  0.20886209  0.75865831  0.81276467  1
  Rb  Rb11  1  0.70886209  0.24134169  0.68723533  1
  Cu  Cu12  1  0.82089580  0.70856506  0.82753191  1
  Cu  Cu13  1  0.32089580  0.29143494  0.67246809  1
  Cu  Cu14  1  0.17910420  0.29143494  0.17246809  1
  Cu  Cu15  1  0.67910420  0.70856506  0.32753191  1
  O  O16  1  0.80109851  0.49176934  0.37879240  1
  O  O17  1  0.30109851  0.50823066  0.12120760  1
  O  O18  1  0.19890149  0.50823066  0.62120760  1
  O  O19  1  0.69890149  0.49176934  0.87879240  1
  O  O20  1  0.43871716  0.06907215  0.72221945  1
  O  O21  1  0.06128284  0.06907215  0.22221945  1
  O  O22  1  0.93871716  0.93092785  0.77778055  1
  O  O23  1  0.56128284  0.93092785  0.27778055  1
