# generated using pymatgen
data_CdH6(CO3)2
_symmetry_space_group_name_H-M   'P 1'
_cell_length_a   7.30438274
_cell_length_b   8.94897359
_cell_length_c   9.75435593
_cell_angle_alpha   82.67748998
_cell_angle_beta   90.00000000
_cell_angle_gamma   90.00000000
_symmetry_Int_Tables_number   1
_chemical_formula_structural   CdH6(CO3)2
_chemical_formula_sum   'Cd4 H24 C8 O24'
_cell_volume   632.41026786
_cell_formula_units_Z   4
loop_
 _symmetry_equiv_pos_site_id
 _symmetry_equiv_pos_as_xyz
  1  'x, y, z'
loop_
 _atom_site_type_symbol
 _atom_site_label
 _atom_site_symmetry_multiplicity
 _atom_site_fract_x
 _atom_site_fract_y
 _atom_site_fract_z
 _atom_site_occupancy
  Cd  Cd0  1  0.50000000  0.50000000  0.00000000  1
  Cd  Cd1  1  -0.00000000  0.50000000  0.50000000  1
  Cd  Cd2  1  -0.00000000  -0.00000000  0.00000000  1
  Cd  Cd3  1  0.50000000  -0.00000000  0.50000000  1
  H  H4  1  0.65438336  0.45550084  0.27763739  1
  H  H5  1  0.15438336  0.54449916  0.22236261  1
  H  H6  1  0.34561664  0.54449916  0.72236261  1
  H  H7  1  0.84561664  0.45550084  0.77763739  1
  H  H8  1  0.60419252  0.29455765  0.23340182  1
  H  H9  1  0.10419252  0.70544235  0.26659818  1
  H  H10  1  0.39580748  0.70544235  0.76659818  1
  H  H11  1  0.89580748  0.29455765  0.73340182  1
  H  H12  1  0.37049191  0.23477766  0.95659259  1
  H  H13  1  0.87049191  0.76522234  0.54340741  1
  H  H14  1  0.62950809  0.76522234  0.04340741  1
  H  H15  1  0.12950809  0.23477766  0.45659259  1
  H  H16  1  0.58108694  0.19828103  0.98410542  1
  H  H17  1  0.08108694  0.80171897  0.51589458  1
  H  H18  1  0.41891306  0.80171897  0.01589458  1
  H  H19  1  0.91891306  0.19828103  0.48410542  1
  H  H20  1  0.96541920  0.33119116  0.12617314  1
  H  H21  1  0.46541920  0.66880884  0.37382686  1
  H  H22  1  0.03458080  0.66880884  0.87382686  1
  H  H23  1  0.53458080  0.33119116  0.62617314  1
  H  H24  1  0.75243251  0.92673279  0.25445067  1
  H  H25  1  0.25243251  0.07326721  0.24554933  1
  H  H26  1  0.24756749  0.07326721  0.74554933  1
  H  H27  1  0.74756749  0.92673279  0.75445067  1
  C  C28  1  0.10240354  0.33330547  0.07896551  1
  C  C29  1  0.60240354  0.66669453  0.42103449  1
  C  C30  1  0.89759646  0.66669453  0.92103349  1
  C  C31  1  0.39759646  0.33330547  0.57896651  1
  C  C32  1  0.81051848  0.03249695  0.70728591  1
  C  C33  1  0.31051848  0.96750305  0.79271409  1
  C  C34  1  0.18948152  0.96750305  0.29271409  1
  C  C35  1  0.68948152  0.03249695  0.20728591  1
  O  O36  1  0.63861035  0.39825094  0.19819406  1
  O  O37  1  0.13861035  0.60174906  0.30180594  1
  O  O38  1  0.36138965  0.60174906  0.80180594  1
  O  O39  1  0.86138965  0.39825094  0.69819406  1
  O  O40  1  0.49597514  0.26477180  0.92648332  1
  O  O41  1  0.99597514  0.73522820  0.57351668  1
  O  O42  1  0.50402486  0.73522820  0.07351668  1
  O  O43  1  0.00402486  0.26477180  0.42648332  1
  O  O44  1  0.14820183  0.22481933  0.01391131  1
  O  O45  1  0.64820183  0.77518067  0.48608869  1
  O  O46  1  0.85179817  0.77518067  0.98608869  1
  O  O47  1  0.35179817  0.22481933  0.51391131  1
  O  O48  1  0.20468267  0.44381425  0.09352866  1
  O  O49  1  0.70468267  0.55618575  0.40647134  1
  O  O50  1  0.79531733  0.55618575  0.90647134  1
  O  O51  1  0.29531733  0.44381425  0.59352866  1
  O  O52  1  0.73296576  0.08212261  0.08436123  1
  O  O53  1  0.23296576  0.91787739  0.41563877  1
  O  O54  1  0.26703424  0.91787739  0.91563877  1
  O  O55  1  0.76703424  0.08212261  0.58436123  1
  O  O56  1  0.57890879  0.09864310  0.27879674  1
  O  O57  1  0.07890879  0.90135690  0.22120326  1
  O  O58  1  0.42109121  0.90135690  0.72120326  1
  O  O59  1  0.92109121  0.09864310  0.77879674  1
