# generated using pymatgen
data_Na10Nb4Ga4Si9(SO16)3
_symmetry_space_group_name_H-M   'P 1'
_cell_length_a   17.91031504
_cell_length_b   8.92703988
_cell_length_c   22.37842865
_cell_angle_alpha   89.99378250
_cell_angle_beta   90.66045259
_cell_angle_gamma   119.73460509
_symmetry_Int_Tables_number   1
_chemical_formula_structural   Na10Nb4Ga4Si9(SO16)3
_chemical_formula_sum   'Na30 Nb12 Ga12 Si27 S9 O144'
_cell_volume   3106.62073372
_cell_formula_units_Z   3
loop_
 _symmetry_equiv_pos_site_id
 _symmetry_equiv_pos_as_xyz
  1  'x, y, z'
loop_
 _atom_site_type_symbol
 _atom_site_label
 _atom_site_symmetry_multiplicity
 _atom_site_fract_x
 _atom_site_fract_y
 _atom_site_fract_z
 _atom_site_occupancy
  Na  Na0  1  0.18709608  0.36457988  0.24383334  1
  Na  Na1  1  0.68708282  0.36548753  0.24350867  1
  Na  Na2  1  0.18759474  0.00963267  0.74316602  1
  Na  Na3  1  0.68554413  0.00639208  0.74357260  1
  Na  Na4  1  0.65093954  0.33983211  0.58064987  1
  Na  Na5  1  0.02175088  0.70276206  0.57656756  1
  Na  Na6  1  0.51946935  0.69267737  0.58013611  1
  Na  Na7  1  0.32669453  0.96864918  0.58397075  1
  Na  Na8  1  0.15157892  0.96247662  0.08043529  1
  Na  Na9  1  0.65153161  0.96228737  0.08030865  1
  Na  Na10  1  0.32773559  0.68968668  0.08197251  1
  Na  Na11  1  0.82781858  0.69003832  0.08194100  1
  Na  Na12  1  0.02057701  0.34661980  0.08020352  1
  Na  Na13  1  0.52049616  0.34672176  0.08013595  1
  Na  Na14  1  0.48678737  0.67239108  0.91418999  1
  Na  Na15  1  0.98680474  0.67253357  0.91484129  1
  Na  Na16  1  0.35249291  0.66798489  0.41058175  1
  Na  Na17  1  0.85300710  0.67483998  0.41020324  1
  Na  Na18  1  0.01167410  0.02095674  0.49305601  1
  Na  Na19  1  0.50998487  0.01147714  0.49192008  1
  Na  Na20  1  0.00594811  0.01820606  0.99130336  1
  Na  Na21  1  0.50607391  0.01832978  0.99124775  1
  Na  Na22  1  0.33971683  0.33208603  0.82656815  1
  Na  Na23  1  0.83942219  0.33057878  0.82807247  1
  Na  Na24  1  0.34318643  0.33609274  0.32789145  1
  Na  Na25  1  0.84432505  0.33451426  0.32571005  1
  Na  Na26  1  0.16761231  0.67362693  0.16252652  1
  Na  Na27  1  0.66769871  0.67347260  0.16227801  1
  Na  Na28  1  0.17245222  0.65727124  0.66241851  1
  Na  Na29  1  0.67317544  0.67248447  0.66004582  1
  Nb  Nb30  1  0.99509801  0.98706872  0.64605515  1
  Nb  Nb31  1  0.49356692  0.98467794  0.64361794  1
  Nb  Nb32  1  0.99540818  0.00086615  0.14551670  1
  Nb  Nb33  1  0.49517187  0.00095203  0.14543167  1
  Nb  Nb34  1  0.33327728  0.32246142  0.97853643  1
  Nb  Nb35  1  0.83322227  0.32248219  0.97868553  1
  Nb  Nb36  1  0.33275947  0.33716255  0.47986429  1
  Nb  Nb37  1  0.82932312  0.33992765  0.47670103  1
  Nb  Nb38  1  0.16059742  0.64713258  0.31171733  1
  Nb  Nb39  1  0.66076005  0.65047495  0.31155427  1
  Nb  Nb40  1  0.16289380  0.67558519  0.81160793  1
  Nb  Nb41  1  0.66239148  0.67581684  0.81144186  1
  Ga  Ga42  1  0.00157050  0.00109851  0.35295140  1
  Ga  Ga43  1  0.50100453  0.99895420  0.35243570  1
  Ga  Ga44  1  0.99983594  0.00744150  0.85215348  1
  Ga  Ga45  1  0.49979907  0.00675686  0.85219867  1
  Ga  Ga46  1  0.34242486  0.33804507  0.68356950  1
  Ga  Ga47  1  0.83555350  0.33331328  0.68623921  1
  Ga  Ga48  1  0.34324989  0.34916047  0.18382204  1
  Ga  Ga49  1  0.84328106  0.34930869  0.18353712  1
  Ga  Ga50  1  0.15871006  0.66134070  0.01979988  1
  Ga  Ga51  1  0.65869769  0.66129138  0.01972818  1
  Ga  Ga52  1  0.16515128  0.66276676  0.51717722  1
  Ga  Ga53  1  0.66062996  0.66007571  0.52200992  1
  Si  Si54  1  0.35608128  0.70690996  0.25384401  1
  Si  Si55  1  0.85650362  0.70760382  0.25417054  1
  Si  Si56  1  0.99057196  0.27816005  0.25246450  1
  Si  Si57  1  0.49061505  0.27823372  0.25277858  1
  Si  Si58  1  0.99082560  0.70049486  0.75323939  1
  Si  Si59  1  0.49008284  0.70144299  0.75342195  1
  Si  Si60  1  0.35722895  0.00666539  0.75273611  1
  Si  Si61  1  0.85709014  0.00694352  0.75290588  1
  Si  Si62  1  0.47967687  0.33655709  0.58420959  1
  Si  Si63  1  0.18899506  0.04540923  0.58550643  1
  Si  Si64  1  0.69309915  0.04172428  0.58654935  1
  Si  Si65  1  0.32286173  0.60761116  0.58565286  1
  Si  Si66  1  0.82901152  0.61872247  0.58530533  1
  Si  Si67  1  0.47929490  0.62211297  0.08286875  1
  Si  Si68  1  0.97936840  0.62227649  0.08284385  1
  Si  Si69  1  0.32797280  0.04145696  0.08623325  1
  Si  Si70  1  0.82804985  0.04129732  0.08627899  1
  Si  Si71  1  0.19141544  0.33727611  0.08568961  1
  Si  Si72  1  0.69139363  0.33731496  0.08575504  1
  Si  Si73  1  0.02350516  0.36860039  0.91818914  1
  Si  Si74  1  0.52362871  0.36843549  0.91817203  1
  Si  Si75  1  0.16329246  0.95987346  0.91854923  1
  Si  Si76  1  0.66338400  0.95996283  0.91867722  1
  Si  Si77  1  0.16008683  0.36487313  0.41922487  1
  Si  Si78  1  0.65753889  0.36686500  0.41882487  1
  Si  Si79  1  0.02415218  0.67470146  0.41982062  1
  Si  Si80  1  0.52300622  0.67431601  0.41932992  1
  S  S81  1  0.14510765  0.99824441  0.25118352  1
  S  S82  1  0.64511123  -0.00135596  0.25112462  1
  S  S83  1  0.14422003  0.28946585  0.75106882  1
  S  S84  1  0.64518700  0.29109962  0.75092486  1
  S  S85  1  0.97804711  0.33243859  0.58392355  1
  S  S86  1  0.31061544  0.66752860  0.91810402  1
  S  S87  1  0.81063024  0.66753934  0.91802657  1
  S  S88  1  0.31110140  0.95737974  0.41688736  1
  S  S89  1  0.81008403  0.95464321  0.41811513  1
  O  O90  1  0.10355269  0.02327100  0.30325286  1
  O  O91  1  0.60383933  0.02337999  0.30324303  1
  O  O92  1  0.41285844  0.79715157  0.31270741  1
  O  O93  1  0.91328251  0.79770445  0.31319712  1
  O  O94  1  0.48910602  0.16738117  0.30880047  1
  O  O95  1  0.98846629  0.16702612  0.30856445  1
  O  O96  1  0.10504460  0.18157960  0.80408755  1
  O  O97  1  0.60535447  0.18195734  0.80297333  1
  O  O98  1  0.48891483  0.80218772  0.81266456  1
  O  O99  1  0.98633322  0.79777639  0.81221289  1
  O  O100  1  0.41780998  0.03210865  0.80874828  1
  O  O101  1  0.91741281  0.03319689  0.80930636  1
  O  O102  1  0.40266891  0.97743445  0.69104644  1
  O  O103  1  0.90554263  0.97990782  0.69280108  1
  O  O104  1  0.08985062  0.20938160  0.69627695  1
  O  O105  1  0.59334508  0.21477102  0.69478661  1
  O  O106  1  0.01517976  0.83216703  0.69354058  1
  O  O107  1  0.51567742  0.83245284  0.69374614  1
  O  O108  1  0.40424737  0.83020921  0.19338986  1
  O  O109  1  0.90441253  0.83024338  0.19359918  1
  O  O110  1  0.01611817  0.20172276  0.19167666  1
  O  O111  1  0.51632845  0.20182965  0.19194808  1
  O  O112  1  0.09266932  0.97159230  0.19481942  1
  O  O113  1  0.59283657  0.97161396  0.19482200  1
  O  O114  1  0.43879182  0.37650768  0.64080991  1
  O  O115  1  0.93926166  0.36106576  0.63744892  1
  O  O116  1  0.24872347  0.12543402  0.64466126  1
  O  O117  1  0.74672041  0.13212053  0.64685410  1
  O  O118  1  0.31304382  0.49474383  0.64273194  1
  O  O119  1  0.81682207  0.49376969  0.64011780  1
  O  O120  1  0.43829585  0.49830742  0.13901068  1
  O  O121  1  0.93834380  0.49853112  0.13897086  1
  O  O122  1  0.30896750  0.12989128  0.14139907  1
  O  O123  1  0.80893838  0.12989642  0.14136440  1
  O  O124  1  0.24879570  0.37049310  0.14573018  1
  O  O125  1  0.74882266  0.37059126  0.14582950  1
  O  O126  1  0.23772232  0.29891877  0.02800933  1
  O  O127  1  0.73773040  0.29894735  0.02809782  1
  O  O128  1  0.41724021  0.54338369  0.02239448  1
  O  O129  1  0.91734045  0.54336072  0.02236325  1
  O  O130  1  0.35316504  0.17012422  0.02642134  1
  O  O131  1  0.85317321  0.17012157  0.02646581  1
  O  O132  1  0.23691715  0.16800911  0.52645393  1
  O  O133  1  0.74142427  0.17472253  0.52873341  1
  O  O134  1  0.34890770  0.53577767  0.52471417  1
  O  O135  1  0.85218230  0.53759353  0.52433073  1
  O  O136  1  0.41477447  0.29388322  0.52535318  1
  O  O137  1  0.92511700  0.30563013  0.52936195  1
  O  O138  1  0.27168157  0.68688942  0.97326891  1
  O  O139  1  0.77191840  0.68687907  0.97322055  1
  O  O140  1  0.07711661  0.45644400  0.97937184  1
  O  O141  1  0.57716691  0.45608447  0.97943031  1
  O  O142  1  0.14978851  0.84057229  0.97655291  1
  O  O143  1  0.65016914  0.84077734  0.97668572  1
  O  O144  1  0.27330800  0.85766219  0.47242242  1
  O  O145  1  0.77022555  0.84784539  0.47082079  1
  O  O146  1  0.15344224  0.47062001  0.47494423  1
  O  O147  1  0.65456976  0.46474222  0.47784878  1
  O  O148  1  0.07860477  0.69750604  0.48054960  1
  O  O149  1  0.57930402  0.70029232  0.47903592  1
  O  O150  1  0.07437363  0.64842771  0.36163894  1
  O  O151  1  0.57442561  0.64935262  0.36090358  1
  O  O152  1  0.25685410  0.86907564  0.36358729  1
  O  O153  1  0.75776255  0.87774619  0.36276991  1
  O  O154  1  0.18127879  0.49386344  0.35816831  1
  O  O155  1  0.68253441  0.49726747  0.35911440  1
  O  O156  1  0.07383429  0.50372308  0.86137173  1
  O  O157  1  0.57412432  0.50388873  0.86146724  1
  O  O158  1  0.17994696  0.86752906  0.85826672  1
  O  O159  1  0.68019034  0.86827464  0.85831493  1
  O  O160  1  0.25721776  0.64653109  0.86432243  1
  O  O161  1  0.75752595  0.64673673  0.86423869  1
  O  O162  1  0.00351898  0.83152689  0.41218712  1
  O  O163  1  0.50415619  0.83394898  0.41124549  1
  O  O164  1  0.39682137  0.97293014  0.41288603  1
  O  O165  1  0.89660393  0.97309928  0.41321436  1
  O  O166  1  0.07809548  0.17673918  0.40968317  1
  O  O167  1  0.57832030  0.17665770  0.40944793  1
  O  O168  1  0.01003460  0.17819465  0.91036651  1
  O  O169  1  0.51012983  0.17817338  0.91012640  1
  O  O170  1  0.07582476  0.96891461  0.90946538  1
  O  O171  1  0.57612762  0.96977349  0.91019561  1
  O  O172  1  0.39835862  0.81694102  0.91423814  1
  O  O173  1  0.89865942  0.81724969  0.91419277  1
  O  O174  1  0.48845179  0.16017735  0.58920184  1
  O  O175  1  0.98819130  0.17710881  0.58902718  1
  O  O176  1  0.09182066  0.02652308  0.59058575  1
  O  O177  1  0.59639838  0.03133181  0.59030680  1
  O  O178  1  0.41578374  0.80354070  0.58981644  1
  O  O179  1  0.92006954  0.80918480  0.58966691  1
  O  O180  1  0.48876775  0.81618056  0.09008607  1
  O  O181  1  0.98866644  0.81611170  0.08996655  1
  O  O182  1  0.41818675  0.02873008  0.09004707  1
  O  O183  1  0.91818548  0.02849585  0.09010500  1
  O  O184  1  0.09510063  0.15999408  0.09048073  1
  O  O185  1  0.59514525  0.16005613  0.09056008  1
  O  O186  1  0.33558233  0.16201393  0.74530498  1
  O  O187  1  0.83693938  0.16453688  0.74470639  1
  O  O188  1  0.22947706  0.30545644  0.74532324  1
  O  O189  1  0.73132655  0.30788814  0.74622530  1
  O  O190  1  0.40853450  0.51305330  0.74588702  1
  O  O191  1  0.91087305  0.51094713  0.74248394  1
  O  O192  1  0.33667706  0.50988429  0.24597130  1
  O  O193  1  0.83680015  0.51018314  0.24633782  1
  O  O194  1  0.40878005  0.30332958  0.24461798  1
  O  O195  1  0.90879202  0.30337105  0.24418491  1
  O  O196  1  0.23009111  0.15382235  0.24613892  1
  O  O197  1  0.73031005  0.15410286  0.24620653  1
  O  O198  1  0.31905564  0.50767140  0.91956563  1
  O  O199  1  0.81933912  0.50784231  0.91953006  1
  O  O200  1  0.42990502  0.37026563  0.92140936  1
  O  O201  1  0.92979870  0.37046281  0.92123247  1
  O  O202  1  0.25140140  0.15068111  0.92118762  1
  O  O203  1  0.75157289  0.15112069  0.92115768  1
  O  O204  1  0.31825393  0.13036452  0.41893371  1
  O  O205  1  0.82009779  0.13135835  0.42323392  1
  O  O206  1  0.25198168  0.35960552  0.42177963  1
  O  O207  1  0.75127157  0.35998265  0.42209469  1
  O  O208  1  0.42628820  0.49532742  0.42183972  1
  O  O209  1  0.92735140  0.49241579  0.42365829  1
  O  O210  1  0.17893136  0.50463491  0.07696618  1
  O  O211  1  0.67900361  0.50472021  0.07704200  1
  O  O212  1  0.07622860  0.65113963  0.07874366  1
  O  O213  1  0.57619483  0.65105008  0.07874632  1
  O  O214  1  0.24975962  0.84727291  0.07508313  1
  O  O215  1  0.74978373  0.84721162  0.07515259  1
  O  O216  1  0.17456894  0.84902324  0.57740607  1
  O  O217  1  0.67536147  0.84780381  0.57834586  1
  O  O218  1  0.24831420  0.65846732  0.57551205  1
  O  O219  1  0.74661153  0.64115071  0.57576483  1
  O  O220  1  0.06430428  0.48850047  0.57952312  1
  O  O221  1  0.57550359  0.50017969  0.57870338  1
  O  O222  1  0.15394144  0.84151940  0.25546591  1
  O  O223  1  0.65418090  0.84180140  0.25527070  1
  O  O224  1  0.25901743  0.69449496  0.25700613  1
  O  O225  1  0.75937760  0.69494170  0.25733708  1
  O  O226  1  0.08308101  0.47375373  0.25610579  1
  O  O227  1  0.58361087  0.47392477  0.25668104  1
  O  O228  1  0.15247889  0.46371206  0.75615243  1
  O  O229  1  0.65445220  0.46602938  0.75646159  1
  O  O230  1  0.08410653  0.69341850  0.75554852  1
  O  O231  1  0.58372025  0.69277531  0.75635398  1
  O  O232  1  0.25988163  0.82435349  0.75720044  1
  O  O233  1  0.75998836  0.82646910  0.75695024  1
