# generated using pymatgen
data_TlPb2Cl5
_symmetry_space_group_name_H-M   'P 1'
_cell_length_a   7.96389345
_cell_length_b   8.96041902
_cell_length_c   12.58655833
_cell_angle_alpha   89.87026661
_cell_angle_beta   90.00000000
_cell_angle_gamma   90.00000000
_symmetry_Int_Tables_number   1
_chemical_formula_structural   TlPb2Cl5
_chemical_formula_sum   'Tl4 Pb8 Cl20'
_cell_volume   898.17226339
_cell_formula_units_Z   4
loop_
 _symmetry_equiv_pos_site_id
 _symmetry_equiv_pos_as_xyz
  1  'x, y, z'
loop_
 _atom_site_type_symbol
 _atom_site_label
 _atom_site_symmetry_multiplicity
 _atom_site_fract_x
 _atom_site_fract_y
 _atom_site_fract_z
 _atom_site_occupancy
  Tl  Tl0  1  0.95292345  0.51208995  0.83194572  1
  Tl  Tl1  1  0.45292345  0.48791005  0.66805428  1
  Tl  Tl2  1  0.04707655  0.48791005  0.16805428  1
  Tl  Tl3  1  0.54707655  0.51208995  0.33194572  1
  Pb  Pb4  1  0.50777596  0.00741987  0.32433020  1
  Pb  Pb5  1  0.00777596  0.99258013  0.17566980  1
  Pb  Pb6  1  0.49222404  0.99258013  0.67566980  1
  Pb  Pb7  1  0.99222404  0.00741987  0.82433020  1
  Pb  Pb8  1  0.56593183  0.25301069  0.00572674  1
  Pb  Pb9  1  0.06593183  0.74698931  0.49427326  1
  Pb  Pb10  1  0.43406817  0.74698931  0.99427326  1
  Pb  Pb11  1  0.93406817  0.25301069  0.50572674  1
  Cl  Cl12  1  0.84460936  0.77605067  0.31300884  1
  Cl  Cl13  1  0.34460936  0.22394933  0.18699116  1
  Cl  Cl14  1  0.15539064  0.22394933  0.68699116  1
  Cl  Cl15  1  0.65539064  0.77605067  0.81300884  1
  Cl  Cl16  1  0.81280790  0.22979692  0.27899978  1
  Cl  Cl17  1  0.31280790  0.77020308  0.22100022  1
  Cl  Cl18  1  0.18719210  0.77020308  0.72100022  1
  Cl  Cl19  1  0.68719210  0.22979692  0.77899978  1
  Cl  Cl20  1  0.67469725  0.54021238  0.08349797  1
  Cl  Cl21  1  0.17469725  0.45978762  0.41650203  1
  Cl  Cl22  1  0.32530275  0.45978762  0.91650203  1
  Cl  Cl23  1  0.82530275  0.54021238  0.58349797  1
  Cl  Cl24  1  0.83546547  0.95806199  0.59868432  1
  Cl  Cl25  1  0.33546547  0.04193801  0.90131568  1
  Cl  Cl26  1  0.16453453  0.04193801  0.40131568  1
  Cl  Cl27  1  0.66453453  0.95806199  0.09868432  1
  Cl  Cl28  1  0.95800723  0.21840226  0.00174235  1
  Cl  Cl29  1  0.45800723  0.78159774  0.49825765  1
  Cl  Cl30  1  0.04199277  0.78159774  0.99825765  1
  Cl  Cl31  1  0.54199277  0.21840226  0.50174235  1
