# generated using pymatgen
data_Na2YNbSi2SO12
_symmetry_space_group_name_H-M   'P 1'
_cell_length_a   9.19445417
_cell_length_b   9.19445384
_cell_length_c   22.93738133
_cell_angle_alpha   91.02412886
_cell_angle_beta   88.97587116
_cell_angle_gamma   119.17825585
_symmetry_Int_Tables_number   1
_chemical_formula_structural   Na2YNbSi2SO12
_chemical_formula_sum   'Na12 Y6 Nb6 Si12 S6 O72'
_cell_volume   1692.66098856
_cell_formula_units_Z   6
loop_
 _symmetry_equiv_pos_site_id
 _symmetry_equiv_pos_as_xyz
  1  'x, y, z'
loop_
 _atom_site_type_symbol
 _atom_site_label
 _atom_site_symmetry_multiplicity
 _atom_site_fract_x
 _atom_site_fract_y
 _atom_site_fract_z
 _atom_site_occupancy
  Na  Na0  1  0.97689150  0.62478492  0.24899262  1
  Na  Na1  1  0.37521508  0.02310850  0.74899262  1
  Na  Na2  1  0.64355850  0.95811792  0.58232562  1
  Na  Na3  1  0.04188208  0.35644150  0.08232562  1
  Na  Na4  1  0.31022450  0.29145192  0.91565962  1
  Na  Na5  1  0.70854808  0.68977550  0.41565962  1
  Na  Na6  1  0.01289126  0.98004886  0.49656861  1
  Na  Na7  1  0.01995114  0.98710874  0.99656861  1
  Na  Na8  1  0.67955826  0.31338186  0.82990161  1
  Na  Na9  1  0.68661814  0.32044174  0.32990161  1
  Na  Na10  1  0.34622426  0.64671586  0.16323561  1
  Na  Na11  1  0.35328414  0.65377574  0.66323561  1
  Y  Y12  1  0.99605576  0.00720371  0.35321668  1
  Y  Y13  1  0.99279629  0.00394424  0.85321668  1
  Y  Y14  1  0.66272276  0.34053671  0.68654968  1
  Y  Y15  1  0.65946329  0.33727724  0.18654968  1
  Y  Y16  1  0.32938876  0.67387071  0.01988368  1
  Y  Y17  1  0.32612929  0.67061124  0.51988368  1
  Nb  Nb18  1  0.99858237  0.00512399  0.64649284  1
  Nb  Nb19  1  0.99487601  0.00141763  0.14649284  1
  Nb  Nb20  1  0.66524937  0.33845699  0.97982584  1
  Nb  Nb21  1  0.66154301  0.33475063  0.47982584  1
  Nb  Nb22  1  0.33191537  0.67179099  0.31315984  1
  Nb  Nb23  1  0.32820901  0.66808463  0.81315984  1
  Si  Si24  1  0.70140572  0.71465984  0.25310212  1
  Si  Si25  1  0.01103052  0.30539831  0.25027081  1
  Si  Si26  1  0.28534016  0.29859428  0.75310212  1
  Si  Si27  1  0.69460169  0.98896948  0.75027081  1
  Si  Si28  1  0.36807272  0.04799284  0.58643512  1
  Si  Si29  1  0.67769752  0.63873131  0.58360381  1
  Si  Si30  1  0.95200716  0.63192728  0.08643512  1
  Si  Si31  1  0.36126869  0.32230248  0.08360381  1
  Si  Si32  1  0.03473872  0.38132684  0.91976912  1
  Si  Si33  1  0.34436352  0.97206531  0.91693781  1
  Si  Si34  1  0.61867316  0.96526128  0.41976912  1
  Si  Si35  1  0.02793469  0.65563648  0.41693781  1
  S  S36  1  0.28597865  0.98564098  0.24833596  1
  S  S37  1  0.01435902  0.71402135  0.74833596  1
  S  S38  1  0.95264565  0.31897398  0.58166896  1
  S  S39  1  0.68102602  0.04735435  0.08166896  1
  S  S40  1  0.61931165  0.65230798  0.91500296  1
  S  S41  1  0.34769202  0.38068835  0.41500296  1
  O  O42  1  0.21567913  0.00948862  0.30277500  1
  O  O43  1  0.81198478  0.78788984  0.31041323  1
  O  O44  1  0.00337556  0.20207345  0.30567169  1
  O  O45  1  0.21211016  0.18801522  0.81041323  1
  O  O46  1  0.99051138  0.78432087  0.80277500  1
  O  O47  1  0.79792655  0.99662444  0.80567169  1
  O  O48  1  0.79942215  0.97500617  0.68987318  1
  O  O49  1  0.15657039  0.18431327  0.69703221  1
  O  O50  1  0.03030579  0.82181166  0.69745803  1
  O  O51  1  0.81568673  0.84342961  0.19703221  1
  O  O52  1  0.02499383  0.20057785  0.18987318  1
  O  O53  1  0.17818834  0.96969421  0.19745803  1
  O  O54  1  0.88234613  0.34282162  0.63610800  1
  O  O55  1  0.47865178  0.12122284  0.64374623  1
  O  O56  1  0.67004256  0.53540645  0.63900469  1
  O  O57  1  0.87877716  0.52134822  0.14374623  1
  O  O58  1  0.65717838  0.11765387  0.13610800  1
  O  O59  1  0.46459355  0.32995744  0.13900469  1
  O  O60  1  0.46608915  0.30833917  0.02320618  1
  O  O61  1  0.82323739  0.51764627  0.03036521  1
  O  O62  1  0.69697279  0.15514466  0.03079103  1
  O  O63  1  0.48235373  0.17676261  0.53036521  1
  O  O64  1  0.69166083  0.53391085  0.52320618  1
  O  O65  1  0.84485534  0.30302721  0.53079103  1
  O  O66  1  0.54901213  0.67615562  0.96944200  1
  O  O67  1  0.14531778  0.45455684  0.97708023  1
  O  O68  1  0.33670856  0.86874045  0.97233869  1
  O  O69  1  0.54544316  0.85468222  0.47708023  1
  O  O70  1  0.32384438  0.45098787  0.46944200  1
  O  O71  1  0.13125955  0.66329144  0.47233869  1
  O  O72  1  0.13275515  0.64167317  0.35654018  1
  O  O73  1  0.48990339  0.85098027  0.36369921  1
  O  O74  1  0.36363879  0.48847866  0.36412503  1
  O  O75  1  0.14901973  0.51009661  0.86369921  1
  O  O76  1  0.35832683  0.86724485  0.85654018  1
  O  O77  1  0.51152134  0.63636121  0.86412503  1
  O  O78  1  0.99537834  0.81273567  0.41413968  1
  O  O79  1  0.80491052  0.99258407  0.41237426  1
  O  O80  1  0.21684946  0.20842355  0.40846728  1
  O  O81  1  0.00741593  0.19508948  0.91237426  1
  O  O82  1  0.18726433  0.00462166  0.91413968  1
  O  O83  1  0.79157645  0.78315054  0.90846728  1
  O  O84  1  0.94913723  0.15162480  0.58341894  1
  O  O85  1  0.18427963  0.04213626  0.59188756  1
  O  O86  1  0.85242707  0.82690785  0.58950932  1
  O  O87  1  0.95786374  0.81572037  0.09188756  1
  O  O88  1  0.84837520  0.05086277  0.08341894  1
  O  O89  1  0.17309215  0.14757293  0.08950932  1
  O  O90  1  0.66204534  0.14606867  0.74747268  1
  O  O91  1  0.47157752  0.32591707  0.74570726  1
  O  O92  1  0.88351646  0.54175655  0.74180028  1
  O  O93  1  0.67408293  0.52842248  0.24570726  1
  O  O94  1  0.85393133  0.33795466  0.24747268  1
  O  O95  1  0.45824345  0.11648354  0.24180028  1
  O  O96  1  0.61580423  0.48495780  0.91675194  1
  O  O97  1  0.85094663  0.37546926  0.92522056  1
  O  O98  1  0.51909407  0.16024085  0.92284232  1
  O  O99  1  0.62453074  0.14905337  0.42522056  1
  O  O100  1  0.51504220  0.38419577  0.41675194  1
  O  O101  1  0.83975915  0.48090593  0.42284232  1
  O  O102  1  0.32871134  0.47940267  0.08080668  1
  O  O103  1  0.13824352  0.65925107  0.07904126  1
  O  O104  1  0.55018246  0.87509055  0.07513428  1
  O  O105  1  0.34074893  0.86175648  0.57904126  1
  O  O106  1  0.52059733  0.67128866  0.58080668  1
  O  O107  1  0.12490945  0.44981754  0.57513428  1
  O  O108  1  0.28247023  0.81829180  0.25008594  1
  O  O109  1  0.51761263  0.70880326  0.25855456  1
  O  O110  1  0.18576007  0.49357485  0.25617632  1
  O  O111  1  0.29119674  0.48238737  0.75855456  1
  O  O112  1  0.18170820  0.71752977  0.75008594  1
  O  O113  1  0.50642515  0.81423993  0.75617632  1
