# generated using pymatgen
data_MgCr4O12
_symmetry_space_group_name_H-M   'P 1'
_cell_length_a   8.02849824
_cell_length_b   8.04589549
_cell_length_c   5.54519460
_cell_angle_alpha   70.76155026
_cell_angle_beta   109.21310625
_cell_angle_gamma   93.45333098
_symmetry_Int_Tables_number   1
_chemical_formula_structural   MgCr4O12
_chemical_formula_sum   'Mg1 Cr4 O12'
_cell_volume   318.89226990
_cell_formula_units_Z   1
loop_
 _symmetry_equiv_pos_site_id
 _symmetry_equiv_pos_as_xyz
  1  'x, y, z'
loop_
 _atom_site_type_symbol
 _atom_site_label
 _atom_site_symmetry_multiplicity
 _atom_site_fract_x
 _atom_site_fract_y
 _atom_site_fract_z
 _atom_site_occupancy
  Mg  Mg0  1  0.80069800  0.80222500  0.74778300  1
  Cr  Cr1  1  0.19036500  0.60918500  0.80176600  1
  Cr  Cr2  1  0.38544500  0.77149000  0.30439000  1
  Cr  Cr3  1  0.61006700  0.18892600  0.70066400  1
  Cr  Cr4  1  0.76886400  0.38655500  0.19526300  1
  O  O5  1  0.01968500  0.75411000  0.69050100  1
  O  O6  1  0.15213600  0.40534600  0.89971100  1
  O  O7  1  0.26555400  0.94932800  0.15145900  1
  O  O8  1  0.31987400  0.64646400  0.56936500  1
  O  O9  1  0.40652000  0.14864500  0.60025500  1
  O  O10  1  0.36302000  0.65674300  0.08285000  1
  O  O11  1  0.64405800  0.31493500  0.93679900  1
  O  O12  1  0.59627700  0.81575800  0.42007900  1
  O  O13  1  0.65720900  0.36379300  0.42150100  1
  O  O14  1  0.75725100  0.02049400  0.80988400  1
  O  O15  1  0.80724900  0.59788200  0.07151200  1
  O  O16  1  0.95017300  0.27182500  0.34621700  1
