# generated using pymatgen
data_Na6Ta3Al5Si6(SO8)6
_symmetry_space_group_name_H-M   'P 1'
_cell_length_a   17.31579357
_cell_length_b   8.63613722
_cell_length_c   22.19457158
_cell_angle_alpha   89.78977472
_cell_angle_beta   90.19407771
_cell_angle_gamma   119.66727952
_symmetry_Int_Tables_number   1
_chemical_formula_structural   Na6Ta3Al5Si6(SO8)6
_chemical_formula_sum   'Na18 Ta9 Al15 Si18 S18 O144'
_cell_volume   2883.91211243
_cell_formula_units_Z   3
loop_
 _symmetry_equiv_pos_site_id
 _symmetry_equiv_pos_as_xyz
  1  'x, y, z'
loop_
 _atom_site_type_symbol
 _atom_site_label
 _atom_site_symmetry_multiplicity
 _atom_site_fract_x
 _atom_site_fract_y
 _atom_site_fract_z
 _atom_site_occupancy
  Na  Na0  1  0.48123259  0.67512583  0.91271177  1
  Na  Na1  1  0.16718137  0.31403656  0.91325202  1
  Na  Na2  1  0.48537783  0.30087564  0.41622777  1
  Na  Na3  1  0.97940015  0.29521525  0.41168675  1
  Na  Na4  1  0.16583639  0.02529972  0.41391263  1
  Na  Na5  1  0.66742765  0.03025951  0.41864455  1
  Na  Na6  1  0.98895661  0.97854634  0.49401373  1
  Na  Na7  1  0.49576931  0.98968711  0.49528777  1
  Na  Na8  1  0.99559551  0.99439166  0.99641114  1
  Na  Na9  1  0.50151043  0.00272242  0.99148488  1
  Na  Na10  1  0.33361017  0.32952720  0.82544173  1
  Na  Na11  1  0.83220022  0.33428959  0.82948729  1
  Na  Na12  1  0.33620974  0.33464576  0.33093197  1
  Na  Na13  1  0.83664417  0.33903814  0.33350472  1
  Na  Na14  1  0.15761370  0.66043941  0.16277921  1
  Na  Na15  1  0.66603367  0.65566080  0.16416290  1
  Na  Na16  1  0.16882600  0.67022511  0.66846627  1
  Na  Na17  1  0.66245346  0.65846015  0.66261580  1
  Ta  Ta18  1  0.00443080  0.99917558  0.64593959  1
  Ta  Ta19  1  0.50035685  0.00435896  0.64935933  1
  Ta  Ta20  1  0.00519405  0.00050172  0.14598175  1
  Ta  Ta21  1  0.50456905  0.01604714  0.14367643  1
  Ta  Ta22  1  0.83332015  0.33755860  0.97775685  1
  Ta  Ta23  1  0.15952404  0.67199210  0.31090302  1
  Ta  Ta24  1  0.66292694  0.65819365  0.31755050  1
  Ta  Ta25  1  0.16675982  0.65398477  0.80865244  1
  Ta  Ta26  1  0.66333875  0.66934875  0.80902835  1
  Al  Al27  1  0.99521789  0.99358041  0.35172418  1
  Al  Al28  1  0.49607419  0.00900976  0.36030472  1
  Al  Al29  1  0.00549798  0.00639292  0.85022993  1
  Al  Al30  1  0.49890082  0.98904559  0.85139086  1
  Al  Al31  1  0.33521324  0.33393248  0.69530619  1
  Al  Al32  1  0.83126687  0.34813917  0.69015933  1
  Al  Al33  1  0.33347766  0.32379554  0.19184716  1
  Al  Al34  1  0.84420224  0.35378117  0.18264379  1
  Al  Al35  1  0.33182788  0.33554204  0.98014850  1
  Al  Al36  1  0.33883418  0.33814890  0.47833905  1
  Al  Al37  1  0.83383400  0.33427693  0.47380193  1
  Al  Al38  1  0.15826435  0.64777285  0.01365181  1
  Al  Al39  1  0.66707979  0.66489213  0.01894301  1
  Al  Al40  1  0.16964548  0.67954511  0.51472896  1
  Al  Al41  1  0.66621415  0.67041332  0.50852790  1
  Si  Si42  1  0.14779092  0.01776872  0.25407410  1
  Si  Si43  1  0.99157461  0.28191996  0.25193084  1
  Si  Si44  1  0.49832343  0.29198388  0.25360250  1
  Si  Si45  1  0.14729298  0.28201425  0.75162895  1
  Si  Si46  1  0.64645637  0.27820971  0.75421611  1
  Si  Si47  1  0.99424037  0.70418891  0.75556687  1
  Si  Si48  1  0.49404284  0.70871442  0.75131008  1
  Si  Si49  1  0.35952915  0.00883907  0.75462269  1
  Si  Si50  1  0.98586959  0.62307873  0.08281941  1
  Si  Si51  1  0.69636804  0.35303786  0.08535781  1
  Si  Si52  1  0.31290860  0.67533023  0.92309441  1
  Si  Si53  1  0.02067484  0.36574165  0.91613047  1
  Si  Si54  1  0.66412672  0.95330628  0.92065217  1
  Si  Si55  1  0.31168320  0.95460080  0.42109790  1
  Si  Si56  1  0.81559227  0.95392157  0.41954317  1
  Si  Si57  1  0.66836359  0.37547474  0.42189952  1
  Si  Si58  1  0.01854229  0.67145707  0.42162965  1
  Si  Si59  1  0.51654294  0.67012224  0.42003719  1
  S  S60  1  0.64669547  0.00652173  0.25052076  1
  S  S61  1  0.35813423  0.70949690  0.24985634  1
  S  S62  1  0.85600470  0.70885710  0.25034101  1
  S  S63  1  0.85820188  0.00723457  0.74950499  1
  S  S64  1  0.47728234  0.34049959  0.58256251  1
  S  S65  1  0.97680462  0.34007669  0.58250605  1
  S  S66  1  0.19382267  0.04656610  0.58202208  1
  S  S67  1  0.69401913  0.04781763  0.58292677  1
  S  S68  1  0.32909235  0.61179575  0.58139141  1
  S  S69  1  0.82912471  0.61359278  0.58207393  1
  S  S70  1  0.47448883  0.61101062  0.08384609  1
  S  S71  1  0.32998820  0.05018795  0.08257393  1
  S  S72  1  0.82932587  0.04054451  0.08436787  1
  S  S73  1  0.19578986  0.34038012  0.08398073  1
  S  S74  1  0.81207088  0.67556434  0.91733254  1
  S  S75  1  0.52174856  0.37430610  0.92055328  1
  S  S76  1  0.16801025  0.95615403  0.91969729  1
  S  S77  1  0.17004743  0.38393124  0.42040426  1
  O  O78  1  0.09871469  0.03215278  0.31291465  1
  O  O79  1  0.60357500  0.02546550  0.30426900  1
  O  O80  1  0.41290097  0.79033289  0.30348488  1
  O  O81  1  0.91013946  0.79059600  0.30426633  1
  O  O82  1  0.48587607  0.16699337  0.31046175  1
  O  O83  1  0.98317609  0.16699870  0.31153361  1
  O  O84  1  0.10242112  0.16915717  0.81136728  1
  O  O85  1  0.59794218  0.16098436  0.81153129  1
  O  O86  1  0.48285521  0.78808380  0.81302737  1
  O  O87  1  0.97814604  0.80507516  0.81067632  1
  O  O88  1  0.42113809  0.03709280  0.81134197  1
  O  O89  1  0.91084112  0.03226674  0.80420638  1
  O  O90  1  0.40067427  0.96478518  0.69175506  1
  O  O91  1  0.89679941  0.97061860  0.69447711  1
  O  O92  1  0.08051768  0.19268460  0.69165313  1
  O  O93  1  0.58363181  0.20459763  0.69136563  1
  O  O94  1  0.01008702  0.83106311  0.69296426  1
  O  O95  1  0.51926568  0.83656951  0.69065448  1
  O  O96  1  0.39828094  0.82183055  0.19456631  1
  O  O97  1  0.89740226  0.81937682  0.19486948  1
  O  O98  1  0.00943189  0.18974810  0.19151937  1
  O  O99  1  0.51300416  0.19328359  0.19299172  1
  O  O100  1  0.08380020  0.96753121  0.19309926  1
  O  O101  1  0.58706451  0.97202622  0.19517580  1
  O  O102  1  0.43235990  0.35727683  0.63584031  1
  O  O103  1  0.93447988  0.36027898  0.63671827  1
  O  O104  1  0.24500659  0.13203292  0.63585073  1
  O  O105  1  0.74799167  0.13622696  0.63688533  1
  O  O106  1  0.31945022  0.50804745  0.63609374  1
  O  O107  1  0.82094825  0.51073417  0.63733735  1
  O  O108  1  0.43070926  0.50258286  0.13721275  1
  O  O109  1  0.93918085  0.50588283  0.14154562  1
  O  O110  1  0.32193720  0.13779597  0.13711627  1
  O  O111  1  0.81632199  0.12214156  0.13823745  1
  O  O112  1  0.24933970  0.35684921  0.13737459  1
  O  O113  1  0.75254060  0.36400360  0.14429644  1
  O  O114  1  0.23295762  0.30468152  0.02857300  1
  O  O115  1  0.73341077  0.30337747  0.02501931  1
  O  O116  1  0.42147379  0.53274233  0.02787473  1
  O  O117  1  0.91911417  0.53078189  0.02471008  1
  O  O118  1  0.34785467  0.16467822  0.02821709  1
  O  O119  1  0.84725508  0.15223432  0.02930107  1
  O  O120  1  0.23049560  0.15372200  0.52665480  1
  O  O121  1  0.73412619  0.15601467  0.52775259  1
  O  O122  1  0.34198246  0.52615334  0.52714994  1
  O  O123  1  0.84669439  0.53520851  0.52872845  1
  O  O124  1  0.42294371  0.31108213  0.52685439  1
  O  O125  1  0.92314633  0.31131194  0.52730760  1
  O  O126  1  0.26162390  0.69751849  0.97999274  1
  O  O127  1  0.76912220  0.69433338  0.97157563  1
  O  O128  1  0.08431015  0.44935994  0.97424355  1
  O  O129  1  0.57826210  0.46203380  0.97341442  1
  O  O130  1  0.15333635  0.84530922  0.97330237  1
  O  O131  1  0.64930458  0.81855571  0.97621931  1
  O  O132  1  0.26726745  0.82972324  0.47858342  1
  O  O133  1  0.76832578  0.82855591  0.47689264  1
  O  O134  1  0.15235754  0.46670698  0.47311164  1
  O  O135  1  0.64196608  0.46277496  0.47644718  1
  O  O136  1  0.08683684  0.70726248  0.47675912  1
  O  O137  1  0.58439433  0.71454399  0.47604475  1
  O  O138  1  0.06315045  0.62525531  0.36082782  1
  O  O139  1  0.56187435  0.62018976  0.36083417  1
  O  O140  1  0.24651811  0.86348474  0.36107255  1
  O  O141  1  0.74885875  0.87028079  0.35901733  1
  O  O142  1  0.18583026  0.48984173  0.36450232  1
  O  O143  1  0.68659974  0.50064240  0.35993820  1
  O  O144  1  0.06537731  0.49767508  0.85816510  1
  O  O145  1  0.56044850  0.49072852  0.86497622  1
  O  O146  1  0.18510385  0.88540531  0.86435329  1
  O  O147  1  0.68128746  0.85622049  0.86118488  1
  O  O148  1  0.24667455  0.62389990  0.86298429  1
  O  O149  1  0.75716710  0.64255718  0.86236065  1
  O  O150  1  0.01550500  0.85161970  0.40837944  1
  O  O151  1  0.51390804  0.84752377  0.40318777  1
  O  O152  1  0.41001504  0.98563994  0.41159157  1
  O  O153  1  0.91454997  0.98488433  0.40895437  1
  O  O154  1  0.08983160  0.20557801  0.41490450  1
  O  O155  1  0.58200440  0.18287304  0.40889313  1
  O  O156  1  0.01044932  0.16840309  0.90643837  1
  O  O157  1  0.51321679  0.20055524  0.91327247  1
  O  O158  1  0.08843411  0.97950380  0.91369362  1
  O  O159  1  0.57732625  0.97231829  0.91183788  1
  O  O160  1  0.41062244  0.84329197  0.91312664  1
  O  O161  1  0.90040411  0.83195343  0.91147254  1
  O  O162  1  0.48599255  0.17404229  0.58543026  1
  O  O163  1  0.98459425  0.17165212  0.58768189  1
  O  O164  1  0.09978919  0.02668889  0.58632600  1
  O  O165  1  0.60255467  0.03070615  0.58663988  1
  O  O166  1  0.41078741  0.79487521  0.58451102  1
  O  O167  1  0.91079830  0.79945956  0.58820400  1
  O  O168  1  0.48245735  0.79281818  0.08969025  1
  O  O169  1  0.98882687  0.81985919  0.08744640  1
  O  O170  1  0.41282878  0.02925897  0.08850137  1
  O  O171  1  0.91040324  0.02052237  0.08903226  1
  O  O172  1  0.10383532  0.17606433  0.08825140  1
  O  O173  1  0.59440832  0.16530573  0.09083955  1
  O  O174  1  0.34705550  0.17523220  0.73900832  1
  O  O175  1  0.84672561  0.16044936  0.73956387  1
  O  O176  1  0.24196534  0.30600086  0.73805222  1
  O  O177  1  0.74171847  0.29835700  0.73970066  1
  O  O178  1  0.41370412  0.51583782  0.73874143  1
  O  O179  1  0.91251575  0.51057739  0.74004081  1
  O  O180  1  0.34843957  0.53242837  0.23997936  1
  O  O181  1  0.84521474  0.53036347  0.24408571  1
  O  O182  1  0.41427651  0.31719416  0.24035259  1
  O  O183  1  0.90527950  0.30528926  0.24158224  1
  O  O184  1  0.24262159  0.18732314  0.24079635  1
  O  O185  1  0.73315295  0.16363924  0.24174131  1
  O  O186  1  0.32237615  0.48965902  0.92975468  1
  O  O187  1  0.81965180  0.50994981  0.92095456  1
  O  O188  1  0.43262328  0.36341119  0.92730601  1
  O  O189  1  0.92373182  0.35117377  0.92326276  1
  O  O190  1  0.24777790  0.14073571  0.92824762  1
  O  O191  1  0.75419665  0.14654048  0.92392759  1
  O  O192  1  0.31713022  0.15033023  0.42835169  1
  O  O193  1  0.82329667  0.14919085  0.42744050  1
  O  O194  1  0.24806765  0.35872211  0.42833887  1
  O  O195  1  0.75337813  0.34962277  0.42758921  1
  O  O196  1  0.42199030  0.48911112  0.42670757  1
  O  O197  1  0.92555458  0.49024432  0.42786385  1
  O  O198  1  0.18505840  0.49737653  0.07932162  1
  O  O199  1  0.67797714  0.51734572  0.07311736  1
  O  O200  1  0.08467210  0.65230238  0.07205453  1
  O  O201  1  0.56442503  0.63472916  0.07838954  1
  O  O202  1  0.25341710  0.87397954  0.07726375  1
  O  O203  1  0.75091378  0.86244115  0.07629609  1
  O  O204  1  0.17991554  0.86312962  0.57774317  1
  O  O205  1  0.68267281  0.86611010  0.57905346  1
  O  O206  1  0.24810316  0.63107948  0.57556199  1
  O  O207  1  0.75006764  0.63461956  0.57800033  1
  O  O208  1  0.06847605  0.49419781  0.57660185  1
  O  O209  1  0.56668980  0.49830835  0.57794048  1
  O  O210  1  0.15692370  0.83469899  0.25496997  1
  O  O211  1  0.65380613  0.84079817  0.25235368  1
  O  O212  1  0.26818877  0.69120268  0.25552140  1
  O  O213  1  0.76798913  0.69983740  0.25362243  1
  O  O214  1  0.08673233  0.47535738  0.25690655  1
  O  O215  1  0.59023233  0.48737391  0.25367661  1
  O  O216  1  0.15178069  0.47590102  0.75198323  1
  O  O217  1  0.66013947  0.48250217  0.76052863  1
  O  O218  1  0.08755047  0.70310491  0.75786485  1
  O  O219  1  0.58646180  0.69098459  0.75519904  1
  O  O220  1  0.26104017  0.83046093  0.75871113  1
  O  O221  1  0.76900099  0.83994017  0.75470188  1
