# generated using pymatgen
data_Na2LaGe(PO4)3
_symmetry_space_group_name_H-M   'P 1'
_cell_length_a   9.30182085
_cell_length_b   9.30182052
_cell_length_c   22.68274127
_cell_angle_alpha   92.72867588
_cell_angle_beta   87.27132410
_cell_angle_gamma   121.86227238
_symmetry_Int_Tables_number   1
_chemical_formula_structural   Na2LaGe(PO4)3
_chemical_formula_sum   'Na12 La6 Ge6 P18 O72'
_cell_volume   1664.39873973
_cell_formula_units_Z   6
loop_
 _symmetry_equiv_pos_site_id
 _symmetry_equiv_pos_as_xyz
  1  'x, y, z'
loop_
 _atom_site_type_symbol
 _atom_site_label
 _atom_site_symmetry_multiplicity
 _atom_site_fract_x
 _atom_site_fract_y
 _atom_site_fract_z
 _atom_site_occupancy
  Na  Na0  1  0.35198876  0.33868834  0.25455858  1
  Na  Na1  1  0.66131166  0.64801124  0.75455858  1
  Na  Na2  1  0.01865576  0.67202134  0.58789158  1
  Na  Na3  1  0.32797866  0.98134424  0.08789158  1
  Na  Na4  1  0.68532176  0.00535534  0.92122558  1
  Na  Na5  1  0.99464466  0.31467824  0.42122558  1
  Na  Na6  1  0.00155679  0.99876735  0.50712600  1
  Na  Na7  1  0.00123265  0.99844321  0.00712600  1
  Na  Na8  1  0.66822379  0.33210035  0.84045900  1
  Na  Na9  1  0.66789965  0.33177621  0.34045900  1
  Na  Na10  1  0.33488979  0.66543435  0.17379300  1
  Na  Na11  1  0.33456565  0.66511021  0.67379300  1
  La  La12  1  0.99180349  0.97924694  0.35919253  1
  La  La13  1  0.02075306  0.00819651  0.85919253  1
  La  La14  1  0.65847049  0.31257994  0.69252553  1
  La  La15  1  0.68742006  0.34152951  0.19252553  1
  La  La16  1  0.32513649  0.64591394  0.02585953  1
  La  La17  1  0.35408606  0.67486351  0.52585953  1
  Ge  Ge18  1  0.00194623  0.02795581  0.64521663  1
  Ge  Ge19  1  0.97204419  0.99805377  0.14521663  1
  Ge  Ge20  1  0.66861323  0.36128881  0.97854963  1
  Ge  Ge21  1  0.63871119  0.33138677  0.47854963  1
  Ge  Ge22  1  0.33527923  0.69462281  0.31188363  1
  Ge  Ge23  1  0.30537719  0.66472077  0.81188363  1
  P  P24  1  0.28104145  0.96869753  0.24603286  1
  P  P25  1  0.68089633  0.72573674  0.24714596  1
  P  P26  1  0.03018636  0.30143948  0.25424758  1
  P  P27  1  0.27426326  0.31910367  0.74714596  1
  P  P28  1  0.03130247  0.71895855  0.74603286  1
  P  P29  1  0.69856052  0.96981364  0.75424758  1
  P  P30  1  0.94770845  0.30203053  0.57936586  1
  P  P31  1  0.34756333  0.05906974  0.58047896  1
  P  P32  1  0.69685336  0.63477248  0.58758058  1
  P  P33  1  0.94093026  0.65243667  0.08047896  1
  P  P34  1  0.69796947  0.05229155  0.07936586  1
  P  P35  1  0.36522752  0.30314664  0.08758058  1
  P  P36  1  0.61437445  0.63536453  0.91269986  1
  P  P37  1  0.01422933  0.39240374  0.91381296  1
  P  P38  1  0.36351936  0.96810648  0.92091458  1
  P  P39  1  0.60759626  0.98577067  0.41381296  1
  P  P40  1  0.36463547  0.38562555  0.41269986  1
  P  P41  1  0.03189352  0.63648064  0.42091458  1
  O  O42  1  0.19824004  0.00381383  0.29918550  1
  O  O43  1  0.78110066  0.79229215  0.30277451  1
  O  O44  1  0.02138555  0.21728845  0.31066655  1
  O  O45  1  0.20770785  0.21889934  0.80277451  1
  O  O46  1  0.99618617  0.80175996  0.79918550  1
  O  O47  1  0.78271155  0.97861445  0.81066655  1
  O  O48  1  0.80258745  0.95233356  0.69762010  1
  O  O49  1  0.16214327  0.21921911  0.69165880  1
  O  O50  1  0.05772408  0.81274288  0.68816712  1
  O  O51  1  0.78078089  0.83785673  0.19165880  1
  O  O52  1  0.04766644  0.19741255  0.19762010  1
  O  O53  1  0.18725712  0.94227592  0.18816712  1
  O  O54  1  0.86490704  0.33714683  0.63251850  1
  O  O55  1  0.44776766  0.12562515  0.63610751  1
  O  O56  1  0.68805255  0.55062145  0.64399955  1
  O  O57  1  0.87437485  0.55223234  0.13610751  1
  O  O58  1  0.66285317  0.13509296  0.13251850  1
  O  O59  1  0.44937855  0.31194745  0.14399955  1
  O  O60  1  0.46925445  0.28566656  0.03095310  1
  O  O61  1  0.82881027  0.55255211  0.02499180  1
  O  O62  1  0.72439108  0.14607588  0.02150012  1
  O  O63  1  0.44744789  0.17118973  0.52499180  1
  O  O64  1  0.71433344  0.53074555  0.53095310  1
  O  O65  1  0.85392412  0.27560892  0.52150012  1
  O  O66  1  0.53157304  0.67048083  0.96585250  1
  O  O67  1  0.11443366  0.45895915  0.96944151  1
  O  O68  1  0.35471855  0.88395545  0.97733355  1
  O  O69  1  0.54104085  0.88556634  0.46944151  1
  O  O70  1  0.32951917  0.46842696  0.46585250  1
  O  O71  1  0.11604455  0.64528145  0.47733355  1
  O  O72  1  0.13592045  0.61900056  0.36428710  1
  O  O73  1  0.49547627  0.88588611  0.35832580  1
  O  O74  1  0.39105708  0.47940988  0.35483412  1
  O  O75  1  0.11411389  0.50452373  0.85832580  1
  O  O76  1  0.38099944  0.86407955  0.86428710  1
  O  O77  1  0.52059012  0.60894292  0.85483412  1
  O  O78  1  0.00411627  0.78293989  0.41638831  1
  O  O79  1  0.79114368  0.03593569  0.40387499  1
  O  O80  1  0.21335390  0.20146187  0.41181629  1
  O  O81  1  0.96406431  0.20885632  0.90387499  1
  O  O82  1  0.21706011  0.99588373  0.91638831  1
  O  O83  1  0.79853813  0.78664610  0.91181629  1
  O  O84  1  0.94584590  0.13168357  0.58989909  1
  O  O85  1  0.17949201  0.06333815  0.58795948  1
  O  O86  1  0.87107198  0.81404286  0.58646913  1
  O  O87  1  0.93666185  0.82050799  0.08795948  1
  O  O88  1  0.86831643  0.05415410  0.08989909  1
  O  O89  1  0.18595714  0.12892802  0.08646913  1
  O  O90  1  0.67078327  0.11627289  0.74972131  1
  O  O91  1  0.45781068  0.36926869  0.73720799  1
  O  O92  1  0.88002090  0.53479487  0.74514929  1
  O  O93  1  0.63073131  0.54218932  0.23720799  1
  O  O94  1  0.88372711  0.32921673  0.24972131  1
  O  O95  1  0.46520513  0.11997910  0.24514929  1
  O  O96  1  0.61251290  0.46501657  0.92323209  1
  O  O97  1  0.84615901  0.39667115  0.92129248  1
  O  O98  1  0.53773898  0.14737586  0.91980213  1
  O  O99  1  0.60332885  0.15384099  0.42129248  1
  O  O100  1  0.53498343  0.38748710  0.42323209  1
  O  O101  1  0.85262414  0.46226102  0.41980213  1
  O  O102  1  0.33744927  0.44960689  0.08305531  1
  O  O103  1  0.12447668  0.70260269  0.07054199  1
  O  O104  1  0.54668690  0.86812887  0.07848329  1
  O  O105  1  0.29739731  0.87552332  0.57054199  1
  O  O106  1  0.55039311  0.66255073  0.58305531  1
  O  O107  1  0.13187113  0.45331310  0.57848329  1
  O  O108  1  0.27917890  0.79835057  0.25656609  1
  O  O109  1  0.51282501  0.73000515  0.25462648  1
  O  O110  1  0.20440498  0.48070986  0.25313613  1
  O  O111  1  0.26999485  0.48717499  0.75462648  1
  O  O112  1  0.20164943  0.72082110  0.75656609  1
  O  O113  1  0.51929014  0.79559502  0.75313613  1
