# generated using pymatgen
data_MgCr2(FeO3)2
_symmetry_space_group_name_H-M   'P 1'
_cell_length_a   5.17612691
_cell_length_b   5.17572317
_cell_length_c   5.86468444
_cell_angle_alpha   63.79706528
_cell_angle_beta   63.80427261
_cell_angle_gamma   60.00075370
_symmetry_Int_Tables_number   1
_chemical_formula_structural   MgCr2(FeO3)2
_chemical_formula_sum   'Mg1 Cr2 Fe2 O6'
_cell_volume   117.05819607
_cell_formula_units_Z   1
loop_
 _symmetry_equiv_pos_site_id
 _symmetry_equiv_pos_as_xyz
  1  'x, y, z'
loop_
 _atom_site_type_symbol
 _atom_site_label
 _atom_site_symmetry_multiplicity
 _atom_site_fract_x
 _atom_site_fract_y
 _atom_site_fract_z
 _atom_site_occupancy
  Mg  Mg0  1  0.00000000  0.00000000  0.00000000  1
  Cr  Cr1  1  0.34465800  0.34469800  0.96592500  1
  Cr  Cr2  1  0.65534200  0.65530200  0.03407500  1
  Fe  Fe3  1  0.16883400  0.16871800  0.49374000  1
  Fe  Fe4  1  0.83116600  0.83128200  0.50626000  1
  O  O5  1  0.94519900  0.25153600  0.22346100  1
  O  O6  1  0.25159300  0.57971500  0.22347300  1
  O  O7  1  0.57975400  0.94518800  0.22342800  1
  O  O8  1  0.05480100  0.74846400  0.77653900  1
  O  O9  1  0.74840700  0.42028500  0.77652700  1
  O  O10  1  0.42024600  0.05481200  0.77657200  1
