# generated using pymatgen
data_Na15Mg8Nb4P15(SO24)3
_symmetry_space_group_name_H-M   'P 1'
_cell_length_a   8.91904252
_cell_length_b   8.90155539
_cell_length_c   22.31640375
_cell_angle_alpha   90.11673705
_cell_angle_beta   90.00466250
_cell_angle_gamma   120.08365784
_symmetry_Int_Tables_number   1
_chemical_formula_structural   Na15Mg8Nb4P15(SO24)3
_chemical_formula_sum   'Na15 Mg8 Nb4 P15 S3 O72'
_cell_volume   1533.10181038
_cell_formula_units_Z   1
loop_
 _symmetry_equiv_pos_site_id
 _symmetry_equiv_pos_as_xyz
  1  'x, y, z'
loop_
 _atom_site_type_symbol
 _atom_site_label
 _atom_site_symmetry_multiplicity
 _atom_site_fract_x
 _atom_site_fract_y
 _atom_site_fract_z
 _atom_site_occupancy
  Na  Na0  1  0.99488516  0.63916080  0.24603548  1
  Na  Na1  1  0.64774487  0.63862466  0.74827184  1
  Na  Na2  1  0.36274222  0.01125392  0.74809082  1
  Na  Na3  1  0.30178543  0.33307931  0.58555324  1
  Na  Na4  1  0.03742743  0.70975882  0.58349184  1
  Na  Na5  1  0.66234784  0.95884822  0.58479685  1
  Na  Na6  1  0.29813870  0.95940676  0.08529141  1
  Na  Na7  1  0.67125076  0.70863410  0.08040113  1
  Na  Na8  1  0.03095650  0.33334548  0.08602015  1
  Na  Na9  1  0.99940869  0.99547212  0.49107281  1
  Na  Na10  1  0.99593537  0.99512655  0.99053882  1
  Na  Na11  1  0.67819858  0.33402607  0.82666819  1
  Na  Na12  1  0.65508184  0.31204341  0.32609714  1
  Na  Na13  1  0.33908716  0.67265654  0.16586449  1
  Na  Na14  1  0.32946904  0.66288304  0.66513806  1
  Mg  Mg15  1  0.00561889  0.00861411  0.35233842  1
  Mg  Mg16  1  0.99902827  0.00003756  0.85155213  1
  Mg  Mg17  1  0.00026434  0.99731280  0.65383062  1
  Mg  Mg18  1  0.00268326  0.00377139  0.15314736  1
  Mg  Mg19  1  0.66695889  0.33229241  0.68660171  1
  Mg  Mg20  1  0.66616398  0.32050308  0.18714276  1
  Mg  Mg21  1  0.33301996  0.67123539  0.01468932  1
  Mg  Mg22  1  0.33843491  0.67211613  0.51454268  1
  Nb  Nb23  1  0.67635669  0.33420329  0.97480725  1
  Nb  Nb24  1  0.65834631  0.33463183  0.47460508  1
  Nb  Nb25  1  0.33056893  0.66804467  0.31550818  1
  Nb  Nb26  1  0.33117791  0.66410294  0.81542214  1
  P  P27  1  0.29391964  0.00667921  0.25017096  1
  P  P28  1  0.99697611  0.28926466  0.24998965  1
  P  P29  1  0.29002643  0.28988123  0.74926651  1
  P  P30  1  0.99760955  0.70553289  0.74962685  1
  P  P31  1  0.71149881  0.00504143  0.75015791  1
  P  P32  1  0.37429629  0.03955385  0.58466695  1
  P  P33  1  0.66568840  0.62613158  0.58503156  1
  P  P34  1  0.95914897  0.62611229  0.08578345  1
  P  P35  1  0.66461805  0.03865574  0.08394866  1
  P  P36  1  0.62870594  0.67160030  0.92006924  1
  P  P37  1  0.04788406  0.37035982  0.92035751  1
  P  P38  1  0.32658556  0.95805404  0.91943263  1
  P  P39  1  0.63172939  0.95736105  0.41967796  1
  P  P40  1  0.32366458  0.37278473  0.41985653  1
  P  P41  1  0.04200893  0.67217483  0.41977474  1
  S  S42  1  0.70599366  0.70731562  0.24972639  1
  S  S43  1  0.95629976  0.33360229  0.58331871  1
  S  S44  1  0.37876714  0.33430818  0.08395618  1
  O  O45  1  0.19827604  0.01544240  0.30424081  1
  O  O46  1  0.81512737  0.79136242  0.30160549  1
  O  O47  1  0.97530088  0.17860463  0.30344221  1
  O  O48  1  0.20347780  0.17360048  0.80223962  1
  O  O49  1  0.97056002  0.79405423  0.80288025  1
  O  O50  1  0.81820305  0.02216863  0.80436098  1
  O  O51  1  0.77390688  0.96015028  0.69163848  1
  O  O52  1  0.19027355  0.22493926  0.68987030  1
  O  O53  1  0.04446740  0.81469292  0.69143507  1
  O  O54  1  0.77617674  0.80765692  0.19341996  1
  O  O55  1  0.03170022  0.22532867  0.19032083  1
  O  O56  1  0.18432199  0.95740246  0.19178623  1
  O  O57  1  0.87573613  0.36069580  0.63600815  1
  O  O58  1  0.48635885  0.12248459  0.63982128  1
  O  O59  1  0.64091794  0.51554983  0.64005692  1
  O  O60  1  0.87251817  0.51643446  0.14097221  1
  O  O61  1  0.63140621  0.12418837  0.13668588  1
  O  O62  1  0.48722213  0.36254738  0.13650028  1
  O  O63  1  0.46192014  0.30856226  0.02908792  1
  O  O64  1  0.83699451  0.52606784  0.02936550  1
  O  O65  1  0.68800108  0.15961264  0.02691475  1
  O  O66  1  0.47672995  0.16152472  0.52871122  1
  O  O67  1  0.68867949  0.52628191  0.52877658  1
  O  O68  1  0.84785697  0.30919759  0.52860796  1
  O  O69  1  0.54221432  0.68551437  0.97638318  1
  O  O70  1  0.14401250  0.45450100  0.97747368  1
  O  O71  1  0.31062307  0.85762616  0.97583366  1
  O  O72  1  0.54990217  0.85956397  0.47701387  1
  O  O73  1  0.31140333  0.45654701  0.47727156  1
  O  O74  1  0.14442473  0.68851036  0.47591456  1
  O  O75  1  0.13063824  0.63972634  0.36286687  1
  O  O76  1  0.50555580  0.86475866  0.36466974  1
  O  O77  1  0.35737857  0.49599262  0.36479796  1
  O  O78  1  0.13861698  0.49436662  0.86513741  1
  O  O79  1  0.36001695  0.86981324  0.86286608  1
  O  O80  1  0.50866392  0.63999632  0.86330468  1
  O  O81  1  0.01216213  0.82182725  0.40956284  1
  O  O82  1  0.80940262  0.98332420  0.40928379  1
  O  O83  1  0.17520189  0.19172218  0.41133227  1
  O  O84  1  0.01670490  0.18998949  0.91064247  1
  O  O85  1  0.17525948  0.98587218  0.91001139  1
  O  O86  1  0.80837437  0.82333069  0.91095603  1
  O  O87  1  0.97172282  0.17503027  0.58689821  1
  O  O88  1  0.19715233  0.03088483  0.58480536  1
  O  O89  1  0.83162219  0.80638028  0.58556938  1
  O  O90  1  0.97334497  0.80652328  0.08620899  1
  O  O91  1  0.83281552  0.02897825  0.08595746  1
  O  O92  1  0.20437779  0.17521390  0.08756060  1
  O  O93  1  0.67126426  0.15294176  0.74464010  1
  O  O94  1  0.47804805  0.32306808  0.74489620  1
  O  O95  1  0.84034261  0.52313993  0.74281363  1
  O  O96  1  0.68401735  0.53144174  0.24373627  1
  O  O97  1  0.85085267  0.33430738  0.24622696  1
  O  O98  1  0.47626778  0.16117613  0.24459688  1
  O  O99  1  0.63847846  0.49675126  0.92404120  1
  O  O100  1  0.86308908  0.36286187  0.92210073  1
  O  O101  1  0.50167031  0.14274529  0.92360585  1
  O  O102  1  0.64090106  0.14197575  0.42350960  1
  O  O103  1  0.50024128  0.36295630  0.42243739  1
  O  O104  1  0.85885686  0.49651908  0.42386548  1
  O  O105  1  0.35691774  0.48869882  0.07764228  1
  O  O106  1  0.13899389  0.64250823  0.07846093  1
  O  O107  1  0.50531791  0.85518739  0.07671122  1
  O  O108  1  0.35169867  0.85675433  0.57741357  1
  O  O109  1  0.50214251  0.64230685  0.57783233  1
  O  O110  1  0.13232627  0.48915568  0.57746282  1
  O  O111  1  0.31242609  0.83243915  0.25977397  1
  O  O112  1  0.52727712  0.68746397  0.25694238  1
  O  O113  1  0.16947243  0.48286349  0.25966612  1
  O  O114  1  0.31630030  0.48151042  0.75911761  1
  O  O115  1  0.16780736  0.68920653  0.76011836  1
  O  O116  1  0.51906367  0.83127531  0.75898294  1
