# generated using pymatgen
data_Na4TiZn3P2(SO6)4
_symmetry_space_group_name_H-M   'P 1'
_cell_length_a   8.80695722
_cell_length_b   8.79440514
_cell_length_c   22.30648095
_cell_angle_alpha   90.40688910
_cell_angle_beta   90.06331879
_cell_angle_gamma   120.01203687
_symmetry_Int_Tables_number   1
_chemical_formula_structural   Na4TiZn3P2(SO6)4
_chemical_formula_sum   'Na12 Ti3 Zn9 P6 S12 O72'
_cell_volume   1495.97428142
_cell_formula_units_Z   3
loop_
 _symmetry_equiv_pos_site_id
 _symmetry_equiv_pos_as_xyz
  1  'x, y, z'
loop_
 _atom_site_type_symbol
 _atom_site_label
 _atom_site_symmetry_multiplicity
 _atom_site_fract_x
 _atom_site_fract_y
 _atom_site_fract_z
 _atom_site_occupancy
  Na  Na0  1  0.63310920  0.99784904  0.25275835  1
  Na  Na1  1  0.36445904  0.36419885  0.24989239  1
  Na  Na2  1  0.30454080  0.33823059  0.58839273  1
  Na  Na3  1  0.66676531  0.95984668  0.58274817  1
  Na  Na4  1  0.97621598  0.67813102  0.91436889  1
  Na  Na5  1  0.32421553  0.29717666  0.91259273  1
  Na  Na6  1  0.99061619  0.98554256  0.49698333  1
  Na  Na7  1  0.99132168  0.00104414  0.99867194  1
  Na  Na8  1  0.66187613  0.32407806  0.82570679  1
  Na  Na9  1  0.67637354  0.33776615  0.33520895  1
  Na  Na10  1  0.32267194  0.66563359  0.16158630  1
  Na  Na11  1  0.32831090  0.66464122  0.66893080  1
  Ti  Ti12  1  0.66717535  0.32786948  0.97751465  1
  Ti  Ti13  1  0.67128464  0.33918832  0.47979797  1
  Ti  Ti14  1  0.33410033  0.65830611  0.81514729  1
  Zn  Zn15  1  0.99016119  0.99635807  0.35348520  1
  Zn  Zn16  1  0.99939641  0.00610990  0.84803673  1
  Zn  Zn17  1  0.99880124  0.99159740  0.65652341  1
  Zn  Zn18  1  0.00035957  0.99690325  0.14663818  1
  Zn  Zn19  1  0.65908047  0.34241204  0.68729880  1
  Zn  Zn20  1  0.67422862  0.34056635  0.17844684  1
  Zn  Zn21  1  0.33577666  0.66919789  0.01370193  1
  Zn  Zn22  1  0.34249148  0.67362011  0.51228697  1
  Zn  Zn23  1  0.33213683  0.67671118  0.32461337  1
  P  P24  1  0.29423971  0.29319230  0.75068217  1
  P  P25  1  0.66924427  0.62614013  0.58332754  1
  P  P26  1  0.62662971  0.67081222  0.91875968  1
  P  P27  1  0.04277480  0.37465651  0.91818363  1
  P  P28  1  0.33465485  0.95411530  0.91767784  1
  P  P29  1  0.63289050  0.96702648  0.41772042  1
  S  S30  1  0.28990064  0.99730048  0.24985588  1
  S  S31  1  0.70766087  0.70470473  0.24943193  1
  S  S32  1  0.00152274  0.29582488  0.24979006  1
  S  S33  1  0.00403760  0.70365827  0.75187308  1
  S  S34  1  0.70060511  0.99841801  0.74987879  1
  S  S35  1  0.95807311  0.33820093  0.58315376  1
  S  S36  1  0.37649688  0.04210153  0.58254596  1
  S  S37  1  0.96038402  0.62601687  0.08265319  1
  S  S38  1  0.66572440  0.04060101  0.08390383  1
  S  S39  1  0.37372346  0.33397186  0.08349612  1
  S  S40  1  0.33383735  0.36873095  0.41697494  1
  S  S41  1  0.03847892  0.66588922  0.41797098  1
  O  O42  1  0.21134394  0.02950406  0.30345930  1
  O  O43  1  0.81285619  0.78368166  0.30380687  1
  O  O44  1  0.96986350  0.18496185  0.30315673  1
  O  O45  1  0.21196553  0.18837309  0.80748860  1
  O  O46  1  0.97621408  0.78121405  0.80686218  1
  O  O47  1  0.80917984  0.02319256  0.80287788  1
  O  O48  1  0.77027362  0.96415691  0.69347104  1
  O  O49  1  0.18578284  0.22306932  0.69202663  1
  O  O50  1  0.03472967  0.81062455  0.69784742  1
  O  O51  1  0.78551402  0.81553488  0.19596112  1
  O  O52  1  0.03292849  0.21632511  0.19550435  1
  O  O53  1  0.18658344  0.97386400  0.19502866  1
  O  O54  1  0.87724269  0.35946133  0.63713716  1
  O  O55  1  0.48663534  0.11863440  0.63627662  1
  O  O56  1  0.63243658  0.50801998  0.63700065  1
  O  O57  1  0.87995109  0.52191099  0.13697419  1
  O  O58  1  0.64270327  0.11815829  0.14034317  1
  O  O59  1  0.47534152  0.35625645  0.13958153  1
  O  O60  1  0.46695032  0.31315385  0.02964270  1
  O  O61  1  0.84772013  0.53404786  0.02790280  1
  O  O62  1  0.68574707  0.15789071  0.03132145  1
  O  O63  1  0.46596813  0.15655931  0.52898115  1
  O  O64  1  0.68783718  0.52466284  0.52718038  1
  O  O65  1  0.84310892  0.31056044  0.52882094  1
  O  O66  1  0.54864662  0.69768332  0.97479204  1
  O  O67  1  0.15461242  0.45289324  0.97377251  1
  O  O68  1  0.29753205  0.84477664  0.97357009  1
  O  O69  1  0.55090837  0.85888796  0.47407962  1
  O  O70  1  0.30697117  0.44829831  0.47136891  1
  O  O71  1  0.14325973  0.68934430  0.47179638  1
  O  O72  1  0.10700150  0.62737669  0.36291682  1
  O  O73  1  0.52356478  0.89689469  0.35926097  1
  O  O74  1  0.36542265  0.47504393  0.36196694  1
  O  O75  1  0.12717324  0.49937142  0.86301125  1
  O  O76  1  0.36742430  0.86880483  0.86198552  1
  O  O77  1  0.50117619  0.62932094  0.86319469  1
  O  O78  1  0.01681147  0.82039558  0.41182932  1
  O  O79  1  0.81716076  0.99142233  0.41214469  1
  O  O80  1  0.18133109  0.19107675  0.41085836  1
  O  O81  1  0.01722389  0.19158816  0.90950134  1
  O  O82  1  0.17940066  0.98675882  0.91019077  1
  O  O83  1  0.81386581  0.81929870  0.90881136  1
  O  O84  1  0.97201691  0.17514388  0.58415876  1
  O  O85  1  0.20434896  0.03392243  0.58571809  1
  O  O86  1  0.83277081  0.81103396  0.58569556  1
  O  O87  1  0.96885702  0.79870936  0.08535251  1
  O  O88  1  0.82917613  0.03174782  0.08558407  1
  O  O89  1  0.20067676  0.17054715  0.08551766  1
  O  O90  1  0.68121898  0.15475900  0.74405217  1
  O  O91  1  0.47963859  0.32032779  0.74669671  1
  O  O92  1  0.85063754  0.52538276  0.74577618  1
  O  O93  1  0.68148155  0.52342117  0.24377239  1
  O  O94  1  0.83992327  0.31038972  0.24374954  1
  O  O95  1  0.47117555  0.15892540  0.24536545  1
  O  O96  1  0.63788202  0.49375790  0.92508573  1
  O  O97  1  0.85868634  0.36534278  0.92519674  1
  O  O98  1  0.50332295  0.14449361  0.92612538  1
  O  O99  1  0.64850671  0.15365973  0.42815091  1
  O  O100  1  0.49757991  0.35467262  0.42385493  1
  O  O101  1  0.85803717  0.50301949  0.42464580  1
  O  O102  1  0.35737535  0.49147888  0.07840145  1
  O  O103  1  0.13435090  0.64346993  0.07747337  1
  O  O104  1  0.50878613  0.86705309  0.07763526  1
  O  O105  1  0.35581248  0.86498781  0.57547467  1
  O  O106  1  0.50137813  0.64257997  0.57615496  1
  O  O107  1  0.13588792  0.49172761  0.57569809  1
  O  O108  1  0.31499705  0.84185655  0.25448272  1
  O  O109  1  0.52716699  0.68479434  0.25449687  1
  O  O110  1  0.16247645  0.47192557  0.25670652  1
  O  O111  1  0.31070620  0.48256534  0.76041092  1
  O  O112  1  0.16743409  0.68984139  0.75821694  1
  O  O113  1  0.52237907  0.83576751  0.75743205  1
