# generated using pymatgen
data_Na6Hf3MgSi4(SO12)2
_symmetry_space_group_name_H-M   'P 1'
_cell_length_a   9.10662572
_cell_length_b   9.09899052
_cell_length_c   22.87527458
_cell_angle_alpha   90.04671333
_cell_angle_beta   90.11480819
_cell_angle_gamma   119.94673395
_symmetry_Int_Tables_number   1
_chemical_formula_structural   Na6Hf3MgSi4(SO12)2
_chemical_formula_sum   'Na18 Hf9 Mg3 Si12 S6 O72'
_cell_volume   1642.39901991
_cell_formula_units_Z   3
loop_
 _symmetry_equiv_pos_site_id
 _symmetry_equiv_pos_as_xyz
  1  'x, y, z'
loop_
 _atom_site_type_symbol
 _atom_site_label
 _atom_site_symmetry_multiplicity
 _atom_site_fract_x
 _atom_site_fract_y
 _atom_site_fract_z
 _atom_site_occupancy
  Na  Na0  1  0.99215556  0.35259443  0.75314919  1
  Na  Na1  1  0.38707174  0.01860267  0.74929256  1
  Na  Na2  1  0.31906552  0.33516861  0.58494757  1
  Na  Na3  1  0.03046903  0.70474440  0.57828534  1
  Na  Na4  1  0.65569062  0.96161343  0.58714251  1
  Na  Na5  1  0.31344586  0.97631613  0.08345241  1
  Na  Na6  1  0.66013015  0.68557122  0.08572767  1
  Na  Na7  1  0.02549554  0.33661610  0.08403486  1
  Na  Na8  1  0.33130117  0.29511072  0.92097724  1
  Na  Na9  1  0.96812878  0.29396821  0.41218564  1
  Na  Na10  1  0.32324545  0.02959971  0.41461020  1
  Na  Na11  1  0.70882816  0.67783453  0.41449937  1
  Na  Na12  1  0.00113560  0.99313452  0.49198021  1
  Na  Na13  1  0.00120708  0.99814706  0.99909552  1
  Na  Na14  1  0.66444844  0.32221883  0.83231355  1
  Na  Na15  1  0.66778981  0.33366953  0.32782574  1
  Na  Na16  1  0.33436378  0.66624170  0.16547033  1
  Na  Na17  1  0.35875720  0.67270340  0.66894680  1
  Hf  Hf18  1  0.00549198  0.01593391  0.85352163  1
  Hf  Hf19  1  0.99633812  0.99858874  0.65018262  1
  Hf  Hf20  1  0.00244301  0.00098268  0.14608679  1
  Hf  Hf21  1  0.67242052  0.32262920  0.98329840  1
  Hf  Hf22  1  0.65573053  0.33684736  0.47880238  1
  Hf  Hf23  1  0.32137504  0.66672958  0.01995969  1
  Hf  Hf24  1  0.34376537  0.67494692  0.51495829  1
  Hf  Hf25  1  0.33291923  0.66745418  0.31645572  1
  Hf  Hf26  1  0.33920760  0.67075159  0.81546599  1
  Mg  Mg27  1  0.00034487  0.99883042  0.35370730  1
  Mg  Mg28  1  0.64123511  0.32384532  0.68649907  1
  Mg  Mg29  1  0.66631678  0.33326439  0.17772521  1
  Si  Si30  1  0.29825545  0.29876664  0.74971432  1
  Si  Si31  1  0.70486093  0.00232518  0.74931196  1
  Si  Si32  1  0.37327384  0.03789743  0.58517409  1
  Si  Si33  1  0.66688574  0.62403444  0.58539147  1
  Si  Si34  1  0.95104862  0.61858069  0.08554912  1
  Si  Si35  1  0.66428682  0.04005883  0.08697571  1
  Si  Si36  1  0.38100808  0.33700498  0.08420606  1
  Si  Si37  1  0.03690153  0.37867959  0.91566464  1
  Si  Si38  1  0.33297708  0.96206282  0.91599384  1
  Si  Si39  1  0.63113676  0.96290392  0.41507441  1
  Si  Si40  1  0.32788113  0.37278251  0.41618779  1
  Si  Si41  1  0.03998778  0.66604173  0.41663730  1
  S  S42  1  0.29485787  0.00276894  0.25157814  1
  S  S43  1  0.70821353  0.70566675  0.25133183  1
  S  S44  1  0.99728729  0.29203423  0.25150887  1
  S  S45  1  0.99702912  0.70606401  0.75048210  1
  S  S46  1  0.95686108  0.33412146  0.58496464  1
  S  S47  1  0.62696908  0.66811279  0.91708674  1
  O  O48  1  0.20841541  0.01876043  0.30372992  1
  O  O49  1  0.81050249  0.79197834  0.30372589  1
  O  O50  1  0.98152123  0.18983235  0.30378487  1
  O  O51  1  0.19877015  0.17280568  0.80582339  1
  O  O52  1  0.97456917  0.78974504  0.80170606  1
  O  O53  1  0.82895291  0.02046841  0.80404550  1
  O  O54  1  0.79247956  0.97043352  0.69043858  1
  O  O55  1  0.17173769  0.20504615  0.69216900  1
  O  O56  1  0.02863119  0.81554987  0.69686429  1
  O  O57  1  0.79141339  0.81377415  0.19793432  1
  O  O58  1  0.02219538  0.20849412  0.19806073  1
  O  O59  1  0.18648902  0.97758919  0.19803974  1
  O  O60  1  0.88202905  0.36134789  0.63681496  1
  O  O61  1  0.49317445  0.11391641  0.64112072  1
  O  O62  1  0.63729497  0.50256032  0.63906321  1
  O  O63  1  0.87907026  0.50066523  0.14108612  1
  O  O64  1  0.61964917  0.11753524  0.14133260  1
  O  O65  1  0.49919178  0.37678325  0.13968227  1
  O  O66  1  0.45496012  0.29589129  0.02408579  1
  O  O67  1  0.83125550  0.54073868  0.02710913  1
  O  O68  1  0.70973106  0.16205650  0.02852300  1
  O  O69  1  0.45961140  0.15772404  0.52648854  1
  O  O70  1  0.70388609  0.54512076  0.52515923  1
  O  O71  1  0.85245127  0.30483883  0.53132485  1
  O  O72  1  0.55044553  0.69494704  0.96998488  1
  O  O73  1  0.16231661  0.46091767  0.97240615  1
  O  O74  1  0.31123457  0.84720932  0.97357779  1
  O  O75  1  0.54443510  0.84449852  0.47388910  1
  O  O76  1  0.29878105  0.45804502  0.47542836  1
  O  O77  1  0.15680112  0.69542921  0.47549258  1
  O  O78  1  0.13367588  0.62968858  0.36166950  1
  O  O79  1  0.49689688  0.86936584  0.36130060  1
  O  O80  1  0.36966888  0.50472577  0.36177380  1
  O  O81  1  0.13428823  0.49073290  0.85746994  1
  O  O82  1  0.35892108  0.86987366  0.85816845  1
  O  O83  1  0.51578503  0.64140096  0.86509098  1
  O  O84  1  0.02094484  0.83190256  0.40958404  1
  O  O85  1  0.81438696  0.97947504  0.40889332  1
  O  O86  1  0.16538653  0.18680700  0.40924991  1
  O  O87  1  0.02580392  0.19086603  0.91039306  1
  O  O88  1  0.16117337  0.97826162  0.90962946  1
  O  O89  1  0.79595644  0.81744845  0.90894804  1
  O  O90  1  0.97565951  0.17844978  0.58910576  1
  O  O91  1  0.18288807  0.02080058  0.59047789  1
  O  O92  1  0.83580832  0.81849957  0.58934295  1
  O  O93  1  0.97935313  0.81430798  0.09324986  1
  O  O94  1  0.83587936  0.01957985  0.09385696  1
  O  O95  1  0.18649128  0.16604315  0.09287936  1
  O  O96  1  0.70055183  0.17783296  0.74479487  1
  O  O97  1  0.47696866  0.30608506  0.74766767  1
  O  O98  1  0.85381416  0.53579301  0.74252694  1
  O  O99  1  0.68941413  0.53748976  0.24549290  1
  O  O100  1  0.84807797  0.31071125  0.24563444  1
  O  O101  1  0.46245764  0.15189372  0.24578794  1
  O  O102  1  0.63585776  0.51091076  0.92121122  1
  O  O103  1  0.85154791  0.36063617  0.92119733  1
  O  O104  1  0.49498679  0.15575495  0.92109384  1
  O  O105  1  0.64579459  0.14851675  0.42418390  1
  O  O106  1  0.50290059  0.36077372  0.42174856  1
  O  O107  1  0.85557096  0.49137118  0.42360109  1
  O  O108  1  0.35149088  0.50035404  0.07445466  1
  O  O109  1  0.14613041  0.65033816  0.07597741  1
  O  O110  1  0.50516710  0.84755210  0.07445289  1
  O  O111  1  0.34236618  0.84299455  0.57689341  1
  O  O112  1  0.49584512  0.64428680  0.57758832  1
  O  O113  1  0.13028970  0.48409750  0.57784949  1
  O  O114  1  0.30610578  0.84258989  0.25494208  1
  O  O115  1  0.53657813  0.69383658  0.25498425  1
  O  O116  1  0.15725660  0.46346422  0.25508659  1
  O  O117  1  0.29840403  0.47921184  0.75583625  1
  O  O118  1  0.15719174  0.69658587  0.75503858  1
  O  O119  1  0.51286154  0.83608691  0.75521309  1
