# generated using pymatgen
data_Na5Mg2Nb2SiP5O24
_symmetry_space_group_name_H-M   'P 1'
_cell_length_a   8.92807943
_cell_length_b   8.96314685
_cell_length_c   22.34253989
_cell_angle_alpha   89.77242449
_cell_angle_beta   90.20092975
_cell_angle_gamma   119.92528883
_symmetry_Int_Tables_number   1
_chemical_formula_structural   Na5Mg2Nb2SiP5O24
_chemical_formula_sum   'Na15 Mg6 Nb6 Si3 P15 O72'
_cell_volume   1549.54464824
_cell_formula_units_Z   3
loop_
 _symmetry_equiv_pos_site_id
 _symmetry_equiv_pos_as_xyz
  1  'x, y, z'
loop_
 _atom_site_type_symbol
 _atom_site_label
 _atom_site_symmetry_multiplicity
 _atom_site_fract_x
 _atom_site_fract_y
 _atom_site_fract_z
 _atom_site_occupancy
  Na  Na0  1  0.62232091  0.00231909  0.25119571  1
  Na  Na1  1  0.99778586  0.61675683  0.24859321  1
  Na  Na2  1  0.34602346  0.99959309  0.75211650  1
  Na  Na3  1  0.29823992  0.31460545  0.58609009  1
  Na  Na4  1  0.02430432  0.70654035  0.58873632  1
  Na  Na5  1  0.67916707  0.97571674  0.59198352  1
  Na  Na6  1  0.65439155  0.68922622  0.07691318  1
  Na  Na7  1  0.04041883  0.34903712  0.07854837  1
  Na  Na8  1  0.97988556  0.67846329  0.91083644  1
  Na  Na9  1  0.00649772  0.00053514  0.50597567  1
  Na  Na10  1  0.01315733  0.01439940  0.98721805  1
  Na  Na11  1  0.67049145  0.32826567  0.83248439  1
  Na  Na12  1  0.65368333  0.33584134  0.34035381  1
  Na  Na13  1  0.32669865  0.66630123  0.16364646  1
  Na  Na14  1  0.33826730  0.65669760  0.67023629  1
  Mg  Mg15  1  0.99834803  0.00897593  0.84977979  1
  Mg  Mg16  1  0.99529618  0.99850459  0.65262847  1
  Mg  Mg17  1  0.66373932  0.33431529  0.18780636  1
  Mg  Mg18  1  0.66270433  0.33131843  0.47865105  1
  Mg  Mg19  1  0.33135784  0.67267121  0.01863051  1
  Mg  Mg20  1  0.33336821  0.66080508  0.31341972  1
  Nb  Nb21  1  0.00339597  0.00301325  0.35849209  1
  Nb  Nb22  1  0.00403902  0.99789040  0.14415702  1
  Nb  Nb23  1  0.66654655  0.32810208  0.68673841  1
  Nb  Nb24  1  0.66421825  0.33184595  0.98024547  1
  Nb  Nb25  1  0.33494294  0.67052562  0.51537014  1
  Nb  Nb26  1  0.33900854  0.66688372  0.81473103  1
  Si  Si27  1  0.71431039  0.99943612  0.74902909  1
  Si  Si28  1  0.36928409  0.04119645  0.58006943  1
  Si  Si29  1  0.96309990  0.62260134  0.08769828  1
  P  P30  1  0.29366791  0.00317397  0.25168369  1
  P  P31  1  0.70837972  0.70983756  0.25106645  1
  P  P32  1  0.00233580  0.29139184  0.25002917  1
  P  P33  1  0.28980763  0.29149486  0.74855031  1
  P  P34  1  0.99725529  0.70563346  0.75173180  1
  P  P35  1  0.95728127  0.33327763  0.57970254  1
  P  P36  1  0.66839211  0.62268547  0.57972086  1
  P  P37  1  0.66154017  0.04102810  0.08781610  1
  P  P38  1  0.37959890  0.33430284  0.08541689  1
  P  P39  1  0.62866498  0.66928693  0.92162533  1
  P  P40  1  0.04419401  0.37087881  0.92121108  1
  P  P41  1  0.33121023  0.95852443  0.91784383  1
  P  P42  1  0.62375443  0.96336520  0.41106567  1
  P  P43  1  0.34001409  0.37978100  0.41341386  1
  P  P44  1  0.03646471  0.66022481  0.41148056  1
  O  O45  1  0.19389424  0.01772772  0.30658998  1
  O  O46  1  0.83109531  0.81374237  0.30467852  1
  O  O47  1  0.98728863  0.17208780  0.30451651  1
  O  O48  1  0.21669323  0.17103003  0.80153417  1
  O  O49  1  0.97334025  0.78096155  0.80907920  1
  O  O50  1  0.82467994  0.03222118  0.80682155  1
  O  O51  1  0.77242097  0.96647877  0.68514007  1
  O  O52  1  0.19500818  0.22705074  0.68933236  1
  O  O53  1  0.03809503  0.81636314  0.69525311  1
  O  O54  1  0.80709570  0.82578854  0.19351377  1
  O  O55  1  0.01722596  0.19607339  0.19290701  1
  O  O56  1  0.17418217  0.98530082  0.19544868  1
  O  O57  1  0.87243199  0.36696604  0.63708304  1
  O  O58  1  0.49571166  0.13052736  0.64150001  1
  O  O59  1  0.63505889  0.50563636  0.63665926  1
  O  O60  1  0.87339820  0.51229976  0.14621304  1
  O  O61  1  0.64093791  0.11885365  0.14469789  1
  O  O62  1  0.48984484  0.35854677  0.13948596  1
  O  O63  1  0.46270141  0.30161213  0.02782416  1
  O  O64  1  0.82852209  0.52695323  0.02765899  1
  O  O65  1  0.69157314  0.16390681  0.03217205  1
  O  O66  1  0.46287311  0.16588562  0.52621791  1
  O  O67  1  0.69879157  0.54104521  0.52603044  1
  O  O68  1  0.84649200  0.30923629  0.52620911  1
  O  O69  1  0.54384066  0.68225885  0.97827664  1
  O  O70  1  0.13920010  0.45582693  0.97835615  1
  O  O71  1  0.30741697  0.84484368  0.97093595  1
  O  O72  1  0.53083706  0.84008245  0.46853155  1
  O  O73  1  0.30786105  0.46333468  0.47256581  1
  O  O74  1  0.15997468  0.69018855  0.46905032  1
  O  O75  1  0.12592583  0.64966617  0.35583724  1
  O  O76  1  0.52122874  0.87491312  0.35557648  1
  O  O77  1  0.34979320  0.48501195  0.36004522  1
  O  O78  1  0.13510395  0.49740602  0.86649271  1
  O  O79  1  0.35839822  0.87316612  0.85924550  1
  O  O80  1  0.50949879  0.64836748  0.86572753  1
  O  O81  1  0.03036324  0.83568513  0.41122461  1
  O  O82  1  0.80567069  0.96874557  0.41057980  1
  O  O83  1  0.16512327  0.19503792  0.41119076  1
  O  O84  1  0.01983979  0.19369173  0.91184680  1
  O  O85  1  0.17433550  0.98079340  0.90912235  1
  O  O86  1  0.81300096  0.81477951  0.91330227  1
  O  O87  1  0.98756998  0.18116698  0.58884704  1
  O  O88  1  0.17554198  0.00489635  0.59022411  1
  O  O89  1  0.81895006  0.80587885  0.58869560  1
  O  O90  1  0.96651638  0.81329741  0.08924424  1
  O  O91  1  0.84089843  0.03930476  0.08870692  1
  O  O92  1  0.19302383  0.16911799  0.08895346  1
  O  O93  1  0.67364901  0.16704879  0.74268822  1
  O  O94  1  0.48158130  0.32327564  0.74127005  1
  O  O95  1  0.83893353  0.52083276  0.74217537  1
  O  O96  1  0.70316626  0.53821662  0.24884544  1
  O  O97  1  0.83204977  0.29447313  0.24958163  1
  O  O98  1  0.47094417  0.16235939  0.24786704  1
  O  O99  1  0.63657360  0.49386113  0.92167585  1
  O  O100  1  0.85931387  0.36335246  0.92317907  1
  O  O101  1  0.50156466  0.13968438  0.92285319  1
  O  O102  1  0.65274662  0.14079699  0.42117505  1
  O  O103  1  0.49057050  0.35071764  0.42102712  1
  O  O104  1  0.85937163  0.51074210  0.42186555  1
  O  O105  1  0.35263105  0.48811758  0.07661607  1
  O  O106  1  0.15007198  0.64623290  0.07851343  1
  O  O107  1  0.52004263  0.85642444  0.07781174  1
  O  O108  1  0.36126954  0.84778563  0.57544076  1
  O  O109  1  0.49465857  0.63296395  0.57549622  1
  O  O110  1  0.14137256  0.50467168  0.57659367  1
  O  O111  1  0.29733122  0.83408235  0.25167977  1
  O  O112  1  0.53762385  0.70860779  0.25217151  1
  O  O113  1  0.16110172  0.47034376  0.25183283  1
  O  O114  1  0.31673657  0.47684757  0.76059308  1
  O  O115  1  0.16033574  0.67791349  0.75926983  1
  O  O116  1  0.50620377  0.83295205  0.75923062  1
