# generated using pymatgen
data_Sb4Br2O5
_symmetry_space_group_name_H-M   'P 1'
_cell_length_a   5.18335569
_cell_length_b   6.71479188
_cell_length_c   13.43178139
_cell_angle_alpha   81.55046402
_cell_angle_beta   90.00000000
_cell_angle_gamma   90.00000000
_symmetry_Int_Tables_number   1
_chemical_formula_structural   Sb4Br2O5
_chemical_formula_sum   'Sb8 Br4 O10'
_cell_volume   462.42087897
_cell_formula_units_Z   2
loop_
 _symmetry_equiv_pos_site_id
 _symmetry_equiv_pos_as_xyz
  1  'x, y, z'
loop_
 _atom_site_type_symbol
 _atom_site_label
 _atom_site_symmetry_multiplicity
 _atom_site_fract_x
 _atom_site_fract_y
 _atom_site_fract_z
 _atom_site_occupancy
  Sb  Sb0  1  0.61172137  0.80454999  0.29930448  1
  Sb  Sb1  1  0.11172137  0.19545001  0.20069552  1
  Sb  Sb2  1  0.38827863  0.19545001  0.70069552  1
  Sb  Sb3  1  0.88827863  0.80454999  0.79930448  1
  Sb  Sb4  1  0.72293787  0.17182130  0.44415404  1
  Sb  Sb5  1  0.22293787  0.82817870  0.05584596  1
  Sb  Sb6  1  0.27706213  0.82817870  0.55584596  1
  Sb  Sb7  1  0.77706213  0.17182130  0.94415404  1
  Br  Br8  1  0.29084463  0.51723523  0.88265663  1
  Br  Br9  1  0.20915537  0.51723523  0.38265663  1
  Br  Br10  1  0.70915537  0.48276477  0.11734337  1
  Br  Br11  1  0.79084463  0.48276477  0.61734337  1
  O  O12  1  0.16475812  0.93247728  0.70891765  1
  O  O13  1  0.33524188  0.93247728  0.20891765  1
  O  O14  1  0.83524188  0.06752272  0.29108235  1
  O  O15  1  0.66475812  0.06752272  0.79108235  1
  O  O16  1  0.50708994  0.06812274  0.58128640  1
  O  O17  1  0.00708994  0.93187726  0.91871360  1
  O  O18  1  0.49291006  0.93187726  0.41871360  1
  O  O19  1  0.99291006  0.06812274  0.08128640  1
  O  O20  1  -0.00000000  0.00000000  0.50000000  1
  O  O21  1  0.50000000  0.00000000  0.00000000  1
