# generated using pymatgen
data_Na3ZrSi2GePO12
_symmetry_space_group_name_H-M   'P 1'
_cell_length_a   8.90699696
_cell_length_b   8.93839294
_cell_length_c   22.21723535
_cell_angle_alpha   90.12733646
_cell_angle_beta   89.98337394
_cell_angle_gamma   119.92817696
_symmetry_Int_Tables_number   1
_chemical_formula_structural   Na3ZrSi2GePO12
_chemical_formula_sum   'Na18 Zr6 Si12 Ge6 P6 O72'
_cell_volume   1532.93587310
_cell_formula_units_Z   6
loop_
 _symmetry_equiv_pos_site_id
 _symmetry_equiv_pos_as_xyz
  1  'x, y, z'
loop_
 _atom_site_type_symbol
 _atom_site_label
 _atom_site_symmetry_multiplicity
 _atom_site_fract_x
 _atom_site_fract_y
 _atom_site_fract_z
 _atom_site_occupancy
  Na  Na0  1  0.99754005  0.98674871  0.50001764  1
  Na  Na1  1  0.00635871  0.00147344  0.99811021  1
  Na  Na2  1  0.66473787  0.32349049  0.84050839  1
  Na  Na3  1  0.66700007  0.33172641  0.32545490  1
  Na  Na4  1  0.33141136  0.66099070  0.16401719  1
  Na  Na5  1  0.35110036  0.66860140  0.67473264  1
  Na  Na6  1  0.64531682  0.00050995  0.24704449  1
  Na  Na7  1  0.99760016  0.64406271  0.25192400  1
  Na  Na8  1  0.99574645  0.35880157  0.75723211  1
  Na  Na9  1  0.37307377  0.00398890  0.76155342  1
  Na  Na10  1  0.30968385  0.33611793  0.58655658  1
  Na  Na11  1  0.66097817  0.96484860  0.58913272  1
  Na  Na12  1  0.66696107  0.70767767  0.07927782  1
  Na  Na13  1  0.04107933  0.33379608  0.08271043  1
  Na  Na14  1  0.96079208  0.66363024  0.91871581  1
  Na  Na15  1  0.33544049  0.29705467  0.92143110  1
  Na  Na16  1  0.32937173  0.03068141  0.41571120  1
  Na  Na17  1  0.70563798  0.67072355  0.41722633  1
  Zr  Zr18  1  0.99377272  0.00195507  0.34669188  1
  Zr  Zr19  1  0.99459236  0.99309147  0.65262345  1
  Zr  Zr20  1  0.00670782  0.00243064  0.14279342  1
  Zr  Zr21  1  0.66161650  0.33779361  0.69386453  1
  Zr  Zr22  1  0.67714936  0.33576228  0.47578674  1
  Zr  Zr23  1  0.32853523  0.67086421  0.52122194  1
  Si  Si24  1  0.68962765  0.69125311  0.24515427  1
  Si  Si25  1  0.00096713  0.30722657  0.24164328  1
  Si  Si26  1  0.28701604  0.29900626  0.76045517  1
  Si  Si27  1  0.70325046  0.98493580  0.75863634  1
  Si  Si28  1  0.37026693  0.04100402  0.58464414  1
  Si  Si29  1  0.67417109  0.63037872  0.58012391  1
  Si  Si30  1  0.95421954  0.61293179  0.07722314  1
  Si  Si31  1  0.38981274  0.33962110  0.07618740  1
  Si  Si32  1  0.04124852  0.37512333  0.91875376  1
  Si  Si33  1  0.33531452  0.95231314  0.91920458  1
  Si  Si34  1  0.61675766  0.95206905  0.41098574  1
  Si  Si35  1  0.04385230  0.66377873  0.40712221  1
  Ge  Ge36  1  0.00585740  0.00929543  0.85913385  1
  Ge  Ge37  1  0.67323506  0.34559274  0.18020842  1
  Ge  Ge38  1  0.66440766  0.32016316  0.97945657  1
  Ge  Ge39  1  0.32190042  0.65782241  0.01865859  1
  Ge  Ge40  1  0.32900380  0.65833314  0.30929842  1
  Ge  Ge41  1  0.33552801  0.67116852  0.82022683  1
  P  P42  1  0.30896807  0.00775318  0.24834963  1
  P  P43  1  0.00714910  0.71301854  0.76303573  1
  P  P44  1  0.95999352  0.33433269  0.59007268  1
  P  P45  1  0.65272064  0.04326508  0.08119801  1
  P  P46  1  0.62288289  0.67419415  0.91915380  1
  P  P47  1  0.32982491  0.37900401  0.41338180  1
  O  O48  1  0.23386071  0.02963561  0.30818637  1
  O  O49  1  0.81954660  0.77856578  0.30342319  1
  O  O50  1  0.96146861  0.17032313  0.29636630  1
  O  O51  1  0.20423999  0.16353776  0.81735539  1
  O  O52  1  0.98570054  0.79482925  0.82123011  1
  O  O53  1  0.84724219  0.02123083  0.81071285  1
  O  O54  1  0.77617344  0.96510370  0.69284970  1
  O  O55  1  0.17186164  0.21486458  0.69906466  1
  O  O56  1  0.02599830  0.82672201  0.70800481  1
  O  O57  1  0.78186503  0.82289542  0.18820521  1
  O  O58  1  0.02944532  0.22313605  0.18080813  1
  O  O59  1  0.17746630  0.97758900  0.19744935  1
  O  O60  1  0.88031048  0.34484034  0.65000919  1
  O  O61  1  0.48551764  0.13466075  0.64505359  1
  O  O62  1  0.66643867  0.51104529  0.63674080  1
  O  O63  1  0.87345037  0.49521255  0.13834611  1
  O  O64  1  0.63571055  0.12747861  0.13989831  1
  O  O65  1  0.51832445  0.37079643  0.13310413  1
  O  O66  1  0.47223550  0.31249344  0.01414225  1
  O  O67  1  0.82862834  0.52267033  0.01850064  1
  O  O68  1  0.69042039  0.16260482  0.02635483  1
  O  O69  1  0.46656310  0.14865961  0.52332198  1
  O  O70  1  0.68460750  0.54578919  0.51609115  1
  O  O71  1  0.84878825  0.32549281  0.53525958  1
  O  O72  1  0.54496425  0.69859435  0.97883678  1
  O  O73  1  0.17079156  0.45382540  0.97787169  1
  O  O74  1  0.29267735  0.81348765  0.97370262  1
  O  O75  1  0.53713639  0.84864977  0.47441948  1
  O  O76  1  0.31681194  0.45441383  0.47429424  1
  O  O77  1  0.15493191  0.67693514  0.46688956  1
  O  O78  1  0.13996301  0.65560055  0.34546376  1
  O  O79  1  0.49713960  0.85017738  0.35214021  1
  O  O80  1  0.34634102  0.49471287  0.35945554  1
  O  O81  1  0.12819543  0.50953826  0.86180556  1
  O  O82  1  0.36103129  0.87120519  0.85650610  1
  O  O83  1  0.49655784  0.64193115  0.86648748  1
  O  O84  1  0.02980641  0.84021592  0.40927520  1
  O  O85  1  0.80743253  0.96822325  0.40823276  1
  O  O86  1  0.17280165  0.19556954  0.40865079  1
  O  O87  1  0.02784072  0.18462114  0.91238637  1
  O  O88  1  0.15841091  0.97504922  0.91658517  1
  O  O89  1  0.80850812  0.83457984  0.91405890  1
  O  O90  1  0.96758487  0.16543802  0.58720329  1
  O  O91  1  0.18714810  0.03820099  0.58772129  1
  O  O92  1  0.83646971  0.82549575  0.58468683  1
  O  O93  1  0.96750937  0.80175092  0.08288355  1
  O  O94  1  0.81693163  0.02198003  0.08333174  1
  O  O95  1  0.19306588  0.17455297  0.08147493  1
  O  O96  1  0.68602280  0.16104372  0.75662658  1
  O  O97  1  0.47930086  0.31983882  0.75489048  1
  O  O98  1  0.85188296  0.52839340  0.75747874  1
  O  O99  1  0.68470392  0.50723550  0.23706443  1
  O  O100  1  0.81975062  0.31597087  0.23752099  1
  O  O101  1  0.48781176  0.16829411  0.23822572  1
  O  O102  1  0.64207232  0.50945084  0.91846708  1
  O  O103  1  0.84722262  0.35652367  0.92503897  1
  O  O104  1  0.50634745  0.14916948  0.92427033  1
  O  O105  1  0.62939604  0.14013985  0.41194606  1
  O  O106  1  0.49561175  0.36261943  0.41224844  1
  O  O107  1  0.84835145  0.49837157  0.40917920  1
  O  O108  1  0.37208499  0.51870987  0.07486987  1
  O  O109  1  0.14651429  0.62707396  0.07379615  1
  O  O110  1  0.49177876  0.86071330  0.07575990  1
  O  O111  1  0.35414112  0.85149980  0.58485986  1
  O  O112  1  0.49391014  0.63713435  0.58387719  1
  O  O113  1  0.14495682  0.48790497  0.58606329  1
  O  O114  1  0.32571127  0.84268063  0.24784697  1
  O  O115  1  0.50171784  0.68009863  0.25418259  1
  O  O116  1  0.16856374  0.50012840  0.25164049  1
  O  O117  1  0.29245125  0.48431851  0.76753593  1
  O  O118  1  0.17567045  0.70126663  0.76106048  1
  O  O119  1  0.50792900  0.81608692  0.76406057  1
