# generated using pymatgen
data_Na6Y4Mg4SiS11O48
_symmetry_space_group_name_H-M   'P 1'
_cell_length_a   18.01711572
_cell_length_b   9.00132061
_cell_length_c   23.53859828
_cell_angle_alpha   89.93750460
_cell_angle_beta   89.98684013
_cell_angle_gamma   119.99639472
_symmetry_Int_Tables_number   1
_chemical_formula_structural   Na6Y4Mg4SiS11O48
_chemical_formula_sum   'Na18 Y12 Mg12 Si3 S33 O144'
_cell_volume   3306.11587919
_cell_formula_units_Z   3
loop_
 _symmetry_equiv_pos_site_id
 _symmetry_equiv_pos_as_xyz
  1  'x, y, z'
loop_
 _atom_site_type_symbol
 _atom_site_label
 _atom_site_symmetry_multiplicity
 _atom_site_fract_x
 _atom_site_fract_y
 _atom_site_fract_z
 _atom_site_occupancy
  Na  Na0  1  0.81970959  0.99578571  0.24677287  1
  Na  Na1  1  0.99549750  0.63726154  0.25329950  1
  Na  Na2  1  0.31772619  0.65139804  0.75001806  1
  Na  Na3  1  0.81786046  0.64775767  0.74651309  1
  Na  Na4  1  0.99246048  0.35295844  0.75072508  1
  Na  Na5  1  0.68891944  0.00285790  0.74860553  1
  Na  Na6  1  0.99790783  0.99794612  0.49888300  1
  Na  Na7  1  0.50321745  0.00256247  0.49393238  1
  Na  Na8  1  0.00174413  0.00177340  0.00076864  1
  Na  Na9  1  0.50032189  0.00035349  0.00064877  1
  Na  Na10  1  0.33467654  0.31032019  0.83694700  1
  Na  Na11  1  0.83416012  0.32231140  0.83615718  1
  Na  Na12  1  0.33447667  0.33550500  0.32841436  1
  Na  Na13  1  0.82810130  0.34744270  0.33513127  1
  Na  Na14  1  0.17483073  0.66955612  0.17037214  1
  Na  Na15  1  0.66684182  0.65580502  0.17020104  1
  Na  Na16  1  0.17254138  0.68709321  0.66530069  1
  Na  Na17  1  0.67117389  0.67330469  0.66272083  1
  Y  Y18  1  0.99768277  0.98898834  0.35291708  1
  Y  Y19  1  0.99630196  0.00135314  0.85179513  1
  Y  Y20  1  0.49721057  0.00774884  0.85278187  1
  Y  Y21  1  0.99200482  0.99457706  0.64621465  1
  Y  Y22  1  0.49645630  0.00084016  0.64761584  1
  Y  Y23  1  0.99889790  0.99804373  0.14800052  1
  Y  Y24  1  0.49711089  0.99566648  0.14891449  1
  Y  Y25  1  0.33401041  0.31691750  0.68286703  1
  Y  Y26  1  0.33207974  0.33019881  0.47806744  1
  Y  Y27  1  0.16751975  0.66764525  0.01990282  1
  Y  Y28  1  0.66683565  0.66829129  0.02039071  1
  Y  Y29  1  0.66658479  0.65538750  0.31767573  1
  Mg  Mg30  1  0.49812884  0.99955322  0.35110112  1
  Mg  Mg31  1  0.83360462  0.32213402  0.67701424  1
  Mg  Mg32  1  0.33424113  0.33664169  0.18415654  1
  Mg  Mg33  1  0.82883920  0.34190568  0.18337917  1
  Mg  Mg34  1  0.33300968  0.33289667  0.98322770  1
  Mg  Mg35  1  0.83282386  0.33262787  0.98321964  1
  Mg  Mg36  1  0.83265627  0.33331102  0.48336352  1
  Mg  Mg37  1  0.16523355  0.66476959  0.51463833  1
  Mg  Mg38  1  0.66906446  0.66877058  0.51566227  1
  Mg  Mg39  1  0.17262123  0.67116453  0.31992523  1
  Mg  Mg40  1  0.17229121  0.68666994  0.81857569  1
  Mg  Mg41  1  0.66858128  0.66994745  0.81877178  1
  Si  Si42  1  0.84930055  0.69267625  0.24797415  1
  Si  Si43  1  0.34445954  0.99065150  0.75169618  1
  Si  Si44  1  0.84547468  0.00002389  0.75044391  1
  S  S45  1  0.15333666  0.00141114  0.25017267  1
  S  S46  1  0.64752188  0.00501080  0.25151870  1
  S  S47  1  0.35071608  0.70098503  0.25297172  1
  S  S48  1  0.00223951  0.30438539  0.24992111  1
  S  S49  1  0.49438301  0.28793152  0.25101376  1
  S  S50  1  0.14801487  0.30135355  0.75113093  1
  S  S51  1  0.65132036  0.30387160  0.74997486  1
  S  S52  1  0.00049318  0.69855886  0.74954212  1
  S  S53  1  0.50298861  0.70387315  0.75168115  1
  S  S54  1  0.48791458  0.34558538  0.58014451  1
  S  S55  1  0.98077730  0.34430442  0.58147552  1
  S  S56  1  0.18320925  0.02484276  0.58050746  1
  S  S57  1  0.69018791  0.03896562  0.58186091  1
  S  S58  1  0.32853945  0.62881686  0.58224924  1
  S  S59  1  0.82866680  0.61414036  0.58194628  1
  S  S60  1  0.47349449  0.61434026  0.08317802  1
  S  S61  1  0.97472567  0.61526571  0.08294512  1
  S  S62  1  0.33369525  0.05356160  0.08327478  1
  S  S63  1  0.83396074  0.05360277  0.08362018  1
  S  S64  1  0.19341873  0.33346435  0.08299254  1
  S  S65  1  0.69098971  0.33062838  0.08242718  1
  S  S66  1  0.31212524  0.65541958  0.91591920  1
  S  S67  1  0.81157884  0.65504728  0.91606629  1
  S  S68  1  0.01767582  0.37796683  0.91556528  1
  S  S69  1  0.51844536  0.38073487  0.91645696  1
  S  S70  1  0.17082081  0.96672528  0.91667840  1
  S  S71  1  0.67102059  0.96695581  0.91574509  1
  S  S72  1  0.31233772  0.94912225  0.41550970  1
  S  S73  1  0.81204845  0.96668098  0.42029785  1
  S  S74  1  0.16601931  0.38443723  0.41687171  1
  S  S75  1  0.66627462  0.36506008  0.42065015  1
  S  S76  1  0.02150582  0.65823789  0.41797670  1
  S  S77  1  0.52188384  0.67690052  0.41798023  1
  O  O78  1  0.11358771  0.03174935  0.30079260  1
  O  O79  1  0.60552912  0.02765832  0.30136122  1
  O  O80  1  0.40664540  0.78803531  0.30188158  1
  O  O81  1  0.91087446  0.78440659  0.30351935  1
  O  O82  1  0.48587105  0.18405853  0.30147233  1
  O  O83  1  0.98731254  0.19361764  0.30018741  1
  O  O84  1  0.11147729  0.19093370  0.80143736  1
  O  O85  1  0.61408188  0.18880700  0.80002677  1
  O  O86  1  0.48836798  0.78532271  0.80158738  1
  O  O87  1  0.98512756  0.77832120  0.80022869  1
  O  O88  1  0.40614246  0.02143443  0.80605076  1
  O  O89  1  0.91145729  0.04429250  0.80405051  1
  O  O90  1  0.39067358  0.95896268  0.69604636  1
  O  O91  1  0.88954064  0.95530124  0.69705751  1
  O  O92  1  0.09599190  0.21914680  0.69986865  1
  O  O93  1  0.59793569  0.22315824  0.69930891  1
  O  O94  1  0.01769602  0.80923699  0.69923502  1
  O  O95  1  0.51999469  0.81321550  0.70030741  1
  O  O96  1  0.38869185  0.80538724  0.19995559  1
  O  O97  1  0.89462224  0.82501478  0.19453963  1
  O  O98  1  0.01903516  0.22939823  0.19904491  1
  O  O99  1  0.50884398  0.21164880  0.19892108  1
  O  O100  1  0.09688124  0.96881332  0.19967979  1
  O  O101  1  0.59671969  0.97961042  0.19903668  1
  O  O102  1  0.44839434  0.36687872  0.63286055  1
  O  O103  1  0.94292366  0.36183397  0.63600460  1
  O  O104  1  0.23400766  0.10516962  0.63289740  1
  O  O105  1  0.73733675  0.11542158  0.63628809  1
  O  O106  1  0.31944384  0.53317248  0.63631628  1
  O  O107  1  0.82080834  0.52121276  0.63650048  1
  O  O108  1  0.43398753  0.51659488  0.13517207  1
  O  O109  1  0.93635380  0.51977622  0.13583485  1
  O  O110  1  0.32457078  0.13320282  0.13499746  1
  O  O111  1  0.82501637  0.12984690  0.13706499  1
  O  O112  1  0.24200709  0.35123756  0.13507772  1
  O  O113  1  0.73982350  0.34939265  0.13413226  1
  O  O114  1  0.23380326  0.31704288  0.03113681  1
  O  O115  1  0.73123176  0.31339751  0.03061368  1
  O  O116  1  0.42487954  0.53508920  0.03129390  1
  O  O117  1  0.92430965  0.53197588  0.03190717  1
  O  O118  1  0.34272309  0.15054313  0.03115424  1
  O  O119  1  0.84087099  0.15316407  0.03263490  1
  O  O120  1  0.22609530  0.13754660  0.53133679  1
  O  O121  1  0.73323690  0.14899486  0.53289519  1
  O  O122  1  0.34009098  0.53762899  0.53394698  1
  O  O123  1  0.84004473  0.52822708  0.53272935  1
  O  O124  1  0.43102785  0.31708211  0.53135811  1
  O  O125  1  0.92530745  0.31832462  0.53265400  1
  O  O126  1  0.27143186  0.68345398  0.96644552  1
  O  O127  1  0.77090053  0.68280576  0.96649804  1
  O  O128  1  0.07111519  0.46129289  0.96623776  1
  O  O129  1  0.57050374  0.46096029  0.96808078  1
  O  O130  1  0.15731709  0.86084529  0.96828204  1
  O  O131  1  0.65840632  0.85891100  0.96651143  1
  O  O132  1  0.27226872  0.85087697  0.46773674  1
  O  O133  1  0.76721686  0.85111190  0.46803002  1
  O  O134  1  0.15814747  0.46533789  0.46872934  1
  O  O135  1  0.65347588  0.45328431  0.46923397  1
  O  O136  1  0.07579636  0.68095303  0.46736746  1
  O  O137  1  0.57368127  0.69360246  0.46839006  1
  O  O138  1  0.06007564  0.64223079  0.36384588  1
  O  O139  1  0.55872639  0.64760083  0.36586163  1
  O  O140  1  0.25949754  0.87108628  0.36476197  1
  O  O141  1  0.76549340  0.89361713  0.36543448  1
  O  O142  1  0.17543584  0.48265701  0.36498898  1
  O  O143  1  0.68098832  0.46876371  0.36761817  1
  O  O144  1  0.05903952  0.47681239  0.86316043  1
  O  O145  1  0.56157042  0.48193119  0.86532279  1
  O  O146  1  0.17940266  0.88127761  0.86592217  1
  O  O147  1  0.67932471  0.88376366  0.86360670  1
  O  O148  1  0.26192264  0.63774540  0.86389349  1
  O  O149  1  0.76215648  0.63809870  0.86377748  1
  O  O150  1  0.01391605  0.81827817  0.41519649  1
  O  O151  1  0.51223910  0.83014907  0.41136747  1
  O  O152  1  0.39966585  0.97159656  0.40923819  1
  O  O153  1  0.89909952  0.98308564  0.41574774  1
  O  O154  1  0.08948865  0.20839183  0.41327000  1
  O  O155  1  0.58784882  0.19441110  0.41238693  1
  O  O156  1  0.01036740  0.20453504  0.91342693  1
  O  O157  1  0.51129172  0.20755202  0.91418974  1
  O  O158  1  0.09277276  0.98447826  0.91208954  1
  O  O159  1  0.59327004  0.98474956  0.91229650  1
  O  O160  1  0.39960659  0.81083076  0.91272351  1
  O  O161  1  0.89899985  0.81103335  0.91255145  1
  O  O162  1  0.49519478  0.18857068  0.58528153  1
  O  O163  1  0.99051661  0.18696368  0.58609232  1
  O  O164  1  0.09809245  0.01157944  0.58614179  1
  O  O165  1  0.60262900  0.02025958  0.58699551  1
  O  O166  1  0.40858148  0.79977101  0.58486678  1
  O  O167  1  0.90818595  0.78956967  0.58502550  1
  O  O168  1  0.48494586  0.79159880  0.08686422  1
  O  O169  1  0.98680848  0.79270252  0.08543688  1
  O  O170  1  0.41065719  0.02990888  0.08669158  1
  O  O171  1  0.91188110  0.03430232  0.08525744  1
  O  O172  1  0.10514322  0.18006689  0.08598823  1
  O  O173  1  0.60268485  0.17647361  0.08652897  1
  O  O174  1  0.33647824  0.16346328  0.74765929  1
  O  O175  1  0.83833121  0.17369631  0.74132460  1
  O  O176  1  0.23755826  0.33594624  0.74418390  1
  O  O177  1  0.73870209  0.32546147  0.74179165  1
  O  O178  1  0.42185088  0.53759852  0.74400771  1
  O  O179  1  0.91982643  0.52950054  0.74153492  1
  O  O180  1  0.34278583  0.52914078  0.24490201  1
  O  O181  1  0.84644593  0.51078304  0.24182500  1
  O  O182  1  0.41720764  0.30512311  0.24398450  1
  O  O183  1  0.92173240  0.31198970  0.24184708  1
  O  O184  1  0.23860584  0.15266276  0.24144542  1
  O  O185  1  0.73611907  0.15418022  0.24438005  1
  O  O186  1  0.32023387  0.50095255  0.92297867  1
  O  O187  1  0.82008235  0.50102223  0.92297824  1
  O  O188  1  0.43214591  0.36055805  0.92229916  1
  O  O189  1  0.93153076  0.35867104  0.92207836  1
  O  O190  1  0.24824180  0.13778353  0.92297321  1
  O  O191  1  0.74864876  0.13784837  0.92224356  1
  O  O192  1  0.32202601  0.12600595  0.42021488  1
  O  O193  1  0.82171661  0.13854726  0.42680117  1
  O  O194  1  0.24368739  0.36300849  0.42019985  1
  O  O195  1  0.74373741  0.34805731  0.42722550  1
  O  O196  1  0.43432292  0.52039894  0.42287209  1
  O  O197  1  0.93412306  0.50668302  0.42393733  1
  O  O198  1  0.18247603  0.48887723  0.07958218  1
  O  O199  1  0.68033627  0.48599004  0.07888937  1
  O  O200  1  0.06272700  0.63614823  0.07903762  1
  O  O201  1  0.56212998  0.63749381  0.07956882  1
  O  O202  1  0.25651010  0.87600866  0.07981779  1
  O  O203  1  0.75695470  0.87658742  0.07971162  1
  O  O204  1  0.17601390  0.85572617  0.57407179  1
  O  O205  1  0.68039086  0.86509502  0.57621774  1
  O  O206  1  0.25237774  0.64724727  0.57534148  1
  O  O207  1  0.75282248  0.63692204  0.57648559  1
  O  O208  1  0.06748963  0.49674254  0.57559944  1
  O  O209  1  0.57267031  0.49930043  0.57360333  1
  O  O210  1  0.15645447  0.83930479  0.25802693  1
  O  O211  1  0.65749744  0.84957826  0.25656151  1
  O  O212  1  0.26416378  0.68303654  0.25929892  1
  O  O213  1  0.75773040  0.69034230  0.25317498  1
  O  O214  1  0.07578283  0.48113471  0.25795686  1
  O  O215  1  0.57166739  0.46268675  0.25531671  1
  O  O216  1  0.15086608  0.46809059  0.75882537  1
  O  O217  1  0.65947809  0.47374163  0.75910116  1
  O  O218  1  0.07304189  0.66822711  0.75850279  1
  O  O219  1  0.57784755  0.68202859  0.75955896  1
  O  O220  1  0.25287067  0.81313561  0.75712527  1
  O  O221  1  0.75155747  0.82712075  0.75916718  1
