# generated using pymatgen
data_Na30Mg16Nb8Si15(S7O48)3
_symmetry_space_group_name_H-M   'P 1'
_cell_length_a   17.96860731
_cell_length_b   8.98853276
_cell_length_c   22.33274334
_cell_angle_alpha   89.98759503
_cell_angle_beta   89.83961148
_cell_angle_gamma   119.95454097
_symmetry_Int_Tables_number   1
_chemical_formula_structural   Na30Mg16Nb8Si15(S7O48)3
_chemical_formula_sum   'Na30 Mg16 Nb8 Si15 S21 O144'
_cell_volume   3125.15981984
_cell_formula_units_Z   1
loop_
 _symmetry_equiv_pos_site_id
 _symmetry_equiv_pos_as_xyz
  1  'x, y, z'
loop_
 _atom_site_type_symbol
 _atom_site_label
 _atom_site_symmetry_multiplicity
 _atom_site_fract_x
 _atom_site_fract_y
 _atom_site_fract_z
 _atom_site_occupancy
  Na  Na0  1  0.32390149  0.02246833  0.24721153  1
  Na  Na1  1  0.82410495  0.02187177  0.24786563  1
  Na  Na2  1  0.18550636  0.34745147  0.24794069  1
  Na  Na3  1  0.68372080  0.34733445  0.24700033  1
  Na  Na4  1  0.98841374  0.62720408  0.24857869  1
  Na  Na5  1  0.48735848  0.61826264  0.24032399  1
  Na  Na6  1  0.32295558  0.62565482  0.74893880  1
  Na  Na7  1  0.82593395  0.62836401  0.74972913  1
  Na  Na8  1  0.98735665  0.35469052  0.74219840  1
  Na  Na9  1  0.48679818  0.35410600  0.74145017  1
  Na  Na10  1  0.18288448  0.02188020  0.74817431  1
  Na  Na11  1  0.68487071  0.02239634  0.74814748  1
  Na  Na12  1  0.01325068  0.67780626  0.58997147  1
  Na  Na13  1  0.51348898  0.67794131  0.58931013  1
  Na  Na14  1  0.51347809  0.34723257  0.08612873  1
  Na  Na15  1  0.47866937  0.66470352  0.91854492  1
  Na  Na16  1  0.47914061  0.29288332  0.42085164  1
  Na  Na17  1  0.97864909  0.29185699  0.42221093  1
  Na  Na18  1  0.99826421  0.00504971  0.50071781  1
  Na  Na19  1  0.49903488  0.00551271  0.50017160  1
  Na  Na20  1  0.00054695  0.00092049  0.99230015  1
  Na  Na21  1  0.49777986  0.99122557  0.99683751  1
  Na  Na22  1  0.32645305  0.31892482  0.82726958  1
  Na  Na23  1  0.83586762  0.33713600  0.82838544  1
  Na  Na24  1  0.32887616  0.33501121  0.32739897  1
  Na  Na25  1  0.82607917  0.33292584  0.32894556  1
  Na  Na26  1  0.16689756  0.66584646  0.15378356  1
  Na  Na27  1  0.66566365  0.68185480  0.15298840  1
  Na  Na28  1  0.16519360  0.64940488  0.65520479  1
  Na  Na29  1  0.66574873  0.64984422  0.65448788  1
  Mg  Mg30  1  0.00042367  0.99687370  0.34856481  1
  Mg  Mg31  1  0.50173895  0.99652366  0.34872918  1
  Mg  Mg32  1  0.00139188  0.00320444  0.84948214  1
  Mg  Mg33  1  0.50176572  0.00733642  0.84834288  1
  Mg  Mg34  1  0.33658477  0.33422422  0.68422389  1
  Mg  Mg35  1  0.83704783  0.33366225  0.68410373  1
  Mg  Mg36  1  0.33690356  0.33947818  0.18365859  1
  Mg  Mg37  1  0.83398381  0.33321053  0.18385003  1
  Mg  Mg38  1  0.33162212  0.33995834  0.98555991  1
  Mg  Mg39  1  0.83517395  0.33708087  0.98090637  1
  Mg  Mg40  1  0.33385146  0.32530115  0.48778094  1
  Mg  Mg41  1  0.83330807  0.32423922  0.48809435  1
  Mg  Mg42  1  0.16600282  0.66517379  0.01666591  1
  Mg  Mg43  1  0.66820640  0.67437906  0.01916645  1
  Mg  Mg44  1  0.16741272  0.66218097  0.52002606  1
  Mg  Mg45  1  0.66756171  0.66248205  0.51969406  1
  Nb  Nb46  1  0.99933424  0.01381989  0.65088757  1
  Nb  Nb47  1  0.49873004  0.01285351  0.65114659  1
  Nb  Nb48  1  -0.00002269  -0.00009829  0.15048127  1
  Nb  Nb49  1  0.49917667  0.98492116  0.14982123  1
  Nb  Nb50  1  0.16759960  0.66787848  0.31022805  1
  Nb  Nb51  1  0.66667016  0.66542737  0.30999442  1
  Nb  Nb52  1  0.16404642  0.66753822  0.81123868  1
  Nb  Nb53  1  0.66762688  0.66651828  0.81093494  1
  Si  Si54  1  0.14686231  0.00620405  0.25252880  1
  Si  Si55  1  0.64773854  0.00676143  0.25440273  1
  Si  Si56  1  0.35551166  0.70513619  0.25431840  1
  Si  Si57  1  0.85544384  0.70550319  0.25258310  1
  Si  Si58  1  0.99775642  0.28880760  0.25567391  1
  Si  Si59  1  0.49733097  0.28373149  0.25376023  1
  Si  Si60  1  0.14774523  0.29025473  0.75514341  1
  Si  Si61  1  0.64835446  0.28930989  0.75440054  1
  Si  Si62  1  0.99697957  0.71155290  0.75104042  1
  Si  Si63  1  0.49790540  0.71052405  0.75427308  1
  Si  Si64  1  0.35388730  0.00451373  0.75492160  1
  Si  Si65  1  0.85577601  0.00656297  0.75539475  1
  Si  Si66  1  0.48306362  0.33580389  0.58038695  1
  Si  Si67  1  0.98319665  0.33542256  0.58023761  1
  Si  Si68  1  0.48251662  0.62770987  0.08032011  1
  S  S69  1  0.18441902  0.03763934  0.58276898  1
  S  S70  1  0.68408695  0.03726395  0.58316655  1
  S  S71  1  0.33448458  0.62916181  0.58288845  1
  S  S72  1  0.83431943  0.62907455  0.58271581  1
  S  S73  1  0.98151005  0.63045553  0.08317247  1
  S  S74  1  0.33139424  0.03551073  0.08318207  1
  S  S75  1  0.83671570  0.04302008  0.08294401  1
  S  S76  1  0.18306584  0.33247522  0.08370786  1
  S  S77  1  0.68710445  0.33255013  0.08265712  1
  S  S78  1  0.31157355  0.66480251  0.91817725  1
  S  S79  1  0.81222803  0.66590010  0.92005647  1
  S  S80  1  0.01972014  0.37382119  0.91985314  1
  S  S81  1  0.52016066  0.36926374  0.91922524  1
  S  S82  1  0.16727116  0.96062085  0.91996828  1
  S  S83  1  0.66862725  0.96269189  0.91845945  1
  S  S84  1  0.31080012  0.95654308  0.41852222  1
  S  S85  1  0.81117748  0.95683920  0.41819140  1
  S  S86  1  0.16841753  0.37566016  0.41807938  1
  S  S87  1  0.66859623  0.37501631  0.41843001  1
  S  S88  1  0.02051283  0.67122232  0.41823440  1
  S  S89  1  0.52067864  0.67125783  0.41854491  1
  O  O90  1  0.10756186  0.05271156  0.30799672  1
  O  O91  1  0.61009200  0.05434011  0.31030373  1
  O  O92  1  0.41683313  0.78822232  0.30952921  1
  O  O93  1  0.91763646  0.78678732  0.30776454  1
  O  O94  1  0.48307472  0.17670395  0.31373164  1
  O  O95  1  0.97881388  0.17904204  0.31543994  1
  O  O96  1  0.11012561  0.16733063  0.81105085  1
  O  O97  1  0.61001629  0.16627732  0.81015093  1
  O  O98  1  0.48328115  0.78908166  0.81412978  1
  O  O99  1  0.97913404  0.79770166  0.80663759  1
  O  O100  1  0.41709403  0.04704625  0.80932130  1
  O  O101  1  0.91817885  0.05030123  0.81012239  1
  O  O102  1  0.39775820  0.95874555  0.69499834  1
  O  O103  1  0.89898447  0.95993786  0.69530098  1
  O  O104  1  0.07916004  0.20391737  0.69651780  1
  O  O105  1  0.57917021  0.20379814  0.69628875  1
  O  O106  1  0.02128669  0.83369326  0.68898573  1
  O  O107  1  0.52057414  0.83757336  0.69393460  1
  O  O108  1  0.39890573  0.83727634  0.19457845  1
  O  O109  1  0.89919658  0.84036027  0.19323293  1
  O  O110  1  0.01984216  0.19397979  0.19813041  1
  O  O111  1  0.52045688  0.20332838  0.19343210  1
  O  O112  1  0.07868102  0.95617288  0.19355682  1
  O  O113  1  0.57969218  0.95578208  0.19601860  1
  O  O114  1  0.43757139  0.36015853  0.63936994  1
  O  O115  1  0.93740900  0.35845713  0.63909994  1
  O  O116  1  0.22951221  0.11691160  0.63883634  1
  O  O117  1  0.72930788  0.11662454  0.63904949  1
  O  O118  1  0.32343533  0.53513368  0.63931694  1
  O  O119  1  0.82342899  0.53527555  0.63913046  1
  O  O120  1  0.43878977  0.51652560  0.14052207  1
  O  O121  1  0.94294397  0.53741666  0.13978282  1
  O  O122  1  0.32111745  0.10713162  0.14007699  1
  O  O123  1  0.82802329  0.11851137  0.13964029  1
  O  O124  1  0.22938495  0.34765450  0.13983880  1
  O  O125  1  0.73173504  0.34353921  0.13941597  1
  O  O126  1  0.22440223  0.30824877  0.03090697  1
  O  O127  1  0.73058279  0.31152930  0.03069499  1
  O  O128  1  0.42814672  0.55059410  0.01931155  1
  O  O129  1  0.92822893  0.54365948  0.03109473  1
  O  O130  1  0.34184714  0.14636409  0.03171225  1
  O  O131  1  0.84630495  0.15025459  0.03088117  1
  O  O132  1  0.22611670  0.14458799  0.52965015  1
  O  O133  1  0.72499982  0.14383159  0.52993447  1
  O  O134  1  0.34454239  0.53900833  0.53079326  1
  O  O135  1  0.84404204  0.53820825  0.53066711  1
  O  O136  1  0.42998563  0.30339969  0.51828301  1
  O  O137  1  0.93000144  0.30369552  0.51816510  1
  O  O138  1  0.26523710  0.67417841  0.97058308  1
  O  O139  1  0.76453458  0.67730628  0.97121289  1
  O  O140  1  0.07224162  0.46657393  0.97149130  1
  O  O141  1  0.57008949  0.45771662  0.97284670  1
  O  O142  1  0.16134744  0.85387656  0.97130367  1
  O  O143  1  0.66033162  0.85169372  0.96910351  1
  O  O144  1  0.26337030  0.85283006  0.46980151  1
  O  O145  1  0.76375924  0.85384818  0.46978602  1
  O  O146  1  0.16014888  0.47052091  0.46829881  1
  O  O147  1  0.66074784  0.47077387  0.46848274  1
  O  O148  1  0.07046025  0.68134586  0.47131538  1
  O  O149  1  0.57043782  0.68169511  0.47193362  1
  O  O150  1  0.06896723  0.65421983  0.36313904  1
  O  O151  1  0.56987059  0.65464957  0.36391539  1
  O  O152  1  0.26098185  0.86305813  0.36147016  1
  O  O153  1  0.76212991  0.86382882  0.36116020  1
  O  O154  1  0.17533069  0.47886877  0.36049978  1
  O  O155  1  0.67578001  0.47778018  0.36068136  1
  O  O156  1  0.06613354  0.48156697  0.86341804  1
  O  O157  1  0.56857043  0.48353274  0.86477374  1
  O  O158  1  0.17419208  0.86831886  0.86295880  1
  O  O159  1  0.67599865  0.87422897  0.86131389  1
  O  O160  1  0.26199989  0.65793656  0.86186992  1
  O  O161  1  0.75962926  0.65226455  0.86309598  1
  O  O162  1  0.01323331  0.82557322  0.41309175  1
  O  O163  1  0.51331667  0.82544135  0.41347171  1
  O  O164  1  0.39776065  0.97692851  0.41619772  1
  O  O165  1  0.89819150  0.97683344  0.41628199  1
  O  O166  1  0.08771499  0.20743064  0.41478813  1
  O  O167  1  0.58796744  0.20722794  0.41559518  1
  O  O168  1  0.01306578  0.20475203  0.91558820  1
  O  O169  1  0.51272974  0.20013856  0.91442943  1
  O  O170  1  0.08916580  0.97312112  0.91605986  1
  O  O171  1  0.58819189  0.97010353  0.91562256  1
  O  O172  1  0.39866638  0.81777513  0.91631885  1
  O  O173  1  0.89706015  0.82115867  0.91601991  1
  O  O174  1  0.49232589  0.15551830  0.58970677  1
  O  O175  1  0.99273375  0.15516232  0.58880714  1
  O  O176  1  0.09380135  0.01090519  0.58462869  1
  O  O177  1  0.59300997  0.00872937  0.58558995  1
  O  O178  1  0.41905688  0.79968078  0.58571548  1
  O  O179  1  0.91848212  0.79988567  0.58512456  1
  O  O180  1  0.49238238  0.82810484  0.08957236  1
  O  O181  1  0.98885912  0.80781584  0.08662613  1
  O  O182  1  0.41572860  0.03157063  0.08599428  1
  O  O183  1  0.91875992  0.03041210  0.08654845  1
  O  O184  1  0.09366510  0.17130423  0.08764470  1
  O  O185  1  0.59620009  0.17697653  0.08508636  1
  O  O186  1  0.33091927  0.15171814  0.74221354  1
  O  O187  1  0.83192239  0.15224863  0.74225165  1
  O  O188  1  0.24257309  0.33173156  0.73845905  1
  O  O189  1  0.74332104  0.33208642  0.73814094  1
  O  O190  1  0.42003020  0.51889508  0.74406242  1
  O  O191  1  0.92078892  0.51778347  0.74245927  1
  O  O192  1  0.33201016  0.51141008  0.24235409  1
  O  O193  1  0.83427161  0.51371422  0.23908930  1
  O  O194  1  0.41948627  0.32021990  0.24401234  1
  O  O195  1  0.92252428  0.32852077  0.24040102  1
  O  O196  1  0.24233658  0.15417594  0.23772690  1
  O  O197  1  0.74336620  0.15516080  0.23931224  1
  O  O198  1  0.31784296  0.50557542  0.91674079  1
  O  O199  1  0.81727734  0.50640803  0.92033882  1
  O  O200  1  0.43559374  0.36155100  0.91763034  1
  O  O201  1  0.93483052  0.36342655  0.92012818  1
  O  O202  1  0.24689427  0.12992697  0.92038780  1
  O  O203  1  0.74629190  0.13292664  0.92037734  1
  O  O204  1  0.31634805  0.12711307  0.41598227  1
  O  O205  1  0.81697968  0.12763744  0.41599209  1
  O  O206  1  0.24610079  0.36058705  0.41953477  1
  O  O207  1  0.74635709  0.35983423  0.41995261  1
  O  O208  1  0.43630936  0.50989504  0.41644046  1
  O  O209  1  0.93590323  0.50964422  0.41613288  1
  O  O210  1  0.17024942  0.48296239  0.07819056  1
  O  O211  1  0.67558519  0.48536933  0.07804446  1
  O  O212  1  0.06994974  0.65699168  0.07818265  1
  O  O213  1  0.57871821  0.65088355  0.07667437  1
  O  O214  1  0.25896119  0.85730135  0.07675731  1
  O  O215  1  0.76311539  0.86629059  0.07777779  1
  O  O216  1  0.17401083  0.86276163  0.57748324  1
  O  O217  1  0.67375470  0.86222357  0.57774067  1
  O  O218  1  0.26343287  0.66517109  0.57605478  1
  O  O219  1  0.76296212  0.66458536  0.57593759  1
  O  O220  1  0.07915806  0.50571567  0.57722278  1
  O  O221  1  0.57907535  0.50579514  0.57710728  1
  O  O222  1  0.14880750  0.82106765  0.25951941  1
  O  O223  1  0.65090436  0.82295686  0.26016924  1
  O  O224  1  0.26112961  0.70383840  0.25851027  1
  O  O225  1  0.76083186  0.70078088  0.25819278  1
  O  O226  1  0.08992214  0.47863854  0.25911533  1
  O  O227  1  0.58835437  0.47955016  0.25991038  1
  O  O228  1  0.14984261  0.47911009  0.76097175  1
  O  O229  1  0.65016212  0.47807563  0.76055121  1
  O  O230  1  0.08836413  0.69981553  0.75957779  1
  O  O231  1  0.58910477  0.69753601  0.76067466  1
  O  O232  1  0.25992989  0.81884344  0.76017340  1
  O  O233  1  0.76166367  0.81902653  0.76006316  1
