# generated using pymatgen
data_Na2TaGa3P4(SO12)2
_symmetry_space_group_name_H-M   'P 1'
_cell_length_a   8.57128869
_cell_length_b   8.56620046
_cell_length_c   22.29747626
_cell_angle_alpha   89.93981567
_cell_angle_beta   89.85078699
_cell_angle_gamma   119.94830547
_symmetry_Int_Tables_number   1
_chemical_formula_structural   Na2TaGa3P4(SO12)2
_chemical_formula_sum   'Na6 Ta3 Ga9 P12 S6 O72'
_cell_volume   1418.54663927
_cell_formula_units_Z   3
loop_
 _symmetry_equiv_pos_site_id
 _symmetry_equiv_pos_as_xyz
  1  'x, y, z'
loop_
 _atom_site_type_symbol
 _atom_site_label
 _atom_site_symmetry_multiplicity
 _atom_site_fract_x
 _atom_site_fract_y
 _atom_site_fract_z
 _atom_site_occupancy
  Na  Na0  1  0.99575977  0.99472540  0.49957449  1
  Na  Na1  1  0.00405800  0.00016912  0.99840341  1
  Na  Na2  1  0.66657188  0.33224486  0.82908616  1
  Na  Na3  1  0.67618783  0.33766388  0.33207603  1
  Na  Na4  1  0.32981586  0.65788872  0.16029839  1
  Na  Na5  1  0.33375823  0.66652145  0.66546333  1
  Ta  Ta6  1  0.66441370  0.33969411  0.97858939  1
  Ta  Ta7  1  0.33102308  0.66626843  0.31160037  1
  Ta  Ta8  1  0.33255925  0.66707275  0.81080381  1
  Ga  Ga9  1  0.97921170  0.98790606  0.35153462  1
  Ga  Ga10  1  0.00048999  0.99985513  0.85161407  1
  Ga  Ga11  1  0.00070610  0.00044252  0.65430458  1
  Ga  Ga12  1  0.99864388  0.00193168  0.14550385  1
  Ga  Ga13  1  0.66682460  0.33418485  0.68975861  1
  Ga  Ga14  1  0.67931245  0.35189120  0.18416794  1
  Ga  Ga15  1  0.67562667  0.33303583  0.48008566  1
  Ga  Ga16  1  0.32472200  0.65654931  0.01767916  1
  Ga  Ga17  1  0.33449500  0.67690267  0.51655797  1
  P  P18  1  0.71806995  0.71109695  0.24848932  1
  P  P19  1  0.99048485  0.27763167  0.24907235  1
  P  P20  1  0.28784921  0.28149752  0.74896216  1
  P  P21  1  0.99333608  0.71223378  0.74896661  1
  P  P22  1  0.71893795  0.00666490  0.74897204  1
  P  P23  1  0.96427649  0.63009383  0.08499523  1
  P  P24  1  0.37309948  0.33375565  0.08662168  1
  P  P25  1  0.62460026  0.67792599  0.91814363  1
  P  P26  1  0.04645019  0.37117878  0.91762507  1
  P  P27  1  0.32584954  0.95057736  0.91867888  1
  P  P28  1  0.62521452  0.95948154  0.41923675  1
  P  P29  1  0.04027787  0.67050561  0.41888200  1
  S  S30  1  0.28955318  0.00770968  0.24983424  1
  S  S31  1  0.95957623  0.33298056  0.58326359  1
  S  S32  1  0.37666138  0.04534376  0.58306517  1
  S  S33  1  0.66581586  0.62296020  0.58251104  1
  S  S34  1  0.66456799  0.04189176  0.08499273  1
  S  S35  1  0.33228796  0.37294516  0.41872433  1
  O  O36  1  0.21084266  0.03227877  0.30498526  1
  O  O37  1  0.82614734  0.78602234  0.30608363  1
  O  O38  1  0.96863968  0.17318993  0.30721646  1
  O  O39  1  0.20839497  0.17204822  0.80562526  1
  O  O40  1  0.96343455  0.79134812  0.80568599  1
  O  O41  1  0.82763607  0.03592564  0.80551513  1
  O  O42  1  0.78785364  0.96271532  0.69147545  1
  O  O43  1  0.17538991  0.21283116  0.69166497  1
  O  O44  1  0.03779677  0.82501854  0.69147421  1
  O  O45  1  0.79307687  0.82848967  0.19304725  1
  O  O46  1  0.03705776  0.20675815  0.19341851  1
  O  O47  1  0.17930772  0.96641127  0.19620189  1
  O  O48  1  0.87827871  0.36525687  0.63682145  1
  O  O49  1  0.48836758  0.12581254  0.63680576  1
  O  O50  1  0.63538983  0.51167346  0.63666260  1
  O  O51  1  0.88366663  0.51076843  0.14034872  1
  O  O52  1  0.63601246  0.12367237  0.13895066  1
  O  O53  1  0.49033564  0.36122622  0.14155955  1
  O  O54  1  0.46587966  0.30507955  0.02916733  1
  O  O55  1  0.84063874  0.53362198  0.02871798  1
  O  O56  1  0.69218166  0.15569558  0.03002460  1
  O  O57  1  0.45783026  0.15479053  0.52804091  1
  O  O58  1  0.69471536  0.54122180  0.52766121  1
  O  O59  1  0.84961257  0.30209943  0.52839552  1
  O  O60  1  0.53956390  0.70167176  0.97438213  1
  O  O61  1  0.15673230  0.45316201  0.97356721  1
  O  O62  1  0.30092185  0.83964401  0.97441484  1
  O  O63  1  0.54308899  0.83984558  0.47450892  1
  O  O64  1  0.30063421  0.45445070  0.47212664  1
  O  O65  1  0.15571858  0.69922964  0.47436003  1
  O  O66  1  0.13210997  0.63776234  0.36231584  1
  O  O67  1  0.50493770  0.86523374  0.36252067  1
  O  O68  1  0.36226032  0.48868051  0.36351847  1
  O  O69  1  0.12988281  0.49364282  0.86130657  1
  O  O70  1  0.36303215  0.86821281  0.86162757  1
  O  O71  1  0.50489062  0.63792419  0.86155379  1
  O  O72  1  0.02918962  0.84139553  0.40923792  1
  O  O73  1  0.81215118  0.98025335  0.41167793  1
  O  O74  1  0.17315529  0.19594269  0.41016335  1
  O  O75  1  0.02214442  0.18563386  0.90931919  1
  O  O76  1  0.16522314  0.97629969  0.91023731  1
  O  O77  1  0.81192916  0.83609977  0.91011344  1
  O  O78  1  0.97749256  0.17033208  0.58890282  1
  O  O79  1  0.19514157  0.02562761  0.58836060  1
  O  O80  1  0.82803252  0.80403859  0.58786422  1
  O  O81  1  0.97168195  0.81202285  0.08926857  1
  O  O82  1  0.83021117  0.03017772  0.08777854  1
  O  O83  1  0.18831151  0.16193943  0.08955955  1
  O  O84  1  0.69008982  0.16867041  0.74188363  1
  O  O85  1  0.47842636  0.30995167  0.74196670  1
  O  O86  1  0.83160880  0.52164739  0.74205205  1
  O  O87  1  0.68544419  0.51871016  0.24384083  1
  O  O88  1  0.82676726  0.30361463  0.24301611  1
  O  O89  1  0.47215554  0.16025446  0.24378208  1
  O  O90  1  0.63842029  0.50089092  0.92349066  1
  O  O91  1  0.85765017  0.35762705  0.92435994  1
  O  O92  1  0.50181753  0.13963665  0.92464836  1
  O  O93  1  0.63439971  0.14301775  0.42355639  1
  O  O94  1  0.49768848  0.36220436  0.42314620  1
  O  O95  1  0.85416063  0.49926753  0.42332427  1
  O  O96  1  0.36081398  0.50434741  0.07779414  1
  O  O97  1  0.14982095  0.64864916  0.07656157  1
  O  O98  1  0.50480152  0.86407279  0.07815314  1
  O  O99  1  0.35917500  0.86256707  0.57786587  1
  O  O100  1  0.50018480  0.63891062  0.57652290  1
  O  O101  1  0.14155809  0.49715639  0.57646352  1
  O  O102  1  0.30804971  0.83847229  0.25708003  1
  O  O103  1  0.52514486  0.69199225  0.25862347  1
  O  O104  1  0.16347149  0.47309309  0.25890573  1
  O  O105  1  0.30921271  0.47458852  0.75693568  1
  O  O106  1  0.16518449  0.69122310  0.75675801  1
  O  O107  1  0.52594013  0.83483251  0.75689363  1
