# generated using pymatgen
data_Ti3Zn2O8
_symmetry_space_group_name_H-M   'P 1'
_cell_length_a   8.38757391
_cell_length_b   8.38757391
_cell_length_c   8.38757391
_cell_angle_alpha   90.00000000
_cell_angle_beta   90.00000000
_cell_angle_gamma   90.00000000
_symmetry_Int_Tables_number   1
_chemical_formula_structural   Ti3Zn2O8
_chemical_formula_sum   'Ti12 Zn8 O32'
_cell_volume   590.07753442
_cell_formula_units_Z   4
loop_
 _symmetry_equiv_pos_site_id
 _symmetry_equiv_pos_as_xyz
  1  'x, y, z'
loop_
 _atom_site_type_symbol
 _atom_site_label
 _atom_site_symmetry_multiplicity
 _atom_site_fract_x
 _atom_site_fract_y
 _atom_site_fract_z
 _atom_site_occupancy
  Ti  Ti0  1  0.62500000  0.13604442  0.11395558  1
  Ti  Ti1  1  0.61395558  0.87500000  0.86395558  1
  Ti  Ti2  1  0.63604442  0.38604442  0.37500000  1
  Ti  Ti3  1  0.36395558  0.88604442  0.12500000  1
  Ti  Ti4  1  0.88604442  0.12500000  0.36395558  1
  Ti  Ti5  1  0.11395558  0.62500000  0.13604442  1
  Ti  Ti6  1  0.38604442  0.37500000  0.63604442  1
  Ti  Ti7  1  0.86395558  0.61395558  0.87500000  1
  Ti  Ti8  1  0.13604442  0.11395558  0.62500000  1
  Ti  Ti9  1  0.37500000  0.63604442  0.38604442  1
  Ti  Ti10  1  0.87500000  0.86395558  0.61395558  1
  Ti  Ti11  1  0.12500000  0.36395558  0.88604442  1
  Zn  Zn12  1  0.25521417  0.25521417  0.25521417  1
  Zn  Zn13  1  0.00521417  0.49478583  0.50521417  1
  Zn  Zn14  1  0.49478583  0.50521417  0.00521417  1
  Zn  Zn15  1  0.50521417  0.00521417  0.49478583  1
  Zn  Zn16  1  0.75521417  0.24478583  0.74478583  1
  Zn  Zn17  1  0.24478583  0.74478583  0.75521417  1
  Zn  Zn18  1  0.74478583  0.75521417  0.24478583  1
  Zn  Zn19  1  0.99478583  0.99478583  0.99478583  1
  O  O20  1  0.11012423  0.14346439  0.85862680  1
  O  O21  1  0.61012423  0.35653561  0.14137320  1
  O  O22  1  0.14346439  0.85862680  0.11012423  1
  O  O23  1  0.85653561  0.35862680  0.38987577  1
  O  O24  1  0.85862680  0.11012423  0.14346439  1
  O  O25  1  0.64137320  0.88987577  0.64346439  1
  O  O26  1  0.36012423  0.60862680  0.60653561  1
  O  O27  1  0.86012423  0.89137320  0.39346439  1
  O  O28  1  0.63987577  0.10862680  0.89346439  1
  O  O29  1  0.89137320  0.39346439  0.86012423  1
  O  O30  1  0.89346439  0.63987577  0.10862680  1
  O  O31  1  0.39346439  0.86012423  0.89137320  1
  O  O32  1  0.60862680  0.60653561  0.36012423  1
  O  O33  1  0.60653561  0.36012423  0.60862680  1
  O  O34  1  0.10862680  0.89346439  0.63987577  1
  O  O35  1  0.39137320  0.10653561  0.13987577  1
  O  O36  1  0.10653561  0.13987577  0.39137320  1
  O  O37  1  0.14137320  0.61012423  0.35653561  1
  O  O38  1  0.35862680  0.38987577  0.85653561  1
  O  O39  1  0.64346439  0.64137320  0.88987577  1
  O  O40  1  0.39088306  0.39088306  0.39088306  1
  O  O41  1  0.14088306  0.35911694  0.64088306  1
  O  O42  1  0.64088306  0.14088306  0.35911694  1
  O  O43  1  0.35911694  0.64088306  0.14088306  1
  O  O44  1  0.10911694  0.60911694  0.89088306  1
  O  O45  1  0.89088306  0.10911694  0.60911694  1
  O  O46  1  0.60911694  0.89088306  0.10911694  1
  O  O47  1  0.85911694  0.85911694  0.85911694  1
  O  O48  1  0.13987577  0.39137320  0.10653561  1
  O  O49  1  0.88987577  0.64346439  0.64137320  1
  O  O50  1  0.38987577  0.85653561  0.35862680  1
  O  O51  1  0.35653561  0.14137320  0.61012423  1
