# generated using pymatgen
data_Na4AlSi2GePO12
_symmetry_space_group_name_H-M   'P 1'
_cell_length_a   8.75710823
_cell_length_b   8.75710796
_cell_length_c   21.60223849
_cell_angle_alpha   90.69443950
_cell_angle_beta   89.30556044
_cell_angle_gamma   120.07824989
_symmetry_Int_Tables_number   1
_chemical_formula_structural   Na4AlSi2GePO12
_chemical_formula_sum   'Na24 Al6 Si12 Ge6 P6 O72'
_cell_volume   1433.39315983
_cell_formula_units_Z   6
loop_
 _symmetry_equiv_pos_site_id
 _symmetry_equiv_pos_as_xyz
  1  'x, y, z'
loop_
 _atom_site_type_symbol
 _atom_site_label
 _atom_site_symmetry_multiplicity
 _atom_site_fract_x
 _atom_site_fract_y
 _atom_site_fract_z
 _atom_site_occupancy
  Na  Na0  1  0.63685305  0.00175832  0.25055242  1
  Na  Na1  1  0.36812529  0.36739757  0.24801929  1
  Na  Na2  1  0.99494238  0.62882843  0.25008049  1
  Na  Na3  1  0.63260243  0.63187471  0.74801929  1
  Na  Na4  1  0.99824168  0.36314695  0.75055242  1
  Na  Na5  1  0.37117157  0.00505762  0.75008049  1
  Na  Na6  1  0.30352005  0.33509132  0.58388542  1
  Na  Na7  1  0.03479229  0.70073057  0.58135229  1
  Na  Na8  1  0.66160938  0.96216143  0.58341349  1
  Na  Na9  1  0.29926943  0.96520771  0.08135229  1
  Na  Na10  1  0.66490868  0.69647995  0.08388542  1
  Na  Na11  1  0.03783857  0.33839062  0.08341349  1
  Na  Na12  1  0.97018605  0.66842532  0.91721942  1
  Na  Na13  1  0.70145829  0.03406457  0.91468629  1
  Na  Na14  1  0.32827538  0.29549543  0.91674749  1
  Na  Na15  1  0.96593543  0.29854171  0.41468629  1
  Na  Na16  1  0.33157468  0.02981395  0.41721942  1
  Na  Na17  1  0.70450457  0.67172462  0.41674749  1
  Na  Na18  1  0.99788232  0.99603977  0.49876420  1
  Na  Na19  1  0.00396023  0.00211768  0.99876420  1
  Na  Na20  1  0.66454932  0.32937277  0.83209720  1
  Na  Na21  1  0.67062723  0.33545068  0.33209720  1
  Na  Na22  1  0.33121532  0.66270677  0.16543120  1
  Na  Na23  1  0.33729323  0.66878468  0.66543120  1
  Al  Al24  1  0.99041658  0.99377493  0.35278124  1
  Al  Al25  1  0.00622507  0.00958342  0.85278124  1
  Al  Al26  1  0.65708358  0.32710793  0.68611424  1
  Al  Al27  1  0.67289207  0.34291642  0.18611424  1
  Al  Al28  1  0.32374958  0.66044193  0.01944824  1
  Al  Al29  1  0.33955807  0.67625042  0.51944824  1
  Si  Si30  1  0.71088189  0.70987911  0.25100007  1
  Si  Si31  1  0.99743744  0.28755168  0.25170864  1
  Si  Si32  1  0.29012089  0.28911811  0.75100007  1
  Si  Si33  1  0.71244832  0.00256256  0.75170864  1
  Si  Si34  1  0.37754889  0.04321211  0.58433307  1
  Si  Si35  1  0.66410444  0.62088468  0.58504164  1
  Si  Si36  1  0.95678789  0.62245111  0.08433307  1
  Si  Si37  1  0.37911532  0.33589556  0.08504164  1
  Si  Si38  1  0.04421489  0.37654611  0.91766707  1
  Si  Si39  1  0.33077044  0.95421868  0.91837564  1
  Si  Si40  1  0.62345389  0.95578511  0.41766707  1
  Si  Si41  1  0.04578132  0.66922956  0.41837564  1
  Ge  Ge42  1  0.99860624  0.99777564  0.64855925  1
  Ge  Ge43  1  0.00222436  0.00139376  0.14855925  1
  Ge  Ge44  1  0.66527324  0.33110864  0.98189225  1
  Ge  Ge45  1  0.66889136  0.33472676  0.48189225  1
  Ge  Ge46  1  0.33193924  0.66444264  0.31522625  1
  Ge  Ge47  1  0.33555736  0.66806076  0.81522625  1
  P  P48  1  0.28854789  0.00142921  0.25114296  1
  P  P49  1  0.99857079  0.71145211  0.75114296  1
  P  P50  1  0.95521489  0.33476221  0.58447596  1
  P  P51  1  0.66523779  0.04478511  0.08447596  1
  P  P52  1  0.62188089  0.66809621  0.91780996  1
  P  P53  1  0.33190379  0.37811911  0.41780996  1
  O  O54  1  0.20510678  0.03652058  0.30794270  1
  O  O55  1  0.83707938  0.79658851  0.30983310  1
  O  O56  1  0.96712972  0.16465002  0.31073494  1
  O  O57  1  0.20341150  0.16292062  0.80983310  1
  O  O58  1  0.96347942  0.79489322  0.80794270  1
  O  O59  1  0.83534998  0.03287028  0.81073494  1
  O  O60  1  0.79459098  0.95627893  0.68908396  1
  O  O61  1  0.16155061  0.20553913  0.68916534  1
  O  O62  1  0.04041452  0.82964065  0.69206400  1
  O  O63  1  0.79446087  0.83844939  0.18916534  1
  O  O64  1  0.04372107  0.20540902  0.18908396  1
  O  O65  1  0.17035935  0.95958548  0.19206400  1
  O  O66  1  0.87177378  0.36985358  0.64127570  1
  O  O67  1  0.50374638  0.12992151  0.64316610  1
  O  O68  1  0.63379672  0.49798302  0.64406794  1
  O  O69  1  0.87007850  0.49625362  0.14316610  1
  O  O70  1  0.63014642  0.12822622  0.14127570  1
  O  O71  1  0.50201698  0.36620328  0.14406794  1
  O  O72  1  0.46125798  0.28961193  0.02241696  1
  O  O73  1  0.82821761  0.53887213  0.02249834  1
  O  O74  1  0.70708152  0.16297365  0.02539700  1
  O  O75  1  0.46112787  0.17178239  0.52249834  1
  O  O76  1  0.71038807  0.53874202  0.52241696  1
  O  O77  1  0.83702635  0.29291848  0.52539700  1
  O  O78  1  0.53843978  0.70318758  0.97460970  1
  O  O79  1  0.17041238  0.46325551  0.97650010  1
  O  O80  1  0.30046272  0.83131702  0.97740194  1
  O  O81  1  0.53674450  0.82958762  0.47650010  1
  O  O82  1  0.29681242  0.46156022  0.47460970  1
  O  O83  1  0.16868298  0.69953728  0.47740194  1
  O  O84  1  0.12792398  0.62294593  0.35575096  1
  O  O85  1  0.49488361  0.87220613  0.35583234  1
  O  O86  1  0.37374752  0.49630765  0.35873100  1
  O  O87  1  0.12779387  0.50511639  0.85583234  1
  O  O88  1  0.37705407  0.87207602  0.85575096  1
  O  O89  1  0.50369235  0.62625248  0.85873100  1
  O  O90  1  0.02793770  0.84430911  0.40963145  1
  O  O91  1  0.81989946  0.98103308  0.41044869  1
  O  O92  1  0.16928221  0.19264978  0.40972420  1
  O  O93  1  0.01896692  0.18010054  0.91044869  1
  O  O94  1  0.15569089  0.97206230  0.90963145  1
  O  O95  1  0.80735022  0.83071779  0.90972420  1
  O  O96  1  0.97271658  0.16577202  0.58825919  1
  O  O97  1  0.17919696  0.02552106  0.59063927  1
  O  O98  1  0.84454803  0.82020846  0.58986458  1
  O  O99  1  0.97447894  0.82080304  0.09063927  1
  O  O100  1  0.83422798  0.02728342  0.08825919  1
  O  O101  1  0.17979154  0.15545197  0.08986458  1
  O  O102  1  0.69460470  0.17764211  0.74296445  1
  O  O103  1  0.48656646  0.31436608  0.74378169  1
  O  O104  1  0.83594921  0.52598278  0.74305720  1
  O  O105  1  0.68563392  0.51343354  0.24378169  1
  O  O106  1  0.82235789  0.30539530  0.24296445  1
  O  O107  1  0.47401722  0.16405079  0.24305720  1
  O  O108  1  0.63938358  0.49910502  0.92159219  1
  O  O109  1  0.84586396  0.35885406  0.92397227  1
  O  O110  1  0.51121503  0.15354146  0.92319758  1
  O  O111  1  0.64114594  0.15413604  0.42397227  1
  O  O112  1  0.50089498  0.36061642  0.42159219  1
  O  O113  1  0.84645854  0.48878497  0.42319758  1
  O  O114  1  0.36127070  0.51097611  0.07629845  1
  O  O115  1  0.15323246  0.64770008  0.07711569  1
  O  O116  1  0.50261521  0.85931678  0.07639120  1
  O  O117  1  0.35229992  0.84676754  0.57711569  1
  O  O118  1  0.48902389  0.63872930  0.57629845  1
  O  O119  1  0.14068322  0.49738479  0.57639120  1
  O  O120  1  0.30604958  0.83243902  0.25492619  1
  O  O121  1  0.51252996  0.69218806  0.25730627  1
  O  O122  1  0.17788103  0.48687546  0.25653158  1
  O  O123  1  0.30781194  0.48747004  0.75730627  1
  O  O124  1  0.16756098  0.69395042  0.75492619  1
  O  O125  1  0.51312454  0.82211897  0.75653158  1
