# generated using pymatgen
data_Sr2MgZnMoO6
_symmetry_space_group_name_H-M   'P 1'
_cell_length_a   5.96842585
_cell_length_b   5.96842624
_cell_length_c   6.37697022
_cell_angle_alpha   62.09757256
_cell_angle_beta   62.09756993
_cell_angle_gamma   59.99999662
_symmetry_Int_Tables_number   1
_chemical_formula_structural   Sr2MgZnMoO6
_chemical_formula_sum   'Sr2 Mg1 Zn1 Mo1 O6'
_cell_volume   165.53277005
_cell_formula_units_Z   1
loop_
 _symmetry_equiv_pos_site_id
 _symmetry_equiv_pos_as_xyz
  1  'x, y, z'
loop_
 _atom_site_type_symbol
 _atom_site_label
 _atom_site_symmetry_multiplicity
 _atom_site_fract_x
 _atom_site_fract_y
 _atom_site_fract_z
 _atom_site_occupancy
  Sr  Sr0  1  0.21880044  0.21880044  0.34360169  1
  Sr  Sr1  1  0.80703778  0.80703678  0.57888867  1
  Mg  Mg2  1  0.58519074  0.58519074  0.24442678  1
  Zn  Zn3  1  0.41541138  0.41541038  0.75376686  1
  Mo  Mo4  1  0.01222346  0.01222346  0.96332962  1
  O  O5  1  0.25264069  0.79051119  0.70420642  1
  O  O6  1  0.23928187  0.77860788  0.20350237  1
  O  O7  1  0.79051119  0.25264169  0.70420642  1
  O  O8  1  0.25263969  0.25264169  0.70420842  1
  O  O9  1  0.77860788  0.23928287  0.20350237  1
  O  O10  1  0.77860788  0.77860788  0.20350237  1
