# generated using pymatgen
data_MgMn3NiO8
_symmetry_space_group_name_H-M   'P 1'
_cell_length_a   5.89879366
_cell_length_b   5.89882195
_cell_length_c   5.93497619
_cell_angle_alpha   60.20195674
_cell_angle_beta   60.20143486
_cell_angle_gamma   59.99992069
_symmetry_Int_Tables_number   1
_chemical_formula_structural   MgMn3NiO8
_chemical_formula_sum   'Mg1 Mn3 Ni1 O8'
_cell_volume   146.47027987
_cell_formula_units_Z   1
loop_
 _symmetry_equiv_pos_site_id
 _symmetry_equiv_pos_as_xyz
  1  'x, y, z'
loop_
 _atom_site_type_symbol
 _atom_site_label
 _atom_site_symmetry_multiplicity
 _atom_site_fract_x
 _atom_site_fract_y
 _atom_site_fract_z
 _atom_site_occupancy
  Mg  Mg0  1  0.00000000  0.00000000  0.50000000  1
  Mn  Mn1  1  0.50000000  0.00000000  0.50000000  1
  Mn  Mn2  1  0.50000000  0.50000000  0.50000000  1
  Mn  Mn3  1  0.00000000  0.50000000  0.50000000  1
  Ni  Ni4  1  0.50000000  0.50000000  0.00000000  1
  O  O5  1  0.24874700  0.24874400  0.29008200  1
  O  O6  1  0.71242700  0.24874300  0.29008300  1
  O  O7  1  0.24874400  0.71242700  0.29008400  1
  O  O8  1  0.26593000  0.26593300  0.70220900  1
  O  O9  1  0.73407000  0.73406700  0.29779100  1
  O  O10  1  0.75125600  0.28757300  0.70991600  1
  O  O11  1  0.28757300  0.75125700  0.70991700  1
  O  O12  1  0.75125300  0.75125600  0.70991800  1
