# generated using pymatgen
data_Na4HfGaSi2PO12
_symmetry_space_group_name_H-M   'P 1'
_cell_length_a   9.03213588
_cell_length_b   9.03213557
_cell_length_c   22.37969938
_cell_angle_alpha   89.39001455
_cell_angle_beta   90.60998544
_cell_angle_gamma   119.40718328
_symmetry_Int_Tables_number   1
_chemical_formula_structural   Na4HfGaSi2PO12
_chemical_formula_sum   'Na24 Hf6 Ga6 Si12 P6 O72'
_cell_volume   1590.36280703
_cell_formula_units_Z   6
loop_
 _symmetry_equiv_pos_site_id
 _symmetry_equiv_pos_as_xyz
  1  'x, y, z'
loop_
 _atom_site_type_symbol
 _atom_site_label
 _atom_site_symmetry_multiplicity
 _atom_site_fract_x
 _atom_site_fract_y
 _atom_site_fract_z
 _atom_site_occupancy
  Na  Na0  1  0.63974322  0.00559354  0.24996510  1
  Na  Na1  1  0.37007910  0.36637372  0.24680348  1
  Na  Na2  1  0.99081278  0.62642428  0.24950435  1
  Na  Na3  1  0.63362628  0.62992090  0.74680348  1
  Na  Na4  1  0.99440646  0.36025678  0.74996510  1
  Na  Na5  1  0.37357572  0.00918722  0.74950435  1
  Na  Na6  1  0.30641022  0.33892654  0.58329810  1
  Na  Na7  1  0.03674610  0.69970672  0.58013648  1
  Na  Na8  1  0.65747978  0.95975728  0.58283735  1
  Na  Na9  1  0.30029328  0.96325390  0.08013648  1
  Na  Na10  1  0.66107346  0.69358978  0.08329810  1
  Na  Na11  1  0.04024272  0.34252022  0.08283735  1
  Na  Na12  1  0.97307622  0.67226054  0.91663210  1
  Na  Na13  1  0.70341210  0.03304072  0.91347048  1
  Na  Na14  1  0.32414578  0.29309128  0.91617135  1
  Na  Na15  1  0.96695928  0.29658790  0.41347048  1
  Na  Na16  1  0.32773946  0.02692378  0.41663210  1
  Na  Na17  1  0.70690872  0.67585422  0.41617135  1
  Na  Na18  1  0.99807183  0.99437454  0.49693504  1
  Na  Na19  1  0.00562546  0.00192817  0.99693504  1
  Na  Na20  1  0.66473883  0.32770754  0.83026804  1
  Na  Na21  1  0.67229246  0.33526117  0.33026804  1
  Na  Na22  1  0.33140483  0.66104154  0.16360204  1
  Na  Na23  1  0.33895846  0.66859517  0.66360204  1
  Hf  Hf24  1  0.99835076  0.99978416  0.64827675  1
  Hf  Hf25  1  0.00021584  0.00164924  0.14827675  1
  Hf  Hf26  1  0.66501776  0.33311716  0.98160975  1
  Hf  Hf27  1  0.66688284  0.33498224  0.48160975  1
  Hf  Hf28  1  0.33168376  0.66645116  0.31494375  1
  Hf  Hf29  1  0.33354884  0.66831624  0.81494375  1
  Ga  Ga30  1  0.98356675  0.98886356  0.35008494  1
  Ga  Ga31  1  0.01113644  0.01643325  0.85008494  1
  Ga  Ga32  1  0.65023375  0.32219656  0.68341794  1
  Ga  Ga33  1  0.67780344  0.34976625  0.18341794  1
  Ga  Ga34  1  0.31689975  0.65553056  0.01675194  1
  Ga  Ga35  1  0.34446944  0.68310025  0.51675194  1
  Si  Si36  1  0.70757920  0.70409606  0.25046570  1
  Si  Si37  1  0.99491908  0.28961836  0.25090084  1
  Si  Si38  1  0.29590394  0.29242080  0.75046570  1
  Si  Si39  1  0.71038164  0.00508092  0.75090084  1
  Si  Si40  1  0.37424620  0.03742906  0.58379870  1
  Si  Si41  1  0.66158608  0.62295136  0.58423384  1
  Si  Si42  1  0.96257094  0.62575380  0.08379870  1
  Si  Si43  1  0.37704864  0.33841392  0.08423384  1
  Si  Si44  1  0.04091220  0.37076306  0.91713270  1
  Si  Si45  1  0.32825208  0.95628536  0.91756784  1
  Si  Si46  1  0.62923694  0.95908780  0.41713270  1
  Si  Si47  1  0.04371464  0.67174792  0.41756784  1
  P  P48  1  0.29287554  0.00410888  0.25185074  1
  P  P49  1  0.99589112  0.70712446  0.75185074  1
  P  P50  1  0.95954254  0.33744188  0.58518374  1
  P  P51  1  0.66255812  0.04045746  0.08518374  1
  P  P52  1  0.62620854  0.67077588  0.91851774  1
  P  P53  1  0.32922412  0.37379146  0.41851774  1
  O  O54  1  0.21076974  0.03470976  0.30666408  1
  O  O55  1  0.82926557  0.78763983  0.30877019  1
  O  O56  1  0.96621411  0.16996989  0.30978640  1
  O  O57  1  0.21236017  0.17073443  0.80877019  1
  O  O58  1  0.96529024  0.78923026  0.80666408  1
  O  O59  1  0.83003011  0.03378589  0.80978640  1
  O  O60  1  0.79204840  0.96461942  0.69229203  1
  O  O61  1  0.17274813  0.20778361  0.69191499  1
  O  O62  1  0.03183272  0.82193278  0.69535979  1
  O  O63  1  0.79221639  0.82725187  0.19191499  1
  O  O64  1  0.03538058  0.20795160  0.19229203  1
  O  O65  1  0.17806722  0.96816728  0.19535979  1
  O  O66  1  0.87743674  0.36804276  0.63999708  1
  O  O67  1  0.49593257  0.12097283  0.64210319  1
  O  O68  1  0.63288111  0.50330289  0.64311940  1
  O  O69  1  0.87902717  0.50406743  0.14210319  1
  O  O70  1  0.63195724  0.12256326  0.13999708  1
  O  O71  1  0.49669711  0.36711889  0.14311940  1
  O  O72  1  0.45871540  0.29795242  0.02562503  1
  O  O73  1  0.83941513  0.54111661  0.02524799  1
  O  O74  1  0.69849972  0.15526578  0.02869279  1
  O  O75  1  0.45888339  0.16058487  0.52524799  1
  O  O76  1  0.70204758  0.54128460  0.52562503  1
  O  O77  1  0.84473422  0.30150028  0.52869279  1
  O  O78  1  0.54410274  0.70137676  0.97333108  1
  O  O79  1  0.16259857  0.45430683  0.97543719  1
  O  O80  1  0.29954711  0.83663689  0.97645340  1
  O  O81  1  0.54569317  0.83740143  0.47543719  1
  O  O82  1  0.29862324  0.45589726  0.47333108  1
  O  O83  1  0.16336311  0.70045289  0.47645340  1
  O  O84  1  0.12538140  0.63128642  0.35895903  1
  O  O85  1  0.50608113  0.87445061  0.35858199  1
  O  O86  1  0.36516572  0.48859978  0.36202679  1
  O  O87  1  0.12554939  0.49391887  0.85858199  1
  O  O88  1  0.36871358  0.87461860  0.85895903  1
  O  O89  1  0.51140022  0.63483428  0.86202679  1
  O  O90  1  0.02908142  0.84544281  0.41032344  1
  O  O91  1  0.81962924  0.98017011  0.41175577  1
  O  O92  1  0.17433174  0.19586632  0.41087486  1
  O  O93  1  0.01982989  0.18037076  0.91175577  1
  O  O94  1  0.15455719  0.97091858  0.91032344  1
  O  O95  1  0.80413368  0.82566826  0.91087486  1
  O  O96  1  0.97461758  0.17231896  0.58932312  1
  O  O97  1  0.18525298  0.02196816  0.58916043  1
  O  O98  1  0.83263040  0.81276152  0.58898797  1
  O  O99  1  0.97803184  0.81474702  0.08916043  1
  O  O100  1  0.82768104  0.02538242  0.08932312  1
  O  O101  1  0.18723848  0.16736960  0.08898797  1
  O  O102  1  0.69574842  0.17877581  0.74365644  1
  O  O103  1  0.48629624  0.31350311  0.74508877  1
  O  O104  1  0.84099874  0.52919932  0.74420786  1
  O  O105  1  0.68649689  0.51370376  0.24508877  1
  O  O106  1  0.82122419  0.30425158  0.24365644  1
  O  O107  1  0.47080068  0.15900126  0.24420786  1
  O  O108  1  0.64128458  0.50565196  0.92265612  1
  O  O109  1  0.85191998  0.35530116  0.92249343  1
  O  O110  1  0.49929740  0.14609452  0.92232097  1
  O  O111  1  0.64469884  0.14808002  0.42249343  1
  O  O112  1  0.49434804  0.35871542  0.42265612  1
  O  O113  1  0.85390548  0.50070260  0.42232097  1
  O  O114  1  0.36241442  0.51210981  0.07699044  1
  O  O115  1  0.15296224  0.64683711  0.07842277  1
  O  O116  1  0.50766474  0.86253332  0.07754186  1
  O  O117  1  0.35316289  0.84703776  0.57842277  1
  O  O118  1  0.48789019  0.63758558  0.57699044  1
  O  O119  1  0.13746668  0.49233526  0.57754186  1
  O  O120  1  0.30795058  0.83898596  0.25599012  1
  O  O121  1  0.51858598  0.68863516  0.25582743  1
  O  O122  1  0.16596340  0.47942852  0.25565497  1
  O  O123  1  0.31136484  0.48141402  0.75582743  1
  O  O124  1  0.16101404  0.69204942  0.75599012  1
  O  O125  1  0.52057148  0.83403660  0.75565497  1
