# generated using pymatgen
data_Na3YZnP2SO12
_symmetry_space_group_name_H-M   'P 1'
_cell_length_a   9.21878361
_cell_length_b   9.21654498
_cell_length_c   22.93453381
_cell_angle_alpha   88.62694594
_cell_angle_beta   90.00000000
_cell_angle_gamma   120.00803512
_symmetry_Int_Tables_number   1
_chemical_formula_structural   Na3YZnP2SO12
_chemical_formula_sum   'Na18 Y6 Zn6 P12 S6 O72'
_cell_volume   1686.78921084
_cell_formula_units_Z   6
loop_
 _symmetry_equiv_pos_site_id
 _symmetry_equiv_pos_as_xyz
  1  'x, y, z'
loop_
 _atom_site_type_symbol
 _atom_site_label
 _atom_site_symmetry_multiplicity
 _atom_site_fract_x
 _atom_site_fract_y
 _atom_site_fract_z
 _atom_site_occupancy
  Na  Na0  1  0.35690619  0.35187987  0.24347526  1
  Na  Na1  1  0.99777025  0.62806897  0.24260247  1
  Na  Na2  1  0.63029872  0.62806897  0.74260247  1
  Na  Na3  1  0.99497368  0.35187987  0.74347526  1
  Na  Na4  1  0.02357319  0.68521287  0.57680826  1
  Na  Na5  1  0.66443725  0.96140197  0.57593547  1
  Na  Na6  1  0.29696572  0.96140197  0.07593547  1
  Na  Na7  1  0.66164068  0.68521287  0.07680826  1
  Na  Na8  1  0.69023919  0.01854687  0.91014226  1
  Na  Na9  1  0.33110325  0.29473597  0.90926947  1
  Na  Na10  1  0.96363172  0.29473597  0.40926947  1
  Na  Na11  1  0.32830668  0.01854687  0.41014226  1
  Na  Na12  1  0.97471351  0.97883555  0.49074950  1
  Na  Na13  1  0.00412204  0.97883555  0.99074950  1
  Na  Na14  1  0.64138051  0.31216855  0.82408250  1
  Na  Na15  1  0.67078904  0.31216855  0.32408250  1
  Na  Na16  1  0.30804651  0.64550255  0.15741650  1
  Na  Na17  1  0.33745504  0.64550255  0.65741650  1
  Y  Y18  1  0.01069704  0.01499031  0.65028984  1
  Y  Y19  1  0.00429327  0.01499031  0.15028984  1
  Y  Y20  1  0.67736404  0.34832331  0.98362284  1
  Y  Y21  1  0.67096027  0.34832331  0.48362284  1
  Y  Y22  1  0.34403004  0.68165731  0.31695684  1
  Y  Y23  1  0.33762627  0.68165731  0.81695684  1
  Zn  Zn24  1  0.98777323  0.99243069  0.34681255  1
  Zn  Zn25  1  0.00465746  0.99243069  0.84681255  1
  Zn  Zn26  1  0.65444023  0.32576369  0.68014555  1
  Zn  Zn27  1  0.67132446  0.32576369  0.18014555  1
  Zn  Zn28  1  0.32110623  0.65909769  0.01347955  1
  Zn  Zn29  1  0.33799046  0.65909769  0.51347955  1
  P  P30  1  0.30436345  0.01196384  0.25101211  1
  P  P31  1  0.99464142  0.29976035  0.25554658  1
  P  P32  1  0.30511893  0.29976035  0.75554658  1
  P  P33  1  0.70760039  0.01196384  0.75101211  1
  P  P34  1  0.97103045  0.34529684  0.58434511  1
  P  P35  1  0.66130842  0.63309335  0.58887958  1
  P  P36  1  0.97178593  0.63309335  0.08887958  1
  P  P37  1  0.37426739  0.34529684  0.08434511  1
  P  P38  1  0.63769645  0.67863084  0.91767911  1
  P  P39  1  0.32797442  0.96642735  0.92221358  1
  P  P40  1  0.63845193  0.96642735  0.42221358  1
  P  P41  1  0.04093339  0.67863084  0.41767911  1
  S  S42  1  0.70301856  0.69441642  0.25019836  1
  S  S43  1  0.99139786  0.69441642  0.75019836  1
  S  S44  1  0.36968556  0.02774942  0.58353136  1
  S  S45  1  0.65806486  0.02774942  0.08353136  1
  S  S46  1  0.03635156  0.36108342  0.91686536  1
  S  S47  1  0.32473086  0.36108342  0.41686536  1
  O  O48  1  0.21651317  0.03074701  0.30598711  1
  O  O49  1  0.80672115  0.78700555  0.30008502  1
  O  O50  1  0.97842347  0.20068371  0.31316902  1
  O  O51  1  0.22226024  0.20068371  0.81316902  1
  O  O52  1  0.98028440  0.78700555  0.80008502  1
  O  O53  1  0.81423385  0.03074701  0.80598711  1
  O  O54  1  0.79299570  0.98708003  0.69659816  1
  O  O55  1  0.19387994  0.21067169  0.70286231  1
  O  O56  1  0.01440903  0.78862324  0.69409593  1
  O  O57  1  0.77421422  0.78862324  0.19409593  1
  O  O58  1  0.01679175  0.21067169  0.20286231  1
  O  O59  1  0.19408433  0.98708003  0.19659816  1
  O  O60  1  0.88318017  0.36408001  0.63932011  1
  O  O61  1  0.47338815  0.12033855  0.63341802  1
  O  O62  1  0.64509047  0.53401671  0.64650202  1
  O  O63  1  0.88892724  0.53401671  0.14650202  1
  O  O64  1  0.64695140  0.12033855  0.13341802  1
  O  O65  1  0.48090085  0.36408001  0.13932011  1
  O  O66  1  0.45966270  0.32041303  0.02993116  1
  O  O67  1  0.86054694  0.54400469  0.03619531  1
  O  O68  1  0.68107603  0.12195624  0.02742893  1
  O  O69  1  0.44088122  0.12195624  0.52742893  1
  O  O70  1  0.68345875  0.54400469  0.53619531  1
  O  O71  1  0.86075133  0.32041303  0.52993116  1
  O  O72  1  0.54984617  0.69741401  0.97265411  1
  O  O73  1  0.14005415  0.45367255  0.96675202  1
  O  O74  1  0.31175647  0.86735071  0.97983602  1
  O  O75  1  0.55559324  0.86735071  0.47983602  1
  O  O76  1  0.31361740  0.45367255  0.46675202  1
  O  O77  1  0.14756685  0.69741401  0.47265411  1
  O  O78  1  0.12632870  0.65374703  0.36326516  1
  O  O79  1  0.52721294  0.87733869  0.36952931  1
  O  O80  1  0.34774203  0.45529024  0.36076293  1
  O  O81  1  0.10754722  0.45529024  0.86076293  1
  O  O82  1  0.35012475  0.87733869  0.86952931  1
  O  O83  1  0.52741733  0.65374703  0.86326516  1
  O  O84  1  0.02785466  0.83985670  0.41091227  1
  O  O85  1  0.81816424  0.99518535  0.41575389  1
  O  O86  1  0.16928997  0.19470480  0.41657952  1
  O  O87  1  0.02541483  0.19470480  0.91657952  1
  O  O88  1  0.17702111  0.99518535  0.91575389  1
  O  O89  1  0.81200203  0.83985670  0.91091227  1
  O  O90  1  0.98638259  0.18455362  0.58748259  1
  O  O91  1  0.19474248  0.99824435  0.58739045  1
  O  O92  1  0.82705280  0.81029795  0.58839708  1
  O  O93  1  0.98324515  0.81029795  0.08839708  1
  O  O94  1  0.80350187  0.99824435  0.08739045  1
  O  O95  1  0.19817103  0.18455362  0.08748259  1
  O  O96  1  0.69452166  0.17318970  0.74424527  1
  O  O97  1  0.48483124  0.32851835  0.74908689  1
  O  O98  1  0.83595697  0.52803780  0.74991252  1
  O  O99  1  0.69208183  0.52803780  0.24991252  1
  O  O100  1  0.84368811  0.32851835  0.24908689  1
  O  O101  1  0.47866903  0.17318970  0.24424527  1
  O  O102  1  0.65304959  0.51788662  0.92081559  1
  O  O103  1  0.86140948  0.33157735  0.92072345  1
  O  O104  1  0.49371980  0.14363095  0.92173008  1
  O  O105  1  0.64991215  0.14363095  0.42173008  1
  O  O106  1  0.47016887  0.33157735  0.42072345  1
  O  O107  1  0.86483803  0.51788662  0.42081559  1
  O  O108  1  0.36118766  0.50652370  0.07757927  1
  O  O109  1  0.15149724  0.66185235  0.08242089  1
  O  O110  1  0.50262297  0.86137180  0.08324652  1
  O  O111  1  0.35874783  0.86137180  0.58324652  1
  O  O112  1  0.51035411  0.66185235  0.58242089  1
  O  O113  1  0.14533503  0.50652370  0.57757927  1
  O  O114  1  0.31971559  0.85122062  0.25414959  1
  O  O115  1  0.52807548  0.66491135  0.25405745  1
  O  O116  1  0.16038580  0.47696495  0.25506408  1
  O  O117  1  0.31657815  0.47696495  0.75506408  1
  O  O118  1  0.13683487  0.66491135  0.75405745  1
  O  O119  1  0.53150403  0.85122062  0.75414959  1
