# generated using pymatgen
data_MgMo2(Pb2O5)2
_symmetry_space_group_name_H-M   'P 1'
_cell_length_a   6.16715946
_cell_length_b   7.35454233
_cell_length_c   8.17128187
_cell_angle_alpha   109.68734255
_cell_angle_beta   112.17073882
_cell_angle_gamma   89.99999499
_symmetry_Int_Tables_number   1
_chemical_formula_structural   MgMo2(Pb2O5)2
_chemical_formula_sum   'Mg1 Mo2 Pb4 O10'
_cell_volume   319.70307232
_cell_formula_units_Z   1
loop_
 _symmetry_equiv_pos_site_id
 _symmetry_equiv_pos_as_xyz
  1  'x, y, z'
loop_
 _atom_site_type_symbol
 _atom_site_label
 _atom_site_symmetry_multiplicity
 _atom_site_fract_x
 _atom_site_fract_y
 _atom_site_fract_z
 _atom_site_occupancy
  Mg  Mg0  1  0.87713900  0.50000000  0.00000000  1
  Mo  Mo1  1  0.85697400  0.32152600  0.62018100  1
  Mo  Mo2  1  0.23679200  0.67847400  0.37981900  1
  Pb  Pb3  1  0.44142900  0.25720600  0.05030400  1
  Pb  Pb4  1  0.39112500  0.74279400  0.94969600  1
  Pb  Pb5  1  0.04642100  0.08025900  0.25021000  1
  Pb  Pb6  1  0.79621000  0.91974100  0.74979000  1
  O  O7  1  0.67775500  0.00000000  0.00000000  1
  O  O8  1  0.19089100  0.00000000  0.00000000  1
  O  O9  1  0.66941200  0.30550700  0.37890700  1
  O  O10  1  0.29050600  0.69449300  0.62109300  1
  O  O11  1  0.94338000  0.74511000  0.22661900  1
  O  O12  1  0.71676100  0.25489000  0.77338100  1
  O  O13  1  0.94705100  0.58371400  0.81357300  1
  O  O14  1  0.13347700  0.41628600  0.18642700  1
  O  O15  1  0.45639900  0.80412700  0.34687300  1
  O  O16  1  0.10952700  0.19587300  0.65312700  1
