# generated using pymatgen
data_Na10Sc4Zn4Si3(S3O16)3
_symmetry_space_group_name_H-M   'P 1'
_cell_length_a   18.08793003
_cell_length_b   8.97959355
_cell_length_c   22.70288013
_cell_angle_alpha   89.99748618
_cell_angle_beta   89.58847481
_cell_angle_gamma   119.91825643
_symmetry_Int_Tables_number   1
_chemical_formula_structural   Na10Sc4Zn4Si3(S3O16)3
_chemical_formula_sum   'Na30 Sc12 Zn12 Si9 S27 O144'
_cell_volume   3195.94482815
_cell_formula_units_Z   3
loop_
 _symmetry_equiv_pos_site_id
 _symmetry_equiv_pos_as_xyz
  1  'x, y, z'
loop_
 _atom_site_type_symbol
 _atom_site_label
 _atom_site_symmetry_multiplicity
 _atom_site_fract_x
 _atom_site_fract_y
 _atom_site_fract_z
 _atom_site_occupancy
  Na  Na0  1  0.18989170  0.37047190  0.24506683  1
  Na  Na1  1  0.69056395  0.37463778  0.24523604  1
  Na  Na2  1  0.99138683  0.63598047  0.25310547  1
  Na  Na3  1  0.49308872  0.63199046  0.25673017  1
  Na  Na4  1  0.32212097  0.64711458  0.74648841  1
  Na  Na5  1  0.81982416  0.64292698  0.74582999  1
  Na  Na6  1  0.99248234  0.35018858  0.75137557  1
  Na  Na7  1  0.19107211  0.00952285  0.74254966  1
  Na  Na8  1  0.69051038  0.00964389  0.74358842  1
  Na  Na9  1  0.52319149  0.70556562  0.57565035  1
  Na  Na10  1  0.32634110  0.96868059  0.58696041  1
  Na  Na11  1  0.82634659  0.96503286  0.58644724  1
  Na  Na12  1  0.15327430  0.97733341  0.08055483  1
  Na  Na13  1  0.65328468  0.97689666  0.08039666  1
  Na  Na14  1  0.32807681  0.68757808  0.08829617  1
  Na  Na15  1  0.82779048  0.68778104  0.08875097  1
  Na  Na16  1  0.65955399  0.01660759  0.42139035  1
  Na  Na17  1  0.35714480  0.67280097  0.41115728  1
  Na  Na18  1  0.01076240  0.00043902  0.49775609  1
  Na  Na19  1  0.50896501  0.01041125  0.49644343  1
  Na  Na20  1  0.00536400  0.02044398  0.99695660  1
  Na  Na21  1  0.50559261  0.02095132  0.99638143  1
  Na  Na22  1  0.34237089  0.32373083  0.83134275  1
  Na  Na23  1  0.83425328  0.32145657  0.83373547  1
  Na  Na24  1  0.33917825  0.33549020  0.33311238  1
  Na  Na25  1  0.83883794  0.34656861  0.33109475  1
  Na  Na26  1  0.17112708  0.65796707  0.16379575  1
  Na  Na27  1  0.67219231  0.65832112  0.16530508  1
  Na  Na28  1  0.16686152  0.67746274  0.65861801  1
  Na  Na29  1  0.66676713  0.66588999  0.66142436  1
  Sc  Sc30  1  0.00144598  0.99806184  0.64571365  1
  Sc  Sc31  1  0.50107952  0.00526080  0.64932148  1
  Sc  Sc32  1  0.99673429  0.00509878  0.14995696  1
  Sc  Sc33  1  0.49709190  0.00574885  0.14946694  1
  Sc  Sc34  1  0.32694331  0.32828977  0.98200842  1
  Sc  Sc35  1  0.82649267  0.32773180  0.98214494  1
  Sc  Sc36  1  0.32846761  0.32494126  0.48090042  1
  Sc  Sc37  1  0.82975559  0.33230116  0.48420302  1
  Sc  Sc38  1  0.17297994  0.67286830  0.31522508  1
  Sc  Sc39  1  0.66904169  0.66961294  0.31797649  1
  Sc  Sc40  1  0.17365562  0.67795676  0.81786604  1
  Sc  Sc41  1  0.66750553  0.66939960  0.81674963  1
  Zn  Zn42  1  0.99173023  0.98139073  0.34911357  1
  Zn  Zn43  1  0.49475137  0.97919328  0.34985274  1
  Zn  Zn44  1  0.99343525  0.00589098  0.85039539  1
  Zn  Zn45  1  0.49509636  0.00984481  0.84957816  1
  Zn  Zn46  1  0.33314191  0.29993926  0.67998677  1
  Zn  Zn47  1  0.83090176  0.30904731  0.67820702  1
  Zn  Zn48  1  0.32985309  0.34889476  0.18160134  1
  Zn  Zn49  1  0.82947950  0.34994504  0.18159453  1
  Zn  Zn50  1  0.16230479  0.64043458  0.01555682  1
  Zn  Zn51  1  0.66219891  0.64044657  0.01541643  1
  Zn  Zn52  1  0.15939198  0.67758723  0.51749451  1
  Zn  Zn53  1  0.66310753  0.67828058  0.51338519  1
  Si  Si54  1  0.35205290  0.70311055  0.24986492  1
  Si  Si55  1  0.85202238  0.70439951  0.24990578  1
  Si  Si56  1  0.35516826  0.00667344  0.75095917  1
  Si  Si57  1  0.85377406  0.00269272  0.74995831  1
  Si  Si58  1  0.18337826  0.03347613  0.58373036  1
  Si  Si59  1  0.68327174  0.03313038  0.58388982  1
  Si  Si60  1  0.18306711  0.33361703  0.08445655  1
  Si  Si61  1  0.68287745  0.33391065  0.08432068  1
  Si  Si62  1  0.51722827  0.66510708  0.41663445  1
  S  S63  1  0.14652171  0.00001103  0.25088856  1
  S  S64  1  0.64817356  0.00089013  0.25003227  1
  S  S65  1  0.99872726  0.29272639  0.25238737  1
  S  S66  1  0.49865892  0.29078162  0.25198599  1
  S  S67  1  0.14573638  0.29274781  0.75201140  1
  S  S68  1  0.64653007  0.29419582  0.75219849  1
  S  S69  1  0.00008298  0.70777437  0.75195925  1
  S  S70  1  0.49952920  0.70601056  0.75125495  1
  S  S71  1  0.48104470  0.33533655  0.58324554  1
  S  S72  1  0.98192548  0.33784151  0.58372569  1
  S  S73  1  0.33224160  0.62374628  0.58493204  1
  S  S74  1  0.83238630  0.62502948  0.58495903  1
  S  S75  1  0.48144611  0.62558144  0.08348551  1
  S  S76  1  0.98157466  0.62564456  0.08336004  1
  S  S77  1  0.33358361  0.04474775  0.08369049  1
  S  S78  1  0.83372259  0.04505681  0.08368538  1
  S  S79  1  0.31680697  0.66957003  0.91766881  1
  S  S80  1  0.81596681  0.66940228  0.91700308  1
  S  S81  1  0.01883837  0.37086865  0.91589950  1
  S  S82  1  0.51902999  0.37095752  0.91703558  1
  S  S83  1  0.16425002  0.96020444  0.91797767  1
  S  S84  1  0.66429166  0.95908139  0.91762458  1
  S  S85  1  0.31331382  0.95970815  0.41807804  1
  S  S86  1  0.81783740  0.96473773  0.41826626  1
  S  S87  1  0.16263641  0.37078823  0.41754612  1
  S  S88  1  0.66717076  0.37419853  0.41757275  1
  S  S89  1  0.01930204  0.66781654  0.41593504  1
  O  O90  1  0.10752455  0.03376852  0.30224556  1
  O  O91  1  0.60997679  0.03269010  0.30304072  1
  O  O92  1  0.40910526  0.78512215  0.30793233  1
  O  O93  1  0.91674148  0.79021980  0.30397761  1
  O  O94  1  0.48947812  0.18970098  0.30455901  1
  O  O95  1  0.98942249  0.19261898  0.30486469  1
  O  O96  1  0.10870329  0.18230191  0.80411951  1
  O  O97  1  0.60884696  0.18378858  0.80412106  1
  O  O98  1  0.48809346  0.78873148  0.80339536  1
  O  O99  1  0.98786618  0.78677326  0.80482139  1
  O  O100  1  0.41001956  0.02193031  0.80738734  1
  O  O101  1  0.91607295  0.04049128  0.80501611  1
  O  O102  1  0.39374934  0.96385660  0.69076324  1
  O  O103  1  0.89357126  0.96167383  0.69064160  1
  O  O104  1  0.09216004  0.21396107  0.69923905  1
  O  O105  1  0.59523902  0.21484451  0.69866678  1
  O  O106  1  0.01758437  0.81808433  0.69906279  1
  O  O107  1  0.51688939  0.81560887  0.69704123  1
  O  O108  1  0.39574222  0.81704737  0.18969462  1
  O  O109  1  0.89574626  0.81633289  0.18859572  1
  O  O110  1  0.01694688  0.21752280  0.19892356  1
  O  O111  1  0.51462393  0.21284821  0.19834873  1
  O  O112  1  0.09412015  0.97200065  0.19639848  1
  O  O113  1  0.59389656  0.97490538  0.19693703  1
  O  O114  1  0.44421171  0.37095607  0.63641650  1
  O  O115  1  0.94645481  0.36679459  0.63929101  1
  O  O116  1  0.23869634  0.10763501  0.64419668  1
  O  O117  1  0.73993707  0.11289235  0.64282433  1
  O  O118  1  0.32401535  0.52597394  0.63925994  1
  O  O119  1  0.82410090  0.52865055  0.64020884  1
  O  O120  1  0.44589843  0.52535051  0.13802278  1
  O  O121  1  0.94617034  0.52556545  0.13796923  1
  O  O122  1  0.32270215  0.12577004  0.13664718  1
  O  O123  1  0.82293119  0.12624374  0.13659260  1
  O  O124  1  0.23999188  0.36850589  0.14346664  1
  O  O125  1  0.73983132  0.36826642  0.14313053  1
  O  O126  1  0.23322183  0.30040339  0.02876647  1
  O  O127  1  0.73274386  0.29986873  0.02852900  1
  O  O128  1  0.42592465  0.54020953  0.03210253  1
  O  O129  1  0.92597292  0.53974958  0.03200755  1
  O  O130  1  0.34716709  0.15008948  0.02998783  1
  O  O131  1  0.84723703  0.15052582  0.02992451  1
  O  O132  1  0.23424070  0.15840593  0.52761432  1
  O  O133  1  0.73137426  0.15239419  0.52501261  1
  O  O134  1  0.34733022  0.54494384  0.53184558  1
  O  O135  1  0.84548979  0.54028373  0.53305363  1
  O  O136  1  0.42663921  0.30741881  0.53125332  1
  O  O137  1  0.92485266  0.31164075  0.53311362  1
  O  O138  1  0.27473296  0.69235374  0.97030899  1
  O  O139  1  0.77492167  0.69244975  0.97009441  1
  O  O140  1  0.07098741  0.45768939  0.96788804  1
  O  O141  1  0.56959834  0.45366577  0.97014326  1
  O  O142  1  0.15484567  0.85709219  0.97141668  1
  O  O143  1  0.65521437  0.85718565  0.97135372  1
  O  O144  1  0.27439122  0.85153901  0.47113159  1
  O  O145  1  0.77971519  0.86382821  0.47265809  1
  O  O146  1  0.15344258  0.45798202  0.46948510  1
  O  O147  1  0.65860630  0.45889294  0.46977629  1
  O  O148  1  0.07133298  0.68551295  0.46771612  1
  O  O149  1  0.57554586  0.70120922  0.47494631  1
  O  O150  1  0.05921826  0.64477736  0.36100631  1
  O  O151  1  0.56471557  0.64487316  0.35702622  1
  O  O152  1  0.25957197  0.87404564  0.36541399  1
  O  O153  1  0.76117800  0.88018419  0.36669553  1
  O  O154  1  0.17702112  0.47890078  0.36273510  1
  O  O155  1  0.68009160  0.47630554  0.36255714  1
  O  O156  1  0.05949541  0.47369136  0.86113312  1
  O  O157  1  0.56177225  0.47842457  0.86389752  1
  O  O158  1  0.17557044  0.87568771  0.86406330  1
  O  O159  1  0.67573853  0.87443126  0.86390569  1
  O  O160  1  0.26341961  0.64401088  0.86384747  1
  O  O161  1  0.76285463  0.64476452  0.86337869  1
  O  O162  1  0.01224240  0.82500004  0.41230276  1
  O  O163  1  0.51074254  0.84386857  0.41365355  1
  O  O164  1  0.39909285  0.97892597  0.41170229  1
  O  O165  1  0.90378054  0.98927205  0.41106416  1
  O  O166  1  0.08818564  0.19867015  0.41038093  1
  O  O167  1  0.59179508  0.19970451  0.41160409  1
  O  O168  1  0.01205056  0.19962590  0.91273730  1
  O  O169  1  0.51213204  0.19999901  0.91273936  1
  O  O170  1  0.08869390  0.97998601  0.91130430  1
  O  O171  1  0.58900890  0.97965141  0.91107690  1
  O  O172  1  0.40258150  0.82005631  0.91223025  1
  O  O173  1  0.90212302  0.82049642  0.91149431  1
  O  O174  1  0.48398079  0.17204312  0.58959403  1
  O  O175  1  0.98344498  0.17238963  0.58827761  1
  O  O176  1  0.08843719  0.01551182  0.58924812  1
  O  O177  1  0.58628878  0.00695439  0.58877685  1
  O  O178  1  0.41169720  0.80042420  0.58790602  1
  O  O179  1  0.90957040  0.80177790  0.58697459  1
  O  O180  1  0.48655613  0.79877030  0.08767511  1
  O  O181  1  0.98682169  0.79883426  0.08740188  1
  O  O182  1  0.40861415  0.01677486  0.08699998  1
  O  O183  1  0.90894433  0.01765892  0.08690467  1
  O  O184  1  0.09055414  0.15331890  0.08856244  1
  O  O185  1  0.59041226  0.15328721  0.08848081  1
  O  O186  1  0.33785888  0.16845105  0.74834788  1
  O  O187  1  0.84271313  0.17471939  0.74638110  1
  O  O188  1  0.23442349  0.32683621  0.74478988  1
  O  O189  1  0.73507538  0.32326199  0.74571062  1
  O  O190  1  0.42138503  0.53764462  0.74331609  1
  O  O191  1  0.92238707  0.53624487  0.74421279  1
  O  O192  1  0.34306727  0.51018891  0.24699032  1
  O  O193  1  0.84339726  0.51066693  0.24685184  1
  O  O194  1  0.42384428  0.31359080  0.24414593  1
  O  O195  1  0.92362770  0.31430847  0.24391376  1
  O  O196  1  0.23373422  0.14705753  0.24389694  1
  O  O197  1  0.73446253  0.15029668  0.24339687  1
  O  O198  1  0.32281762  0.50951854  0.92202778  1
  O  O199  1  0.82278614  0.50989273  0.92145238  1
  O  O200  1  0.43307507  0.35510396  0.92174589  1
  O  O201  1  0.93290439  0.35490132  0.92121154  1
  O  O202  1  0.24457198  0.13146800  0.92073784  1
  O  O203  1  0.74482743  0.13109701  0.92028507  1
  O  O204  1  0.32011893  0.13073659  0.42157675  1
  O  O205  1  0.82164799  0.13678839  0.42203816  1
  O  O206  1  0.24394644  0.36318887  0.42113801  1
  O  O207  1  0.74526136  0.35230070  0.42083350  1
  O  O208  1  0.41949558  0.49968305  0.42174245  1
  O  O209  1  0.93296365  0.51078246  0.42165685  1
  O  O210  1  0.18009228  0.51219560  0.07718879  1
  O  O211  1  0.68011852  0.51249567  0.07707342  1
  O  O212  1  0.07016554  0.65921195  0.07575158  1
  O  O213  1  0.57007825  0.65959129  0.07585799  1
  O  O214  1  0.25489475  0.87240503  0.07756985  1
  O  O215  1  0.75510956  0.87278732  0.07746535  1
  O  O216  1  0.17986716  0.84677611  0.57771511  1
  O  O217  1  0.67649185  0.84257302  0.57987911  1
  O  O218  1  0.25746773  0.64679535  0.57836752  1
  O  O219  1  0.75630097  0.64399729  0.57834486  1
  O  O220  1  0.06831585  0.48310311  0.57604879  1
  O  O221  1  0.56791256  0.48318876  0.57702480  1
  O  O222  1  0.14873344  0.83544927  0.25710770  1
  O  O223  1  0.65155903  0.83837184  0.25482996  1
  O  O224  1  0.25356268  0.67432120  0.25571091  1
  O  O225  1  0.75425128  0.67519962  0.25584123  1
  O  O226  1  0.07695484  0.47121418  0.25636701  1
  O  O227  1  0.57792921  0.46712827  0.25468015  1
  O  O228  1  0.15020645  0.46495241  0.75828183  1
  O  O229  1  0.65499886  0.46865434  0.75783256  1
  O  O230  1  0.07631327  0.68244993  0.75718528  1
  O  O231  1  0.57778483  0.68862302  0.75665360  1
  O  O232  1  0.25624043  0.82598744  0.75720464  1
  O  O233  1  0.75625978  0.82767493  0.75819505  1
