# generated using pymatgen
data_Na4NbAl(SiO4)3
_symmetry_space_group_name_H-M   'P 1'
_cell_length_a   9.01877902
_cell_length_b   9.01877871
_cell_length_c   21.95583689
_cell_angle_alpha   90.00000000
_cell_angle_beta   90.00000000
_cell_angle_gamma   120.00000112
_symmetry_Int_Tables_number   1
_chemical_formula_structural   Na4NbAl(SiO4)3
_chemical_formula_sum   'Na24 Nb6 Al6 Si18 O72'
_cell_volume   1546.59321158
_cell_formula_units_Z   6
loop_
 _symmetry_equiv_pos_site_id
 _symmetry_equiv_pos_as_xyz
  1  'x, y, z'
loop_
 _atom_site_type_symbol
 _atom_site_label
 _atom_site_symmetry_multiplicity
 _atom_site_fract_x
 _atom_site_fract_y
 _atom_site_fract_z
 _atom_site_occupancy
  Na  Na0  1  0.63519244  0.00971840  0.24696571  1
  Na  Na1  1  0.37452596  0.36480756  0.24696571  1
  Na  Na2  1  0.99028160  0.62547404  0.24696571  1
  Na  Na3  1  0.63519244  0.62547404  0.74696571  1
  Na  Na4  1  0.99028160  0.36480756  0.74696571  1
  Na  Na5  1  0.37452596  0.00971840  0.74696571  1
  Na  Na6  1  0.30185944  0.34305140  0.58029871  1
  Na  Na7  1  0.04119296  0.69814056  0.58029871  1
  Na  Na8  1  0.65694860  0.95880704  0.58029871  1
  Na  Na9  1  0.30185944  0.95880704  0.08029871  1
  Na  Na10  1  0.65694860  0.69814056  0.08029871  1
  Na  Na11  1  0.04119296  0.34305140  0.08029871  1
  Na  Na12  1  0.96852544  0.67638540  0.91363271  1
  Na  Na13  1  0.70785896  0.03147456  0.91363271  1
  Na  Na14  1  0.32361460  0.29214104  0.91363271  1
  Na  Na15  1  0.96852544  0.29214104  0.41363271  1
  Na  Na16  1  0.32361460  0.03147456  0.41363271  1
  Na  Na17  1  0.70785896  0.67638540  0.41363271  1
  Na  Na18  1  0.00000000  -0.00000000  0.49440154  1
  Na  Na19  1  0.00000000  -0.00000000  0.99440154  1
  Na  Na20  1  0.66666700  0.33333300  0.82773454  1
  Na  Na21  1  0.66666700  0.33333300  0.32773454  1
  Na  Na22  1  0.33333300  0.66666700  0.16106854  1
  Na  Na23  1  0.33333300  0.66666700  0.66106854  1
  Nb  Nb24  1  0.00000000  -0.00000000  0.64571453  1
  Nb  Nb25  1  0.00000000  -0.00000000  0.14571453  1
  Nb  Nb26  1  0.66666700  0.33333300  0.97904753  1
  Nb  Nb27  1  0.66666700  0.33333300  0.47904753  1
  Nb  Nb28  1  0.33333300  0.66666700  0.31238153  1
  Nb  Nb29  1  0.33333300  0.66666700  0.81238153  1
  Al  Al30  1  0.00000000  -0.00000000  0.35326857  1
  Al  Al31  1  0.00000000  -0.00000000  0.85326857  1
  Al  Al32  1  0.66666700  0.33333300  0.68660157  1
  Al  Al33  1  0.66666700  0.33333300  0.18660157  1
  Al  Al34  1  0.33333300  0.66666700  0.01993557  1
  Al  Al35  1  0.33333300  0.66666700  0.51993557  1
  Si  Si36  1  0.29289701  0.00746850  0.25297513  1
  Si  Si37  1  0.71457149  0.70710299  0.25297513  1
  Si  Si38  1  0.99253150  0.28542851  0.25297513  1
  Si  Si39  1  0.29289701  0.28542851  0.75297513  1
  Si  Si40  1  0.99253150  0.70710299  0.75297513  1
  Si  Si41  1  0.71457149  0.00746850  0.75297513  1
  Si  Si42  1  0.95956401  0.34080150  0.58630813  1
  Si  Si43  1  0.38123849  0.04043599  0.58630813  1
  Si  Si44  1  0.65919850  0.61876151  0.58630813  1
  Si  Si45  1  0.95956401  0.61876151  0.08630813  1
  Si  Si46  1  0.65919850  0.04043599  0.08630813  1
  Si  Si47  1  0.38123849  0.34080150  0.08630813  1
  Si  Si48  1  0.62623001  0.67413550  0.91964213  1
  Si  Si49  1  0.04790449  0.37376999  0.91964213  1
  Si  Si50  1  0.32586450  0.95209551  0.91964213  1
  Si  Si51  1  0.62623001  0.95209551  0.41964213  1
  Si  Si52  1  0.32586450  0.37376999  0.41964213  1
  Si  Si53  1  0.04790449  0.67413550  0.41964213  1
  O  O54  1  0.19865753  0.03388504  0.31119733  1
  O  O55  1  0.83522751  0.80134247  0.31119733  1
  O  O56  1  0.96611496  0.16477249  0.31119733  1
  O  O57  1  0.19865753  0.16477249  0.81119733  1
  O  O58  1  0.96611496  0.80134247  0.81119733  1
  O  O59  1  0.83522751  0.03388504  0.81119733  1
  O  O60  1  0.80007921  0.96777887  0.69176313  1
  O  O61  1  0.16769966  0.19992079  0.69176313  1
  O  O62  1  0.03222113  0.83230034  0.69176313  1
  O  O63  1  0.80007921  0.83230034  0.19176313  1
  O  O64  1  0.03222113  0.19992079  0.19176313  1
  O  O65  1  0.16769966  0.96777887  0.19176313  1
  O  O66  1  0.86532453  0.36721804  0.64453033  1
  O  O67  1  0.50189451  0.13467547  0.64453033  1
  O  O68  1  0.63278196  0.49810549  0.64453033  1
  O  O69  1  0.86532453  0.49810549  0.14453033  1
  O  O70  1  0.63278196  0.13467547  0.14453033  1
  O  O71  1  0.50189451  0.36721804  0.14453033  1
  O  O72  1  0.46674621  0.30111187  0.02509613  1
  O  O73  1  0.83436666  0.53325379  0.02509613  1
  O  O74  1  0.69888813  0.16563334  0.02509613  1
  O  O75  1  0.46674621  0.16563334  0.52509613  1
  O  O76  1  0.69888813  0.53325379  0.52509613  1
  O  O77  1  0.83436666  0.30111187  0.52509613  1
  O  O78  1  0.53199053  0.70055204  0.97786433  1
  O  O79  1  0.16856051  0.46800947  0.97786433  1
  O  O80  1  0.29944796  0.83143949  0.97786433  1
  O  O81  1  0.53199053  0.83143949  0.47786433  1
  O  O82  1  0.29944796  0.46800947  0.47786433  1
  O  O83  1  0.16856051  0.70055204  0.47786433  1
  O  O84  1  0.13341221  0.63444587  0.35843013  1
  O  O85  1  0.50103266  0.86658779  0.35843013  1
  O  O86  1  0.36555413  0.49896734  0.35843013  1
  O  O87  1  0.13341221  0.49896734  0.85843013  1
  O  O88  1  0.36555413  0.86658779  0.85843013  1
  O  O89  1  0.50103266  0.63444587  0.85843013  1
  O  O90  1  0.02466440  0.84062064  0.41161027  1
  O  O91  1  0.81595624  0.97533560  0.41161027  1
  O  O92  1  0.15937936  0.18404376  0.41161027  1
  O  O93  1  0.02466440  0.18404376  0.91161027  1
  O  O94  1  0.15937936  0.97533560  0.91161027  1
  O  O95  1  0.81595624  0.84062064  0.91161027  1
  O  O96  1  0.97454189  0.16374666  0.58769356  1
  O  O97  1  0.18920478  0.02545811  0.58769356  1
  O  O98  1  0.83625334  0.81079522  0.58769356  1
  O  O99  1  0.97454189  0.81079522  0.08769356  1
  O  O100  1  0.83625334  0.02545811  0.08769356  1
  O  O101  1  0.18920478  0.16374666  0.08769356  1
  O  O102  1  0.69133140  0.17395364  0.74494327  1
  O  O103  1  0.48262324  0.30866860  0.74494327  1
  O  O104  1  0.82604636  0.51737676  0.74494327  1
  O  O105  1  0.69133140  0.51737676  0.24494327  1
  O  O106  1  0.82604636  0.30866860  0.24494327  1
  O  O107  1  0.48262324  0.17395364  0.24494327  1
  O  O108  1  0.64120889  0.49707966  0.92102656  1
  O  O109  1  0.85587178  0.35879111  0.92102656  1
  O  O110  1  0.50292034  0.14412822  0.92102656  1
  O  O111  1  0.64120889  0.14412822  0.42102656  1
  O  O112  1  0.50292034  0.35879111  0.42102656  1
  O  O113  1  0.85587178  0.49707966  0.42102656  1
  O  O114  1  0.35799740  0.50728764  0.07827727  1
  O  O115  1  0.14928924  0.64200260  0.07827727  1
  O  O116  1  0.49271236  0.85071076  0.07827727  1
  O  O117  1  0.35799740  0.85071076  0.57827727  1
  O  O118  1  0.49271236  0.64200260  0.57827727  1
  O  O119  1  0.14928924  0.50728764  0.57827727  1
  O  O120  1  0.30787489  0.83041366  0.25436056  1
  O  O121  1  0.52253778  0.69212511  0.25436056  1
  O  O122  1  0.16958634  0.47746222  0.25436056  1
  O  O123  1  0.30787489  0.47746222  0.75436056  1
  O  O124  1  0.16958634  0.69212511  0.75436056  1
  O  O125  1  0.52253778  0.83041366  0.75436056  1
