# generated using pymatgen
data_Nd4PdO7
_symmetry_space_group_name_H-M   'P 1'
_cell_length_a   6.94079546
_cell_length_b   7.23530918
_cell_length_c   7.96764049
_cell_angle_alpha   70.04449689
_cell_angle_beta   71.98775887
_cell_angle_gamma   83.47976375
_symmetry_Int_Tables_number   1
_chemical_formula_structural   Nd4PdO7
_chemical_formula_sum   'Nd8 Pd2 O14'
_cell_volume   357.65407974
_cell_formula_units_Z   2
loop_
 _symmetry_equiv_pos_site_id
 _symmetry_equiv_pos_as_xyz
  1  'x, y, z'
loop_
 _atom_site_type_symbol
 _atom_site_label
 _atom_site_symmetry_multiplicity
 _atom_site_fract_x
 _atom_site_fract_y
 _atom_site_fract_z
 _atom_site_occupancy
  Nd  Nd0  1  0.66865205  0.83517107  0.37699247  1
  Nd  Nd1  1  0.33134795  0.16482893  0.62300753  1
  Nd  Nd2  1  0.64527289  0.85653025  0.85675108  1
  Nd  Nd3  1  0.35472711  0.14346975  0.14324892  1
  Nd  Nd4  1  0.79039146  0.39617676  0.72740523  1
  Nd  Nd5  1  0.20960854  0.60382324  0.27259477  1
  Nd  Nd6  1  0.77811235  0.39036542  0.21184363  1
  Nd  Nd7  1  0.22188765  0.60963458  0.78815637  1
  Pd  Pd8  1  -0.00000000  0.00000000  0.50000000  1
  Pd  Pd9  1  -0.00000000  0.00000000  -0.00000000  1
  O  O10  1  0.95041306  0.06362339  0.74330525  1
  O  O11  1  0.04958694  0.93637661  0.25669475  1
  O  O12  1  0.70703567  0.08553144  0.50948313  1
  O  O13  1  0.29296433  0.91446856  0.49051687  1
  O  O14  1  0.73323824  0.13925128  0.07963608  1
  O  O15  1  0.26676176  0.86074872  0.92036392  1
  O  O16  1  0.43048947  0.32846119  0.30262132  1
  O  O17  1  0.56951053  0.67153881  0.69737868  1
  O  O18  1  0.46836244  0.24511617  0.82240981  1
  O  O19  1  0.53163756  0.75488383  0.17759019  1
  O  O20  1  0.14536453  0.41636635  0.10229125  1
  O  O21  1  0.85463547  0.58363365  0.89770875  1
  O  O22  1  0.15497590  0.45661672  0.59848540  1
  O  O23  1  0.84502410  0.54338328  0.40151460  1
