# generated using pymatgen
data_ZrPbS3
_symmetry_space_group_name_H-M   'P 1'
_cell_length_a   3.80219200
_cell_length_b   9.20157497
_cell_length_c   14.02088112
_cell_angle_alpha   90.00000000
_cell_angle_beta   90.00000000
_cell_angle_gamma   90.00000000
_symmetry_Int_Tables_number   1
_chemical_formula_structural   ZrPbS3
_chemical_formula_sum   'Zr4 Pb4 S12'
_cell_volume   490.53671643
_cell_formula_units_Z   4
loop_
 _symmetry_equiv_pos_site_id
 _symmetry_equiv_pos_as_xyz
  1  'x, y, z'
loop_
 _atom_site_type_symbol
 _atom_site_label
 _atom_site_symmetry_multiplicity
 _atom_site_fract_x
 _atom_site_fract_y
 _atom_site_fract_z
 _atom_site_occupancy
  Zr  Zr0  1  0.25000000  0.16635783  0.95104772  1
  Zr  Zr1  1  0.75000000  0.83364217  0.04895228  1
  Zr  Zr2  1  0.25000000  0.66635783  0.54895228  1
  Zr  Zr3  1  0.75000000  0.33364217  0.45104772  1
  Pb  Pb4  1  0.25000000  0.52287727  0.17352655  1
  Pb  Pb5  1  0.75000000  0.47712273  0.82647345  1
  Pb  Pb6  1  0.25000000  0.02287727  0.32647345  1
  Pb  Pb7  1  0.75000000  0.97712273  0.67352655  1
  S  S8  1  0.25000000  0.00890169  0.10467966  1
  S  S9  1  0.75000000  0.99109831  0.89532034  1
  S  S10  1  0.25000000  0.50890169  0.39532034  1
  S  S11  1  0.75000000  0.49109831  0.60467966  1
  S  S12  1  0.25000000  0.17016540  0.51010995  1
  S  S13  1  0.75000000  0.82983460  0.48989005  1
  S  S14  1  0.25000000  0.67016540  0.98989005  1
  S  S15  1  0.75000000  0.32983460  0.01010995  1
  S  S16  1  0.75000000  0.22649242  0.28561934  1
  S  S17  1  0.25000000  0.77350758  0.71438066  1
  S  S18  1  0.75000000  0.72649242  0.21438066  1
  S  S19  1  0.25000000  0.27350758  0.78561934  1
