# generated using pymatgen
data_MgMnV4O12
_symmetry_space_group_name_H-M   'P 1'
_cell_length_a   5.29983679
_cell_length_b   10.98213499
_cell_length_c   9.84002657
_cell_angle_alpha   26.88842795
_cell_angle_beta   51.35643993
_cell_angle_gamma   55.84326085
_symmetry_Int_Tables_number   1
_chemical_formula_structural   MgMnV4O12
_chemical_formula_sum   'Mg1 Mn1 V4 O12'
_cell_volume   202.28789129
_cell_formula_units_Z   1
loop_
 _symmetry_equiv_pos_site_id
 _symmetry_equiv_pos_as_xyz
  1  'x, y, z'
loop_
 _atom_site_type_symbol
 _atom_site_label
 _atom_site_symmetry_multiplicity
 _atom_site_fract_x
 _atom_site_fract_y
 _atom_site_fract_z
 _atom_site_occupancy
  Mg  Mg0  1  0.78662500  0.49969300  0.78415500  1
  Mn  Mn1  1  0.29491300  0.00219400  0.28673900  1
  V  V2  1  0.02795600  0.00682200  0.98043600  1
  V  V3  1  0.93729700  0.49793300  0.03618000  1
  V  V4  1  0.45038500  0.00630300  0.52635400  1
  V  V5  1  0.52958100  0.51026100  0.47898900  1
  O  O6  1  0.34971500  0.28468500  0.13050700  1
  O  O7  1  0.23237300  0.10837200  0.63335700  1
  O  O8  1  0.09992800  0.30833900  0.74111500  1
  O  O9  1  0.87534700  0.19126300  0.21823500  1
  O  O10  1  0.33880900  0.81138200  0.11945800  1
  O  O11  1  0.72272200  0.39543100  0.34430400  1
  O  O12  1  0.23627200  0.65224800  0.55812600  1
  O  O13  1  0.60626300  0.20077600  0.84377000  1
  O  O14  1  0.14054700  0.78532100  0.74195400  1
  O  O15  1  0.85210100  0.69255100  0.22937600  1
  O  O16  1  0.71539000  0.86840100  0.34514300  1
  O  O17  1  0.65057700  0.67207300  0.84582200  1
