# generated using pymatgen
data_Li2ZnBr4
_symmetry_space_group_name_H-M   'P 1'
_cell_length_a   6.44255851
_cell_length_b   7.85233795
_cell_length_c   13.55727124
_cell_angle_alpha   90.00000000
_cell_angle_beta   90.00000000
_cell_angle_gamma   90.00000000
_symmetry_Int_Tables_number   1
_chemical_formula_structural   Li2ZnBr4
_chemical_formula_sum   'Li8 Zn4 Br16'
_cell_volume   685.85078338
_cell_formula_units_Z   4
loop_
 _symmetry_equiv_pos_site_id
 _symmetry_equiv_pos_as_xyz
  1  'x, y, z'
loop_
 _atom_site_type_symbol
 _atom_site_label
 _atom_site_symmetry_multiplicity
 _atom_site_fract_x
 _atom_site_fract_y
 _atom_site_fract_z
 _atom_site_occupancy
  Li  Li0  1  -0.00000000  0.00000000  -0.00000000  1
  Li  Li1  1  0.50000000  0.00000000  0.50000000  1
  Li  Li2  1  -0.00000000  0.50000000  -0.00000000  1
  Li  Li3  1  0.50000000  0.50000000  0.50000000  1
  Li  Li4  1  0.99609752  0.75000000  0.26509557  1
  Li  Li5  1  0.49609752  0.25000000  0.23490443  1
  Li  Li6  1  0.00390248  0.25000000  0.73490443  1
  Li  Li7  1  0.50390248  0.75000000  0.76509557  1
  Zn  Zn8  1  0.58978841  0.75000000  0.08746599  1
  Zn  Zn9  1  0.08978841  0.25000000  0.41253401  1
  Zn  Zn10  1  0.41021159  0.25000000  0.91253401  1
  Zn  Zn11  1  0.91021159  0.75000000  0.58746599  1
  Br  Br12  1  0.21990851  0.75000000  0.08925903  1
  Br  Br13  1  0.71990851  0.25000000  0.41074097  1
  Br  Br14  1  0.78009149  0.25000000  0.91074097  1
  Br  Br15  1  0.28009149  0.75000000  0.58925903  1
  Br  Br16  1  0.75005687  0.75000000  0.42477478  1
  Br  Br17  1  0.25005687  0.25000000  0.07522522  1
  Br  Br18  1  0.24994313  0.25000000  0.57522522  1
  Br  Br19  1  0.74994313  0.75000000  0.92477478  1
  Br  Br20  1  0.75031149  0.99329176  0.16683333  1
  Br  Br21  1  0.25031149  0.00670824  0.33316667  1
  Br  Br22  1  0.24968851  0.49329176  0.83316667  1
  Br  Br23  1  0.74968851  0.50670824  0.66683333  1
  Br  Br24  1  0.24968851  0.00670824  0.83316667  1
  Br  Br25  1  0.74968851  0.99329176  0.66683333  1
  Br  Br26  1  0.75031149  0.50670824  0.16683333  1
  Br  Br27  1  0.25031149  0.49329176  0.33316667  1
