# generated using pymatgen
data_MgWBr4O
_symmetry_space_group_name_H-M   'P 1'
_cell_length_a   3.97398433
_cell_length_b   7.25856860
_cell_length_c   7.60307333
_cell_angle_alpha   85.87337026
_cell_angle_beta   74.81734584
_cell_angle_gamma   74.10164566
_symmetry_Int_Tables_number   1
_chemical_formula_structural   MgWBr4O
_chemical_formula_sum   'Mg1 W1 Br4 O1'
_cell_volume   203.56286957
_cell_formula_units_Z   1
loop_
 _symmetry_equiv_pos_site_id
 _symmetry_equiv_pos_as_xyz
  1  'x, y, z'
loop_
 _atom_site_type_symbol
 _atom_site_label
 _atom_site_symmetry_multiplicity
 _atom_site_fract_x
 _atom_site_fract_y
 _atom_site_fract_z
 _atom_site_occupancy
  Mg  Mg0  1  0.71674600  0.67700200  0.92459400  1
  W  W1  1  0.99994500  0.02285600  0.01216900  1
  Br  Br2  1  0.27102600  0.79596000  0.69821800  1
  Br  Br3  1  0.76728400  0.19366600  0.30781800  1
  Br  Br4  1  0.09470900  0.67051100  0.17430300  1
  Br  Br5  1  0.95149400  0.32788800  0.80345300  1
  O  O6  1  0.53903200  0.96952400  0.98685100  1
