# generated using pymatgen
data_Na3Ca2Ta4(PO4)9
_symmetry_space_group_name_H-M   'P 1'
_cell_length_a   8.89661948
_cell_length_b   8.89661919
_cell_length_c   23.10415368
_cell_angle_alpha   90.00000000
_cell_angle_beta   90.00000000
_cell_angle_gamma   120.00000109
_symmetry_Int_Tables_number   1
_chemical_formula_structural   Na3Ca2Ta4(PO4)9
_chemical_formula_sum   'Na6 Ca4 Ta8 P18 O72'
_cell_volume   1583.69194782
_cell_formula_units_Z   2
loop_
 _symmetry_equiv_pos_site_id
 _symmetry_equiv_pos_as_xyz
  1  'x, y, z'
loop_
 _atom_site_type_symbol
 _atom_site_label
 _atom_site_symmetry_multiplicity
 _atom_site_fract_x
 _atom_site_fract_y
 _atom_site_fract_z
 _atom_site_occupancy
  Na  Na0  1  -0.00000000  -0.00000000  0.49574437  1
  Na  Na1  1  -0.00000000  -0.00000000  0.99574437  1
  Na  Na2  1  0.66666700  0.33333300  0.82238202  1
  Na  Na3  1  0.66666700  0.33333300  0.32238202  1
  Na  Na4  1  0.33333300  0.66666700  0.16817535  1
  Na  Na5  1  0.33333300  0.66666700  0.66817535  1
  Ca  Ca6  1  -0.00000000  -0.00000000  0.35826382  1
  Ca  Ca7  1  -0.00000000  -0.00000000  0.85826382  1
  Ca  Ca8  1  0.66666700  0.33333300  0.68200250  1
  Ca  Ca9  1  0.66666700  0.33333300  0.18200250  1
  Ta  Ta10  1  -0.00000000  -0.00000000  0.64984408  1
  Ta  Ta11  1  -0.00000000  -0.00000000  0.14984408  1
  Ta  Ta12  1  0.66666700  0.33333300  0.97996998  1
  Ta  Ta13  1  0.66666700  0.33333300  0.47996998  1
  Ta  Ta14  1  0.33333300  0.66666700  0.01972780  1
  Ta  Ta15  1  0.33333300  0.66666700  0.51972780  1
  Ta  Ta16  1  0.33333300  0.66666700  0.31048682  1
  Ta  Ta17  1  0.33333300  0.66666700  0.81048682  1
  P  P18  1  0.29026020  0.99702019  0.25224951  1
  P  P19  1  0.70676000  0.70973980  0.25224951  1
  P  P20  1  0.00297981  0.29324000  0.25224951  1
  P  P21  1  0.29026020  0.29324000  0.75224951  1
  P  P22  1  0.00297981  0.70973980  0.75224951  1
  P  P23  1  0.70676000  0.99702019  0.75224951  1
  P  P24  1  0.96097959  0.32991642  0.58209655  1
  P  P25  1  0.36893782  0.03902041  0.58209655  1
  P  P26  1  0.67008358  0.63106218  0.58209655  1
  P  P27  1  0.96097959  0.63106218  0.08209655  1
  P  P28  1  0.67008358  0.03902041  0.08209655  1
  P  P29  1  0.36893782  0.32991642  0.08209655  1
  P  P30  1  0.61341947  0.65791594  0.91812474  1
  P  P31  1  0.04449548  0.38658053  0.91812474  1
  P  P32  1  0.34208406  0.95550452  0.91812474  1
  P  P33  1  0.61341947  0.95550452  0.41812474  1
  P  P34  1  0.34208406  0.38658053  0.41812474  1
  P  P35  1  0.04449548  0.65791594  0.41812474  1
  O  O36  1  0.20817359  0.01637655  0.30550923  1
  O  O37  1  0.80820296  0.79182641  0.30550923  1
  O  O38  1  0.98362345  0.19179704  0.30550923  1
  O  O39  1  0.20817359  0.19179704  0.80550923  1
  O  O40  1  0.98362345  0.79182641  0.80550923  1
  O  O41  1  0.80820296  0.01637655  0.80550923  1
  O  O42  1  0.80163815  0.97027648  0.69556696  1
  O  O43  1  0.16863833  0.19836185  0.69556696  1
  O  O44  1  0.02972352  0.83136167  0.69556696  1
  O  O45  1  0.80163815  0.83136167  0.19556696  1
  O  O46  1  0.02972352  0.19836185  0.19556696  1
  O  O47  1  0.16863833  0.97027648  0.19556696  1
  O  O48  1  0.90407404  0.37820235  0.63607798  1
  O  O49  1  0.47412932  0.09592596  0.63607798  1
  O  O50  1  0.62179765  0.52587068  0.63607798  1
  O  O51  1  0.90407404  0.52587068  0.13607798  1
  O  O52  1  0.62179765  0.09592596  0.13607798  1
  O  O53  1  0.47412932  0.37820235  0.13607798  1
  O  O54  1  0.46656415  0.30442883  0.02844279  1
  O  O55  1  0.83786568  0.53343585  0.02844279  1
  O  O56  1  0.69557117  0.16213432  0.02844279  1
  O  O57  1  0.46656415  0.16213432  0.52844279  1
  O  O58  1  0.69557117  0.53343585  0.52844279  1
  O  O59  1  0.83786568  0.30442883  0.52844279  1
  O  O60  1  0.51106906  0.66686652  0.97112871  1
  O  O61  1  0.15579645  0.48893094  0.97112871  1
  O  O62  1  0.33313348  0.84420355  0.97112871  1
  O  O63  1  0.51106906  0.84420355  0.47112871  1
  O  O64  1  0.33313348  0.48893094  0.47112871  1
  O  O65  1  0.15579645  0.66686652  0.47112871  1
  O  O66  1  0.13328270  0.63383547  0.36279536  1
  O  O67  1  0.50055177  0.86671730  0.36279536  1
  O  O68  1  0.36616453  0.49944823  0.36279536  1
  O  O69  1  0.13328270  0.49944823  0.86279536  1
  O  O70  1  0.36616453  0.86671730  0.86279536  1
  O  O71  1  0.50055177  0.63383547  0.86279536  1
  O  O72  1  0.02430216  0.81483967  0.41975085  1
  O  O73  1  0.79053751  0.97569784  0.41975085  1
  O  O74  1  0.18516033  0.20946249  0.41975085  1
  O  O75  1  0.02430216  0.20946249  0.91975085  1
  O  O76  1  0.18516033  0.97569784  0.91975085  1
  O  O77  1  0.79053751  0.81483967  0.91975085  1
  O  O78  1  0.97737286  0.16332427  0.58833960  1
  O  O79  1  0.18595141  0.02262714  0.58833960  1
  O  O80  1  0.83667573  0.81404859  0.58833960  1
  O  O81  1  0.97737286  0.81404859  0.08833960  1
  O  O82  1  0.83667573  0.02262714  0.08833960  1
  O  O83  1  0.18595141  0.16332427  0.08833960  1
  O  O84  1  0.67005125  0.14189202  0.74323565  1
  O  O85  1  0.47184177  0.32994875  0.74323565  1
  O  O86  1  0.85810798  0.52815823  0.74323565  1
  O  O87  1  0.67005125  0.52815823  0.24323565  1
  O  O88  1  0.85810798  0.32994875  0.24323565  1
  O  O89  1  0.47184177  0.14189202  0.24323565  1
  O  O90  1  0.62349317  0.48605535  0.92651982  1
  O  O91  1  0.86256318  0.37650683  0.92651982  1
  O  O92  1  0.51394465  0.13743682  0.92651982  1
  O  O93  1  0.62349317  0.13743682  0.42651982  1
  O  O94  1  0.51394465  0.37650683  0.42651982  1
  O  O95  1  0.86256318  0.48605535  0.42651982  1
  O  O96  1  0.33699409  0.48488032  0.06756993  1
  O  O97  1  0.14788523  0.66300591  0.06756993  1
  O  O98  1  0.51511968  0.85211477  0.06756993  1
  O  O99  1  0.33699409  0.85211477  0.56756993  1
  O  O100  1  0.51511968  0.66300591  0.56756993  1
  O  O101  1  0.14788523  0.48488032  0.56756993  1
  O  O102  1  0.29369117  0.81793614  0.25706005  1
  O  O103  1  0.52424397  0.70630883  0.25706005  1
  O  O104  1  0.18206386  0.47575603  0.25706005  1
  O  O105  1  0.29369117  0.47575603  0.75706005  1
  O  O106  1  0.18206386  0.70630883  0.75706005  1
  O  O107  1  0.52424397  0.81793614  0.75706005  1
