# generated using pymatgen
data_Na3La2Nb2SiP5O24
_symmetry_space_group_name_H-M   'P 1'
_cell_length_a   9.31100161
_cell_length_b   9.29250209
_cell_length_c   23.01153693
_cell_angle_alpha   89.97589855
_cell_angle_beta   90.11508240
_cell_angle_gamma   120.07273340
_symmetry_Int_Tables_number   1
_chemical_formula_structural   Na3La2Nb2SiP5O24
_chemical_formula_sum   'Na9 La6 Nb6 Si3 P15 O72'
_cell_volume   1723.00122285
_cell_formula_units_Z   3
loop_
 _symmetry_equiv_pos_site_id
 _symmetry_equiv_pos_as_xyz
  1  'x, y, z'
loop_
 _atom_site_type_symbol
 _atom_site_label
 _atom_site_symmetry_multiplicity
 _atom_site_fract_x
 _atom_site_fract_y
 _atom_site_fract_z
 _atom_site_occupancy
  Na  Na0  1  0.33739427  0.98356677  0.75437941  1
  Na  Na1  1  0.67710349  0.98897595  0.58698318  1
  Na  Na2  1  0.68846534  0.69526782  0.08081637  1
  Na  Na3  1  0.03324200  0.99863869  0.49829490  1
  Na  Na4  1  0.02563811  0.00841574  0.99720692  1
  Na  Na5  1  0.68266397  0.36180744  0.83106591  1
  Na  Na6  1  0.66079985  0.32982891  0.32905910  1
  Na  Na7  1  0.32573148  0.66776100  0.16467805  1
  Na  Na8  1  0.32869037  0.63426543  0.66535862  1
  La  La9  1  0.00236248  0.99675623  0.64656456  1
  La  La10  1  0.01136669  0.01119821  0.14828962  1
  La  La11  1  0.66434657  0.32572338  0.97700961  1
  La  La12  1  0.66344811  0.33710871  0.47467322  1
  La  La13  1  0.33752738  0.66773896  0.31023700  1
  La  La14  1  0.34028041  0.66142628  0.81452238  1
  Nb  Nb15  1  0.99967979  0.00063687  0.35175175  1
  Nb  Nb16  1  0.98975051  0.99835462  0.85149453  1
  Nb  Nb17  1  0.66826987  0.33036221  0.68380059  1
  Nb  Nb18  1  0.67116932  0.33390284  0.18605170  1
  Nb  Nb19  1  0.32405236  0.66755195  0.01787305  1
  Nb  Nb20  1  0.33072404  0.66679932  0.51836601  1
  Si  Si21  1  0.70963612  0.02132192  0.74576263  1
  Si  Si22  1  0.37487583  0.02391064  0.58148276  1
  Si  Si23  1  0.96738819  0.61890311  0.08291810  1
  P  P24  1  0.31110722  0.02986105  0.25161918  1
  P  P25  1  0.72107178  0.69161717  0.24755956  1
  P  P26  1  0.96868777  0.28224575  0.25122506  1
  P  P27  1  0.30945391  0.28313042  0.75092144  1
  P  P28  1  0.97677056  0.69354167  0.75337830  1
  P  P29  1  0.96926916  0.35831518  0.58268550  1
  P  P30  1  0.63921052  0.61417656  0.58340417  1
  P  P31  1  0.63933687  0.02350281  0.08517354  1
  P  P32  1  0.38615839  0.36105505  0.08328112  1
  P  P33  1  0.64714602  0.69376483  0.91934808  1
  P  P34  1  0.05346941  0.35602901  0.91664464  1
  P  P35  1  0.30180285  0.94661625  0.91370018  1
  P  P36  1  0.64400772  0.94653007  0.41756198  1
  P  P37  1  0.30164340  0.35789803  0.41569133  1
  P  P38  1  0.05703473  0.69728358  0.41567806  1
  O  O39  1  0.19833294  0.03917794  0.30424951  1
  O  O40  1  0.84247629  0.80358665  0.29997730  1
  O  O41  1  0.95986975  0.16165068  0.30372903  1
  O  O42  1  0.20285126  0.16336986  0.80378186  1
  O  O43  1  0.96329325  0.80235073  0.80635534  1
  O  O44  1  0.84142108  0.03096901  0.80201491  1
  O  O45  1  0.77300861  0.99142334  0.68564097  1
  O  O46  1  0.21792969  0.20770732  0.69473378  1
  O  O47  1  0.01988606  0.80065783  0.69928638  1
  O  O48  1  0.78656669  0.77824563  0.19015016  1
  O  O49  1  0.99316088  0.21607970  0.19501627  1
  O  O50  1  0.21610120  0.00033003  0.19576536  1
  O  O51  1  0.86785378  0.37725182  0.63724186  1
  O  O52  1  0.50455726  0.13716340  0.64110413  1
  O  O53  1  0.63033515  0.50171001  0.63772694  1
  O  O54  1  0.85981735  0.48735078  0.14079964  1
  O  O55  1  0.62549012  0.12778854  0.13893692  1
  O  O56  1  0.50535339  0.37241153  0.13716316  1
  O  O57  1  0.45757354  0.33645584  0.02844039  1
  O  O58  1  0.84979829  0.53839638  0.02914378  1
  O  O59  1  0.67371892  0.12313574  0.03031942  1
  O  O60  1  0.47536808  0.12974373  0.52764027  1
  O  O61  1  0.67213442  0.54771539  0.52853028  1
  O  O62  1  0.86716495  0.32949774  0.52923290  1
  O  O63  1  0.54956982  0.70610779  0.97405123  1
  O  O64  1  0.17505651  0.46625825  0.96982465  1
  O  O65  1  0.29885224  0.82193341  0.96648850  1
  O  O66  1  0.54171912  0.83054610  0.47292468  1
  O  O67  1  0.29128978  0.46329887  0.46953941  1
  O  O68  1  0.17640696  0.70826525  0.47044059  1
  O  O69  1  0.13163025  0.67446114  0.36157709  1
  O  O70  1  0.54181901  0.87215143  0.36390492  1
  O  O71  1  0.32433399  0.45222125  0.36047915  1
  O  O72  1  0.12020237  0.45112206  0.86120260  1
  O  O73  1  0.32186782  0.87958273  0.85661186  1
  O  O74  1  0.55200735  0.67448553  0.86412054  1
  O  O75  1  0.05715603  0.86772616  0.41179238  1
  O  O76  1  0.81292595  0.94334509  0.41058109  1
  O  O77  1  0.13086983  0.18537961  0.41126025  1
  O  O78  1  0.05629639  0.18736123  0.91248781  1
  O  O79  1  0.13373624  0.94393985  0.91489806  1
  O  O80  1  0.81909949  0.86601688  0.91300997  1
  O  O81  1  0.99274154  0.20928708  0.59194204  1
  O  O82  1  0.18723937  0.98196667  0.58373201  1
  O  O83  1  0.77099872  0.79720388  0.59063417  1
  O  O84  1  0.99704651  0.80350000  0.08942701  1
  O  O85  1  0.77094875  0.97433792  0.09483811  1
  O  O86  1  0.20614870  0.22567795  0.09030780  1
  O  O87  1  0.71730978  0.20534605  0.74130710  1
  O  O88  1  0.47848383  0.28019123  0.74993257  1
  O  O89  1  0.80788219  0.52940148  0.74776661  1
  O  O90  1  0.71851103  0.51941347  0.24598483  1
  O  O91  1  0.79581554  0.27747402  0.24788520  1
  O  O92  1  0.47775225  0.20063178  0.24830831  1
  O  O93  1  0.68540190  0.55332817  0.92253036  1
  O  O94  1  0.87615499  0.31476303  0.92530088  1
  O  O95  1  0.44483118  0.12050341  0.92280939  1
  O  O96  1  0.68758660  0.12552758  0.42519857  1
  O  O97  1  0.43974532  0.31786298  0.42227826  1
  O  O98  1  0.88064423  0.55886412  0.42380753  1
  O  O99  1  0.39466012  0.53674676  0.08098920  1
  O  O100  1  0.14915693  0.62397133  0.07242745  1
  O  O101  1  0.46710645  0.85436215  0.07853620  1
  O  O102  1  0.38051496  0.84464205  0.57652994  1
  O  O103  1  0.46604125  0.60951628  0.57827574  1
  O  O104  1  0.14249302  0.52222473  0.57816271  1
  O  O105  1  0.34891852  0.89046821  0.25995225  1
  O  O106  1  0.54454930  0.65602857  0.25586760  1
  O  O107  1  0.10579677  0.46072347  0.25926269  1
  O  O108  1  0.34650330  0.46122390  0.75545200  1
  O  O109  1  0.12024049  0.66291316  0.76338532  1
  O  O110  1  0.51773149  0.88440186  0.75514674  1
