# generated using pymatgen
data_Na14Si11Sn4Ge4SO48
_symmetry_space_group_name_H-M   'P 1'
_cell_length_a   17.81520233
_cell_length_b   8.91871824
_cell_length_c   22.11822191
_cell_angle_alpha   90.27914028
_cell_angle_beta   90.07262429
_cell_angle_gamma   120.00276905
_symmetry_Int_Tables_number   1
_chemical_formula_structural   Na14Si11Sn4Ge4SO48
_chemical_formula_sum   'Na42 Si33 Sn12 Ge12 S3 O144'
_cell_volume   3043.35630519
_cell_formula_units_Z   3
loop_
 _symmetry_equiv_pos_site_id
 _symmetry_equiv_pos_as_xyz
  1  'x, y, z'
loop_
 _atom_site_type_symbol
 _atom_site_label
 _atom_site_symmetry_multiplicity
 _atom_site_fract_x
 _atom_site_fract_y
 _atom_site_fract_z
 _atom_site_occupancy
  Na  Na0  1  0.31914506  0.99982857  0.24990125  1
  Na  Na1  1  0.81898960  0.00007032  0.25005795  1
  Na  Na2  1  0.31898174  0.64037581  0.75118687  1
  Na  Na3  1  0.81778838  0.63435865  0.74957310  1
  Na  Na4  1  0.50198606  0.36514366  0.75134814  1
  Na  Na5  1  0.68463577  0.00209194  0.74958332  1
  Na  Na6  1  0.14930639  0.33435040  0.58110124  1
  Na  Na7  1  0.65111294  0.33436720  0.58294341  1
  Na  Na8  1  0.01499354  0.69563372  0.58368259  1
  Na  Na9  1  0.51963118  0.70306497  0.58213810  1
  Na  Na10  1  0.33350198  0.96779111  0.58346544  1
  Na  Na11  1  0.83155023  0.96294241  0.58251016  1
  Na  Na12  1  0.15019330  0.96550765  0.08130569  1
  Na  Na13  1  0.65086574  0.96664652  0.08088721  1
  Na  Na14  1  0.33237768  0.69981061  0.08292454  1
  Na  Na15  1  0.83184861  0.70032139  0.08274223  1
  Na  Na16  1  0.01770631  0.33626606  0.08297845  1
  Na  Na17  1  0.51843437  0.33579551  0.08303393  1
  Na  Na18  1  0.48318066  0.66801145  0.91663977  1
  Na  Na19  1  0.98087561  0.66224528  0.91725248  1
  Na  Na20  1  0.35085172  0.03545067  0.91664197  1
  Na  Na21  1  0.85018063  0.03697917  0.91725354  1
  Na  Na22  1  0.16655629  0.30159365  0.91920081  1
  Na  Na23  1  0.66806728  0.29741742  0.91740355  1
  Na  Na24  1  0.48403032  0.30098692  0.41616935  1
  Na  Na25  1  0.98084057  0.29866513  0.41730492  1
  Na  Na26  1  0.16583186  0.03000643  0.41789504  1
  Na  Na27  1  0.66833489  0.03690767  0.41938518  1
  Na  Na28  1  0.35063954  0.66585776  0.41587811  1
  Na  Na29  1  0.84958652  0.66326797  0.41726301  1
  Na  Na30  1  0.99945566  0.99903938  0.49974305  1
  Na  Na31  1  0.50031423  0.99971355  0.50032979  1
  Na  Na32  1  -0.00003063  0.00085352  0.00040147  1
  Na  Na33  1  0.50005560  0.00036122  0.99989135  1
  Na  Na34  1  0.33326607  0.32739706  0.83383081  1
  Na  Na35  1  0.83715400  0.33448818  0.83135040  1
  Na  Na36  1  0.33674710  0.34474816  0.33004820  1
  Na  Na37  1  0.83614847  0.34385635  0.33150667  1
  Na  Na38  1  0.16419754  0.65572210  0.16855745  1
  Na  Na39  1  0.66450990  0.65552922  0.16860898  1
  Na  Na40  1  0.16361645  0.67289008  0.66919234  1
  Na  Na41  1  0.66737039  0.66754627  0.66679470  1
  Si  Si42  1  0.34808432  0.69365416  0.24992019  1
  Si  Si43  1  0.84755380  0.69236792  0.24965751  1
  Si  Si44  1  0.00093321  0.30645236  0.24980590  1
  Si  Si45  1  0.50163511  0.30713200  0.25005211  1
  Si  Si46  1  0.65041133  0.30035086  0.75053319  1
  Si  Si47  1  0.00244765  0.69848267  0.74983225  1
  Si  Si48  1  0.50177104  0.70477853  0.75152145  1
  Si  Si49  1  0.34717362  0.99301149  0.75168027  1
  Si  Si50  1  0.85166595  0.00511403  0.75042082  1
  Si  Si51  1  0.48428464  0.33906557  0.58118592  1
  Si  Si52  1  0.97328099  0.33243938  0.58389490  1
  Si  Si53  1  0.18630018  0.04095224  0.58298073  1
  Si  Si54  1  0.69303984  0.04789911  0.58231796  1
  Si  Si55  1  0.33305171  0.62546926  0.58427835  1
  Si  Si56  1  0.82990186  0.61128854  0.58186074  1
  Si  Si57  1  0.48198772  0.62566086  0.08300767  1
  Si  Si58  1  0.97845832  0.61898258  0.08070050  1
  Si  Si59  1  0.33034560  0.04338703  0.08452990  1
  Si  Si60  1  0.83015957  0.04965140  0.08259103  1
  Si  Si61  1  0.19009181  0.33645580  0.08501757  1
  Si  Si62  1  0.69351810  0.33744070  0.08281413  1
  Si  Si63  1  0.30580704  0.66673126  0.91574266  1
  Si  Si64  1  0.80662563  0.66014635  0.91867750  1
  Si  Si65  1  0.02439541  0.38637812  0.91717369  1
  Si  Si66  1  0.52678858  0.38723528  0.91658703  1
  Si  Si67  1  0.16680059  0.95200805  0.91829056  1
  Si  Si68  1  0.66907110  0.95270743  0.91826468  1
  Si  Si69  1  0.30827158  0.95047951  0.41384343  1
  Si  Si70  1  0.80540251  0.95069191  0.41729354  1
  Si  Si71  1  0.16625724  0.37451254  0.41543252  1
  Si  Si72  1  0.66941702  0.38113198  0.41915890  1
  Si  Si73  1  0.02110430  0.66236983  0.41463767  1
  Si  Si74  1  0.52805077  0.66816653  0.41566634  1
  Sn  Sn75  1  0.99310750  0.99499331  0.35117256  1
  Sn  Sn76  1  0.49658809  0.99751012  0.35141668  1
  Sn  Sn77  1  0.99476802  0.99169876  0.85337218  1
  Sn  Sn78  1  0.50073901  0.00223942  0.85278125  1
  Sn  Sn79  1  0.99498790  0.98696571  0.64742010  1
  Sn  Sn80  1  0.50116207  0.00146042  0.64916967  1
  Sn  Sn81  1  0.99570120  0.00259425  0.14814320  1
  Sn  Sn82  1  0.49778463  0.00488420  0.14880313  1
  Sn  Sn83  1  0.33679785  0.33058785  0.68379606  1
  Sn  Sn84  1  0.33359843  0.33592065  0.98070369  1
  Sn  Sn85  1  0.33387154  0.33304292  0.47939486  1
  Sn  Sn86  1  0.16454998  0.66405002  0.51878256  1
  Ge  Ge87  1  0.83563076  0.33502225  0.68666602  1
  Ge  Ge88  1  0.34325240  0.35393403  0.18282725  1
  Ge  Ge89  1  0.84324142  0.35395317  0.18226285  1
  Ge  Ge90  1  0.83286207  0.33313269  0.98053773  1
  Ge  Ge91  1  0.83308467  0.33152886  0.48060228  1
  Ge  Ge92  1  0.16606963  0.66590901  0.01969936  1
  Ge  Ge93  1  0.66724430  0.66738268  0.01980658  1
  Ge  Ge94  1  0.66734821  0.66741264  0.51917602  1
  Ge  Ge95  1  0.16530240  0.64654791  0.31620524  1
  Ge  Ge96  1  0.66711557  0.64636463  0.31738444  1
  Ge  Ge97  1  0.16438061  0.68251075  0.81743267  1
  Ge  Ge98  1  0.66872613  0.66911491  0.81461522  1
  S  S99  1  0.14780094  0.00007646  0.24994832  1
  S  S100  1  0.64837953  0.00031658  0.24998422  1
  S  S101  1  0.14625288  0.29512175  0.75056619  1
  O  O102  1  0.10762083  0.02911908  0.30470360  1
  O  O103  1  0.60833653  0.03004470  0.30484924  1
  O  O104  1  0.40974315  0.77808604  0.30982968  1
  O  O105  1  0.90910630  0.77672354  0.30932348  1
  O  O106  1  0.47845198  0.17705877  0.30852789  1
  O  O107  1  0.97798805  0.17750174  0.30855860  1
  O  O108  1  0.10743244  0.18682128  0.80504371  1
  O  O109  1  0.61020388  0.17399728  0.80913777  1
  O  O110  1  0.47814240  0.78379784  0.81013061  1
  O  O111  1  0.97952776  0.78183155  0.80907482  1
  O  O112  1  0.41221072  0.04215748  0.81003387  1
  O  O113  1  0.91182961  0.04196304  0.81037772  1
  O  O114  1  0.38882674  0.95373137  0.69148968  1
  O  O115  1  0.89053310  0.95479979  0.69147170  1
  O  O116  1  0.09373428  0.21481427  0.69516297  1
  O  O117  1  0.58657235  0.22197057  0.69154723  1
  O  O118  1  0.02182485  0.82204858  0.69047118  1
  O  O119  1  0.52246155  0.82442481  0.69137768  1
  O  O120  1  0.39009272  0.82345544  0.19150796  1
  O  O121  1  0.88927876  0.82275553  0.19117324  1
  O  O122  1  0.02029088  0.22142357  0.19034375  1
  O  O123  1  0.52076026  0.22271930  0.19021250  1
  O  O124  1  0.09299988  0.97047497  0.19496228  1
  O  O125  1  0.59328431  0.97066764  0.19522950  1
  O  O126  1  0.44682739  0.38375064  0.64168936  1
  O  O127  1  0.93024562  0.37223127  0.64157674  1
  O  O128  1  0.24899269  0.12274850  0.64102770  1
  O  O129  1  0.75274826  0.13242350  0.64272066  1
  O  O130  1  0.31137892  0.50362563  0.64402492  1
  O  O131  1  0.81252665  0.49457536  0.64244034  1
  O  O132  1  0.43847182  0.49558483  0.13971347  1
  O  O133  1  0.93858012  0.49588125  0.13952647  1
  O  O134  1  0.31250297  0.13405648  0.14363270  1
  O  O135  1  0.81269819  0.13518619  0.14331871  1
  O  O136  1  0.25664525  0.37321583  0.14115681  1
  O  O137  1  0.75692937  0.37368154  0.14097610  1
  O  O138  1  0.22401755  0.28939446  0.02304347  1
  O  O139  1  0.73323707  0.29543172  0.02204952  1
  O  O140  1  0.42081838  0.55536369  0.02293074  1
  O  O141  1  0.91459324  0.53606233  0.02185381  1
  O  O142  1  0.35410120  0.16172695  0.02394837  1
  O  O143  1  0.85164436  0.17351953  0.02299233  1
  O  O144  1  0.22430984  0.15965927  0.52268879  1
  O  O145  1  0.73388586  0.17106520  0.52252797  1
  O  O146  1  0.35423310  0.54724501  0.52426147  1
  O  O147  1  0.85173241  0.52985655  0.52223740  1
  O  O148  1  0.41993828  0.28969130  0.52310209  1
  O  O149  1  0.91454479  0.29327825  0.52207493  1
  O  O150  1  0.26466968  0.70355853  0.97687234  1
  O  O151  1  0.76564503  0.70330916  0.97790948  1
  O  O152  1  0.08568058  0.46635312  0.97780223  1
  O  O153  1  0.58634684  0.46960947  0.97740578  1
  O  O154  1  0.14672239  0.82965997  0.97783335  1
  O  O155  1  0.64839595  0.82822958  0.97748940  1
  O  O156  1  0.27295159  0.83734714  0.47546226  1
  O  O157  1  0.76523504  0.82691465  0.47685073  1
  O  O158  1  0.14354808  0.44476335  0.47681692  1
  O  O159  1  0.64688060  0.46421366  0.47759439  1
  O  O160  1  0.07901811  0.71111535  0.47649902  1
  O  O161  1  0.58583108  0.70456128  0.47759238  1
  O  O162  1  0.06933733  0.62650382  0.35855556  1
  O  O163  1  0.57254189  0.63035650  0.35792023  1
  O  O164  1  0.24447673  0.86060429  0.35523837  1
  O  O165  1  0.74554614  0.86541471  0.35641763  1
  O  O166  1  0.18833015  0.50484184  0.35930180  1
  O  O167  1  0.69074805  0.50399161  0.36024117  1
  O  O168  1  0.06887153  0.51134757  0.85900316  1
  O  O169  1  0.56860112  0.50698840  0.85658096  1
  O  O170  1  0.18849131  0.87231508  0.85949553  1
  O  O171  1  0.68701880  0.86874472  0.85760162  1
  O  O172  1  0.24413233  0.62798942  0.85561416  1
  O  O173  1  0.74819859  0.62672347  0.85764284  1
  O  O174  1  0.01223325  0.83694182  0.40935853  1
  O  O175  1  0.51741038  0.84127979  0.41120771  1
  O  O176  1  0.40581367  0.97419300  0.41209659  1
  O  O177  1  0.90289993  0.97304094  0.41412029  1
  O  O178  1  0.08103036  0.18145295  0.40887694  1
  O  O179  1  0.58334288  0.18797799  0.41109128  1
  O  O180  1  0.01538701  0.19288066  0.91178319  1
  O  O181  1  0.51564848  0.19299857  0.91363194  1
  O  O182  1  0.08132596  0.97568940  0.91183250  1
  O  O183  1  0.58237312  0.97298643  0.91387499  1
  O  O184  1  0.40329697  0.83831967  0.91323446  1
  O  O185  1  0.90364097  0.83392226  0.91526992  1
  O  O186  1  0.49080746  0.16383537  0.58686810  1
  O  O187  1  0.98661984  0.16272975  0.58966465  1
  O  O188  1  0.09158234  0.02786708  0.58827636  1
  O  O189  1  0.59597810  0.02603330  0.58686366  1
  O  O190  1  0.42008059  0.81584281  0.58801179  1
  O  O191  1  0.91636333  0.80598713  0.58496540  1
  O  O192  1  0.49271143  0.81792984  0.09114020  1
  O  O193  1  0.98932608  0.81260006  0.08871650  1
  O  O194  1  0.41664423  0.02156000  0.08769432  1
  O  O195  1  0.91642804  0.02670420  0.08574557  1
  O  O196  1  0.09378722  0.16143662  0.09028976  1
  O  O197  1  0.59660344  0.16345743  0.08840065  1
  O  O198  1  0.34386592  0.17251251  0.74671025  1
  O  O199  1  0.83948898  0.17240853  0.74245415  1
  O  O200  1  0.23373923  0.31352210  0.74661268  1
  O  O201  1  0.74468146  0.31461859  0.74219503  1
  O  O202  1  0.41237648  0.51549838  0.74667855  1
  O  O203  1  0.91078059  0.51561169  0.74184940  1
  O  O204  1  0.34079356  0.50430717  0.24125918  1
  O  O205  1  0.84067033  0.50391931  0.24103112  1
  O  O206  1  0.40795848  0.30393441  0.24117537  1
  O  O207  1  0.90768032  0.30405847  0.24106016  1
  O  O208  1  0.23399326  0.15546386  0.24521839  1
  O  O209  1  0.73420133  0.15605915  0.24526122  1
  O  O210  1  0.31733825  0.49533916  0.91904109  1
  O  O211  1  0.81854964  0.48851207  0.92379693  1
  O  O212  1  0.42944534  0.36413609  0.91969611  1
  O  O213  1  0.92647167  0.36181556  0.92366910  1
  O  O214  1  0.25257301  0.14472975  0.92058736  1
  O  O215  1  0.75564621  0.14786809  0.92383878  1
  O  O216  1  0.31871763  0.14322929  0.41753548  1
  O  O217  1  0.81789709  0.14673364  0.42332300  1
  O  O218  1  0.25343094  0.35894673  0.41880106  1
  O  O219  1  0.75553686  0.35958927  0.42468675  1
  O  O220  1  0.43047763  0.49774447  0.41948303  1
  O  O221  1  0.92469734  0.48846774  0.42192978  1
  O  O222  1  0.18007775  0.50972546  0.07795995  1
  O  O223  1  0.68143522  0.50910653  0.07654191  1
  O  O224  1  0.07534960  0.63989609  0.07515764  1
  O  O225  1  0.57742916  0.64136094  0.07673101  1
  O  O226  1  0.24363662  0.84933594  0.07770257  1
  O  O227  1  0.74480534  0.85333385  0.07660722  1
  O  O228  1  0.17720992  0.85079267  0.57969713  1
  O  O229  1  0.68178237  0.85251621  0.57612296  1
  O  O230  1  0.24632706  0.64232600  0.58014020  1
  O  O231  1  0.74500908  0.63781673  0.57575080  1
  O  O232  1  0.07035799  0.50268059  0.58007373  1
  O  O233  1  0.57906631  0.51467552  0.57516351  1
  O  O234  1  0.15624562  0.84463613  0.25462144  1
  O  O235  1  0.65645682  0.84499273  0.25467029  1
  O  O236  1  0.25579358  0.69539987  0.25816248  1
  O  O237  1  0.75584547  0.69592793  0.25858076  1
  O  O238  1  0.08825950  0.49570717  0.25807497  1
  O  O239  1  0.58890340  0.49590013  0.25861038  1
  O  O240  1  0.15556069  0.46736770  0.75521579  1
  O  O241  1  0.65729755  0.49030170  0.75809784  1
  O  O242  1  0.08936459  0.68239063  0.75860681  1
  O  O243  1  0.58857928  0.68760603  0.75807770  1
  O  O244  1  0.25481332  0.81079535  0.75896470  1
  O  O245  1  0.75675606  0.82554250  0.75801354  1
