# generated using pymatgen
data_Na3Ti2Zn2P3(SO8)3
_symmetry_space_group_name_H-M   'P 1'
_cell_length_a   8.73547374
_cell_length_b   8.72466435
_cell_length_c   22.32541699
_cell_angle_alpha   90.17775070
_cell_angle_beta   89.82354731
_cell_angle_gamma   119.97056443
_symmetry_Int_Tables_number   1
_chemical_formula_structural   Na3Ti2Zn2P3(SO8)3
_chemical_formula_sum   'Na9 Ti6 Zn6 P9 S9 O72'
_cell_volume   1473.97926740
_cell_formula_units_Z   3
loop_
 _symmetry_equiv_pos_site_id
 _symmetry_equiv_pos_as_xyz
  1  'x, y, z'
loop_
 _atom_site_type_symbol
 _atom_site_label
 _atom_site_symmetry_multiplicity
 _atom_site_fract_x
 _atom_site_fract_y
 _atom_site_fract_z
 _atom_site_occupancy
  Na  Na0  1  0.66484216  0.69402037  0.08143230  1
  Na  Na1  1  0.33229541  0.29643924  0.91716318  1
  Na  Na2  1  0.33122557  0.03553610  0.41694020  1
  Na  Na3  1  0.98795162  0.99974913  0.49913080  1
  Na  Na4  1  0.00190137  0.99683666  0.99835533  1
  Na  Na5  1  0.68249670  0.33600890  0.83326639  1
  Na  Na6  1  0.68092795  0.34490369  0.33275834  1
  Na  Na7  1  0.31709963  0.66107182  0.16379251  1
  Na  Na8  1  0.33419534  0.67060639  0.66242602  1
  Ti  Ti9  1  0.00789129  0.99981379  0.65200197  1
  Ti  Ti10  1  0.01408119  0.00570113  0.15229106  1
  Ti  Ti11  1  0.65843403  0.32352666  0.68656971  1
  Ti  Ti12  1  0.66911582  0.34186449  0.18640727  1
  Ti  Ti13  1  0.33213715  0.66208294  0.30877746  1
  Ti  Ti14  1  0.33296578  0.67129260  0.80831903  1
  Zn  Zn15  1  0.99485344  0.00065110  0.34387235  1
  Zn  Zn16  1  0.99311808  0.99396894  0.84335783  1
  Zn  Zn17  1  0.67244086  0.33849280  0.98696211  1
  Zn  Zn18  1  0.66642775  0.33404624  0.48593474  1
  Zn  Zn19  1  0.31689653  0.65949650  0.02165563  1
  Zn  Zn20  1  0.33478452  0.67310432  0.52129158  1
  P  P21  1  0.29847088  0.00344220  0.25312602  1
  P  P22  1  0.70900363  0.70898786  0.24995853  1
  P  P23  1  0.99561401  0.29060596  0.25102918  1
  P  P24  1  0.29411095  0.29298394  0.75239718  1
  P  P25  1  0.99494653  0.70304539  0.75060505  1
  P  P26  1  0.71064455  0.00159677  0.75018194  1
  P  P27  1  0.37081131  0.04059110  0.58199728  1
  P  P28  1  0.95939048  0.62885583  0.08456417  1
  P  P29  1  0.37147367  0.32701971  0.08206689  1
  S  S30  1  0.95684711  0.32803992  0.58459060  1
  S  S31  1  0.67164289  0.62803642  0.58477051  1
  S  S32  1  0.67239753  0.04454575  0.08446289  1
  S  S33  1  0.62584193  0.67174958  0.91674300  1
  S  S34  1  0.04049468  0.37579227  0.91512315  1
  S  S35  1  0.33368116  0.95581858  0.91625665  1
  S  S36  1  0.62619056  0.95483880  0.41611869  1
  S  S37  1  0.33275195  0.37903254  0.41683005  1
  S  S38  1  0.04059166  0.66334913  0.41628273  1
  O  O39  1  0.23019833  0.03960354  0.31090585  1
  O  O40  1  0.81951461  0.77951045  0.30560622  1
  O  O41  1  0.95898345  0.18491816  0.30769296  1
  O  O42  1  0.22874435  0.18984965  0.81028730  1
  O  O43  1  0.95650094  0.77256470  0.80710563  1
  O  O44  1  0.81733722  0.04353108  0.80689834  1
  O  O45  1  0.80054851  0.96886989  0.69562814  1
  O  O46  1  0.16849402  0.19693722  0.69858228  1
  O  O47  1  0.02947588  0.82834477  0.69588379  1
  O  O48  1  0.79250800  0.82433231  0.19334618  1
  O  O49  1  0.02859612  0.19853423  0.19638673  1
  O  O50  1  0.17062766  0.97212474  0.19913197  1
  O  O51  1  0.86379988  0.34887164  0.63751287  1
  O  O52  1  0.49579309  0.14979478  0.63549170  1
  O  O53  1  0.65475287  0.51616878  0.63753036  1
  O  O54  1  0.85811731  0.50881463  0.13928403  1
  O  O55  1  0.65246582  0.13449785  0.13760538  1
  O  O56  1  0.49857575  0.34839850  0.13468893  1
  O  O57  1  0.43765167  0.29295891  0.02250617  1
  O  O58  1  0.84401399  0.55916125  0.02835023  1
  O  O59  1  0.69969843  0.14482524  0.02892364  1
  O  O60  1  0.43936561  0.14245794  0.52301820  1
  O  O61  1  0.70289885  0.55675466  0.52914837  1
  O  O62  1  0.85515890  0.29984379  0.52915917  1
  O  O63  1  0.54509046  0.68630764  0.97339569  1
  O  O64  1  0.14856449  0.45495492  0.96941658  1
  O  O65  1  0.31679993  0.85528863  0.97068984  1
  O  O66  1  0.54381477  0.85526614  0.47120556  1
  O  O67  1  0.31548959  0.46300121  0.47138945  1
  O  O68  1  0.14869108  0.69083226  0.47031741  1
  O  O69  1  0.13548001  0.64843984  0.36152688  1
  O  O70  1  0.51034812  0.85993780  0.36239369  1
  O  O71  1  0.34508901  0.48621998  0.36194072  1
  O  O72  1  0.13591296  0.48628447  0.86084244  1
  O  O73  1  0.34475492  0.85959334  0.86122923  1
  O  O74  1  0.50841009  0.65371171  0.86410336  1
  O  O75  1  0.02557061  0.82536621  0.41074544  1
  O  O76  1  0.80242860  0.97564635  0.41032209  1
  O  O77  1  0.17655931  0.19852872  0.41227254  1
  O  O78  1  0.02604506  0.19894813  0.90955382  1
  O  O79  1  0.17701168  0.97939021  0.91182826  1
  O  O80  1  0.80204897  0.82781773  0.91099002  1
  O  O81  1  0.97366095  0.16650292  0.59298982  1
  O  O82  1  0.18607843  0.02439483  0.59489825  1
  O  O83  1  0.83090450  0.80815754  0.59310349  1
  O  O84  1  0.97459202  0.81410583  0.09569667  1
  O  O85  1  0.83102464  0.02120461  0.09142268  1
  O  O86  1  0.18578771  0.16383039  0.09462586  1
  O  O87  1  0.67920545  0.15953827  0.73765385  1
  O  O88  1  0.48074009  0.32064970  0.73870188  1
  O  O89  1  0.83913093  0.51697701  0.73703267  1
  O  O90  1  0.67712348  0.51829877  0.23929926  1
  O  O91  1  0.83859941  0.31966389  0.23821302  1
  O  O92  1  0.48230782  0.16061821  0.23870613  1
  O  O93  1  0.63260382  0.50384096  0.91606079  1
  O  O94  1  0.86698488  0.36360334  0.91819736  1
  O  O95  1  0.49635240  0.13269123  0.91599837  1
  O  O96  1  0.63345755  0.13010769  0.41718309  1
  O  O97  1  0.49569829  0.36436750  0.41659735  1
  O  O98  1  0.86671483  0.50160089  0.41901855  1
  O  O99  1  0.36352573  0.49936498  0.08197046  1
  O  O100  1  0.14110539  0.64713190  0.08238664  1
  O  O101  1  0.51528887  0.86444792  0.08207339  1
  O  O102  1  0.35446076  0.85827828  0.58267812  1
  O  O103  1  0.51102921  0.64235315  0.58269216  1
  O  O104  1  0.13379176  0.48611385  0.58247356  1
  O  O105  1  0.31213169  0.83183903  0.25740244  1
  O  O106  1  0.52035655  0.68809119  0.25760962  1
  O  O107  1  0.16666618  0.47811917  0.25648642  1
  O  O108  1  0.31241641  0.48006162  0.75726785  1
  O  O109  1  0.16674915  0.68825727  0.75648214  1
  O  O110  1  0.52192548  0.83300552  0.75709733  1
