# generated using pymatgen
data_Na5Ti2Ga2SiP5O24
_symmetry_space_group_name_H-M   'P 1'
_cell_length_a   8.73151266
_cell_length_b   8.71475818
_cell_length_c   22.05323852
_cell_angle_alpha   90.12938669
_cell_angle_beta   89.86781570
_cell_angle_gamma   119.98291128
_symmetry_Int_Tables_number   1
_chemical_formula_structural   Na5Ti2Ga2SiP5O24
_chemical_formula_sum   'Na15 Ti6 Ga6 Si3 P15 O72'
_cell_volume   1453.52024192
_cell_formula_units_Z   3
loop_
 _symmetry_equiv_pos_site_id
 _symmetry_equiv_pos_as_xyz
  1  'x, y, z'
loop_
 _atom_site_type_symbol
 _atom_site_label
 _atom_site_symmetry_multiplicity
 _atom_site_fract_x
 _atom_site_fract_y
 _atom_site_fract_z
 _atom_site_occupancy
  Na  Na0  1  0.00186942  0.63670442  0.25095762  1
  Na  Na1  1  0.63222606  0.63595448  0.75078746  1
  Na  Na2  1  0.36609061  0.99879893  0.75149077  1
  Na  Na3  1  0.66679250  0.96826324  0.58355102  1
  Na  Na4  1  0.29883143  0.96832471  0.08369451  1
  Na  Na5  1  0.67096576  0.69980824  0.08293764  1
  Na  Na6  1  0.03091357  0.33215351  0.08389811  1
  Na  Na7  1  0.96759450  0.30003951  0.41614464  1
  Na  Na8  1  0.33616466  0.03520221  0.41710227  1
  Na  Na9  1  0.00139715  0.99421395  0.50039980  1
  Na  Na10  1  0.00003384  0.99758592  0.99751515  1
  Na  Na11  1  0.67318683  0.33418659  0.83704036  1
  Na  Na12  1  0.66015508  0.33386751  0.33360315  1
  Na  Na13  1  0.33915621  0.66733855  0.17001569  1
  Na  Na14  1  0.32296634  0.65715756  0.66718313  1
  Ti  Ti15  1  0.99315441  0.00188638  0.85540416  1
  Ti  Ti16  1  0.00525880  0.99900953  0.64747525  1
  Ti  Ti17  1  0.66961659  0.32553645  0.68502126  1
  Ti  Ti18  1  0.66846722  0.33359229  0.18746717  1
  Ti  Ti19  1  0.32717611  0.66609755  0.01498844  1
  Ti  Ti20  1  0.33077561  0.66725208  0.52038631  1
  Ga  Ga21  1  0.99497782  0.99565497  0.35028112  1
  Ga  Ga22  1  0.99919549  0.99624329  0.15161474  1
  Ga  Ga23  1  0.66933047  0.33802748  0.97946668  1
  Ga  Ga24  1  0.66295414  0.33908996  0.48314191  1
  Ga  Ga25  1  0.34071475  0.66659753  0.31479047  1
  Ga  Ga26  1  0.33264067  0.66592914  0.81633499  1
  Si  Si27  1  0.71049831  0.00116957  0.75020619  1
  Si  Si28  1  0.37275714  0.04505186  0.58117106  1
  Si  Si29  1  0.95536826  0.62496694  0.08247859  1
  P  P30  1  0.29257667  0.00097868  0.25116115  1
  P  P31  1  0.70547001  0.71157594  0.25027471  1
  P  P32  1  0.00251164  0.28924529  0.25039796  1
  P  P33  1  0.28542810  0.29089938  0.75098242  1
  P  P34  1  0.00059316  0.70893428  0.75123190  1
  P  P35  1  0.95807182  0.33540176  0.58170098  1
  P  P36  1  0.66711016  0.62035066  0.58318803  1
  P  P37  1  0.66820682  0.04611631  0.08259954  1
  P  P38  1  0.37826725  0.33205077  0.08281764  1
  P  P39  1  0.62257940  0.66250043  0.91585790  1
  P  P40  1  0.04018549  0.37702877  0.91496201  1
  P  P41  1  0.33667740  0.96318935  0.91531744  1
  P  P42  1  0.62524310  0.95492325  0.41585401  1
  P  P43  1  0.33733574  0.37961023  0.41568475  1
  P  P44  1  0.03954420  0.66556834  0.41567398  1
  O  O45  1  0.21101863  0.03445866  0.30834449  1
  O  O46  1  0.83066498  0.78923336  0.30518747  1
  O  O47  1  0.96651161  0.17610570  0.30783206  1
  O  O48  1  0.20432854  0.16687697  0.80596085  1
  O  O49  1  0.96557625  0.79689365  0.80619592  1
  O  O50  1  0.83908504  0.03212603  0.80827598  1
  O  O51  1  0.79841453  0.96419324  0.69051805  1
  O  O52  1  0.17118206  0.20124304  0.69417834  1
  O  O53  1  0.03564661  0.82993636  0.69465319  1
  O  O54  1  0.78535050  0.81993053  0.19155332  1
  O  O55  1  0.03198532  0.20907279  0.19195603  1
  O  O56  1  0.17627985  0.96280881  0.19341513  1
  O  O57  1  0.87015488  0.36662373  0.63835989  1
  O  O58  1  0.50131525  0.13106386  0.64166666  1
  O  O59  1  0.63627533  0.50824432  0.64111237  1
  O  O60  1  0.86868272  0.49729451  0.14305363  1
  O  O61  1  0.62934150  0.12838259  0.13918296  1
  O  O62  1  0.49838390  0.36770204  0.13914192  1
  O  O63  1  0.45529180  0.29065932  0.02726313  1
  O  O64  1  0.82704817  0.53662574  0.02587663  1
  O  O65  1  0.70417125  0.16258548  0.02708039  1
  O  O66  1  0.45936928  0.15994688  0.52129933  1
  O  O67  1  0.70430817  0.54358281  0.52681808  1
  O  O68  1  0.84149426  0.29571798  0.52505079  1
  O  O69  1  0.53653976  0.69623342  0.97349516  1
  O  O70  1  0.15905753  0.46252107  0.97354524  1
  O  O71  1  0.30433040  0.84042607  0.97302432  1
  O  O72  1  0.53877185  0.84101434  0.47377942  1
  O  O73  1  0.30083601  0.46568236  0.47201197  1
  O  O74  1  0.16425042  0.69935147  0.47135822  1
  O  O75  1  0.11995554  0.62859049  0.35867678  1
  O  O76  1  0.50206998  0.87382757  0.36114451  1
  O  O77  1  0.36520846  0.49233506  0.35949672  1
  O  O78  1  0.12854421  0.49437726  0.86002669  1
  O  O79  1  0.36655603  0.87796523  0.85874941  1
  O  O80  1  0.51133830  0.63494991  0.85860987  1
  O  O81  1  0.03021355  0.83787167  0.41099178  1
  O  O82  1  0.81258854  0.97792401  0.41080457  1
  O  O83  1  0.16635640  0.19213319  0.41137005  1
  O  O84  1  0.03057321  0.19421486  0.91084139  1
  O  O85  1  0.16602228  0.97361338  0.91064668  1
  O  O86  1  0.80756424  0.83310402  0.91080811  1
  O  O87  1  0.97126750  0.16652860  0.59043821  1
  O  O88  1  0.17825172  0.02060258  0.59133136  1
  O  O89  1  0.82860147  0.81028903  0.59004786  1
  O  O90  1  0.98120003  0.82292473  0.09075914  1
  O  O91  1  0.83331309  0.02532565  0.09038507  1
  O  O92  1  0.18987671  0.17016303  0.09071132  1
  O  O93  1  0.68808625  0.17642822  0.74401441  1
  O  O94  1  0.47259703  0.31022369  0.74332559  1
  O  O95  1  0.83012754  0.52911598  0.74307225  1
  O  O96  1  0.69279188  0.52582455  0.24299655  1
  O  O97  1  0.83425350  0.31015925  0.24385347  1
  O  O98  1  0.47646111  0.16722834  0.24281310  1
  O  O99  1  0.64014845  0.49784079  0.92244895  1
  O  O100  1  0.85739853  0.35541760  0.92306221  1
  O  O101  1  0.50177863  0.14335586  0.92449541  1
  O  O102  1  0.64601295  0.14265295  0.42215796  1
  O  O103  1  0.49928890  0.35439445  0.42158361  1
  O  O104  1  0.85863015  0.49613781  0.42393637  1
  O  O105  1  0.36105954  0.50135434  0.07730313  1
  O  O106  1  0.15366686  0.64377493  0.07671344  1
  O  O107  1  0.50167322  0.85782181  0.07729881  1
  O  O108  1  0.36119749  0.84999390  0.57585664  1
  O  O109  1  0.50182028  0.64369004  0.57657854  1
  O  O110  1  0.14254574  0.50046577  0.57626907  1
  O  O111  1  0.30540198  0.83020572  0.25674131  1
  O  O112  1  0.52153894  0.69025045  0.25642087  1
  O  O113  1  0.16264401  0.47933530  0.25568502  1
  O  O114  1  0.31027249  0.47738681  0.75609902  1
  O  O115  1  0.16800599  0.69431674  0.75629174  1
  O  O116  1  0.51443422  0.82603550  0.75636397  1
