# generated using pymatgen
data_Na7TaSi6(GeO8)3
_symmetry_space_group_name_H-M   'P 1'
_cell_length_a   8.84150982
_cell_length_b   8.84806450
_cell_length_c   21.92126970
_cell_angle_alpha   90.07681397
_cell_angle_beta   89.86183238
_cell_angle_gamma   120.04801369
_symmetry_Int_Tables_number   1
_chemical_formula_structural   Na7TaSi6(GeO8)3
_chemical_formula_sum   'Na21 Ta3 Si18 Ge9 O72'
_cell_volume   1484.42910229
_cell_formula_units_Z   3
loop_
 _symmetry_equiv_pos_site_id
 _symmetry_equiv_pos_as_xyz
  1  'x, y, z'
loop_
 _atom_site_type_symbol
 _atom_site_label
 _atom_site_symmetry_multiplicity
 _atom_site_fract_x
 _atom_site_fract_y
 _atom_site_fract_z
 _atom_site_occupancy
  Na  Na0  1  0.36900673  0.36568209  0.24877078  1
  Na  Na1  1  0.63520594  0.63132926  0.74862672  1
  Na  Na2  1  0.99618590  0.36520911  0.74855154  1
  Na  Na3  1  0.36834834  0.00394877  0.74865508  1
  Na  Na4  1  0.29815725  0.33330408  0.58274947  1
  Na  Na5  1  0.03501373  0.70179311  0.58275204  1
  Na  Na6  1  0.66676276  0.96474660  0.58273042  1
  Na  Na7  1  0.30322115  0.96656647  0.08225204  1
  Na  Na8  1  0.66301205  0.69779219  0.08231702  1
  Na  Na9  1  0.03442868  0.33734645  0.08203518  1
  Na  Na10  1  0.96451798  0.66498180  0.91824928  1
  Na  Na11  1  0.70234362  0.03394836  0.91818033  1
  Na  Na12  1  0.96609718  0.29881254  0.41581776  1
  Na  Na13  1  0.33296905  0.03475511  0.41612641  1
  Na  Na14  1  0.70135044  0.66698870  0.41579704  1
  Na  Na15  1  0.00010114  0.00004930  0.49929667  1
  Na  Na16  1  0.00726942  0.00657556  0.99661257  1
  Na  Na17  1  0.65980608  0.33258802  0.83565383  1
  Na  Na18  1  0.67275276  0.33298982  0.32998975  1
  Na  Na19  1  0.33272848  0.67230300  0.16611604  1
  Na  Na20  1  0.33322662  0.66661548  0.66372156  1
  Ta  Ta21  1  0.99940242  0.99924734  0.14568710  1
  Ta  Ta22  1  0.33296812  0.67007672  0.31111987  1
  Ta  Ta23  1  0.33439297  0.66712285  0.81412308  1
  Si  Si24  1  0.29305526  0.00424553  0.25076108  1
  Si  Si25  1  0.71633752  0.70767141  0.25149045  1
  Si  Si26  1  0.98809319  0.28504940  0.25137882  1
  Si  Si27  1  0.28489791  0.28032227  0.74863097  1
  Si  Si28  1  0.99544065  0.71485234  0.74880558  1
  Si  Si29  1  0.71947210  0.00488542  0.74872108  1
  Si  Si30  1  0.95352357  0.33329229  0.58317068  1
  Si  Si31  1  0.37983979  0.04635232  0.58330747  1
  Si  Si32  1  0.66662008  0.62039150  0.58330372  1
  Si  Si33  1  0.95127692  0.61293205  0.08193172  1
  Si  Si34  1  0.66161172  0.04950144  0.08199188  1
  Si  Si35  1  0.38725501  0.33843979  0.08204392  1
  Si  Si36  1  0.62349526  0.66205818  0.91917119  1
  Si  Si37  1  0.04368497  0.37198736  0.91932032  1
  Si  Si38  1  0.33300502  0.96372065  0.91915938  1
  Si  Si39  1  0.62523097  0.95877955  0.41913455  1
  Si  Si40  1  0.33367398  0.37514139  0.41858989  1
  Si  Si41  1  0.04134177  0.66645326  0.41910828  1
  Ge  Ge42  1  0.99932286  0.00026907  0.35206803  1
  Ge  Ge43  1  0.00369004  0.00306667  0.85404929  1
  Ge  Ge44  1  0.00047545  0.00037828  0.64563494  1
  Ge  Ge45  1  0.66652857  0.33350592  0.68553891  1
  Ge  Ge46  1  0.66991742  0.33292211  0.18778070  1
  Ge  Ge47  1  0.66397230  0.33277754  0.97949933  1
  Ge  Ge48  1  0.66660926  0.33347898  0.48089914  1
  Ge  Ge49  1  0.33260016  0.66650144  0.01958127  1
  Ge  Ge50  1  0.33319423  0.66676840  0.51932199  1
  O  O51  1  0.20426472  0.04116639  0.31066605  1
  O  O52  1  0.83408273  0.79849466  0.31200174  1
  O  O53  1  0.96544330  0.16789947  0.31209133  1
  O  O54  1  0.19938223  0.15553679  0.80773287  1
  O  O55  1  0.95740280  0.79685244  0.80975455  1
  O  O56  1  0.83838320  0.04099180  0.80967630  1
  O  O57  1  0.79892302  0.95914951  0.68864668  1
  O  O58  1  0.16129249  0.20298190  0.68800230  1
  O  O59  1  0.04098541  0.83975442  0.68871255  1
  O  O60  1  0.79960827  0.82981291  0.19046307  1
  O  O61  1  0.03343426  0.20131412  0.19111787  1
  O  O62  1  0.17037605  0.97010060  0.19015601  1
  O  O63  1  0.87072007  0.37510320  0.64403754  1
  O  O64  1  0.50439839  0.12928369  0.64400105  1
  O  O65  1  0.62505210  0.49580964  0.64400601  1
  O  O66  1  0.86613615  0.48958540  0.14107447  1
  O  O67  1  0.62146092  0.13343892  0.14115357  1
  O  O68  1  0.50394738  0.37628443  0.14374634  1
  O  O69  1  0.46867962  0.28972672  0.02388634  1
  O  O70  1  0.82848900  0.53624574  0.02131740  1
  O  O71  1  0.70949450  0.17259240  0.02126154  1
  O  O72  1  0.46319135  0.17203176  0.52354580  1
  O  O73  1  0.70887882  0.53688422  0.52352118  1
  O  O74  1  0.82784073  0.29125274  0.52350841  1
  O  O75  1  0.53630737  0.70802189  0.97713574  1
  O  O76  1  0.16696576  0.46512537  0.97835800  1
  O  O77  1  0.29204262  0.83095947  0.97715970  1
  O  O78  1  0.53902263  0.83008731  0.47880936  1
  O  O79  1  0.29144103  0.46217563  0.47815157  1
  O  O80  1  0.16998129  0.70912796  0.47876072  1
  O  O81  1  0.13192035  0.62572808  0.36091395  1
  O  O82  1  0.49432853  0.86752750  0.36101001  1
  O  O83  1  0.37347743  0.50102384  0.35892860  1
  O  O84  1  0.13080664  0.49904766  0.85842858  1
  O  O85  1  0.36909695  0.87115551  0.85837920  1
  O  O86  1  0.50307403  0.63395445  0.85771013  1
  O  O87  1  0.02454970  0.84158168  0.41135606  1
  O  O88  1  0.81771664  0.97639769  0.41176090  1
  O  O89  1  0.15858003  0.18193089  0.41174830  1
  O  O90  1  0.01903046  0.17797955  0.91066043  1
  O  O91  1  0.15239159  0.96831768  0.91016826  1
  O  O92  1  0.81532959  0.84063870  0.91065517  1
  O  O93  1  0.97354252  0.15786562  0.58918036  1
  O  O94  1  0.18413992  0.02629449  0.58925510  1
  O  O95  1  0.84238115  0.81597760  0.58930512  1
  O  O96  1  0.97525443  0.81087981  0.08732086  1
  O  O97  1  0.83555645  0.02545720  0.08780801  1
  O  O98  1  0.18885492  0.16478774  0.08755957  1
  O  O99  1  0.69414666  0.17659765  0.74327804  1
  O  O100  1  0.48244893  0.30599512  0.74303186  1
  O  O101  1  0.82326809  0.51766083  0.74325674  1
  O  O102  1  0.68803013  0.51320526  0.24406672  1
  O  O103  1  0.81934691  0.30514538  0.24367204  1
  O  O104  1  0.48010703  0.18036275  0.24361057  1
  O  O105  1  0.64701382  0.49188247  0.92277410  1
  O  O106  1  0.85148229  0.35873515  0.92271271  1
  O  O107  1  0.51434050  0.14919316  0.92290524  1
  O  O108  1  0.64156698  0.15136521  0.42445564  1
  O  O109  1  0.50993133  0.35833253  0.42449389  1
  O  O110  1  0.84853206  0.48998350  0.42453328  1
  O  O111  1  0.36115433  0.51043571  0.07658525  1
  O  O112  1  0.15005814  0.64052786  0.07675171  1
  O  O113  1  0.48994926  0.85098519  0.07624605  1
  O  O114  1  0.35957301  0.85082274  0.57752477  1
  O  O115  1  0.49109675  0.64031751  0.57750854  1
  O  O116  1  0.14923380  0.50893976  0.57742640  1
  O  O117  1  0.30818511  0.82820229  0.25572754  1
  O  O118  1  0.51978407  0.68557951  0.25660203  1
  O  O119  1  0.17188120  0.47454225  0.25677822  1
  O  O120  1  0.30768348  0.47744705  0.75495545  1
  O  O121  1  0.16984411  0.69235646  0.75499935  1
  O  O122  1  0.52221475  0.83046312  0.75450602  1
