# generated using pymatgen
data_Hg(Mo3Cl7)2
_symmetry_space_group_name_H-M   'P 1'
_cell_length_a   12.92440559
_cell_length_b   12.92440559
_cell_length_c   12.92440559
_cell_angle_alpha   90.00000000
_cell_angle_beta   90.00000000
_cell_angle_gamma   90.00000000
_symmetry_Int_Tables_number   1
_chemical_formula_structural   Hg(Mo3Cl7)2
_chemical_formula_sum   'Hg4 Mo24 Cl56'
_cell_volume   2158.89606822
_cell_formula_units_Z   4
loop_
 _symmetry_equiv_pos_site_id
 _symmetry_equiv_pos_as_xyz
  1  'x, y, z'
loop_
 _atom_site_type_symbol
 _atom_site_label
 _atom_site_symmetry_multiplicity
 _atom_site_fract_x
 _atom_site_fract_y
 _atom_site_fract_z
 _atom_site_occupancy
  Hg  Hg0  1  0.75000000  0.75000000  0.75000000  1
  Hg  Hg1  1  0.25000000  0.25000000  0.75000000  1
  Hg  Hg2  1  0.75000000  0.25000000  0.25000000  1
  Hg  Hg3  1  0.25000000  0.75000000  0.25000000  1
  Mo  Mo4  1  0.38672830  0.22524329  0.28055277  1
  Mo  Mo5  1  0.28055277  0.38672830  0.22524329  1
  Mo  Mo6  1  0.22524329  0.28055277  0.38672830  1
  Mo  Mo7  1  0.77475671  0.71944723  0.38672830  1
  Mo  Mo8  1  0.28055277  0.61327170  0.77475671  1
  Mo  Mo9  1  0.77475671  0.28055277  0.61327170  1
  Mo  Mo10  1  0.71944723  0.61327170  0.22524329  1
  Mo  Mo11  1  0.71944723  0.38672830  0.77475671  1
  Mo  Mo12  1  0.22524329  0.71944723  0.61327170  1
  Mo  Mo13  1  0.38672830  0.77475671  0.71944723  1
  Mo  Mo14  1  0.61327170  0.22524329  0.71944723  1
  Mo  Mo15  1  0.61327170  0.77475671  0.28055277  1
  Mo  Mo16  1  0.11327170  0.27475671  0.21944723  1
  Mo  Mo17  1  0.21944723  0.11327170  0.27475671  1
  Mo  Mo18  1  0.27475671  0.21944723  0.11327170  1
  Mo  Mo19  1  0.72524329  0.78055277  0.11327170  1
  Mo  Mo20  1  0.21944723  0.88672830  0.72524329  1
  Mo  Mo21  1  0.72524329  0.21944723  0.88672830  1
  Mo  Mo22  1  0.78055277  0.88672830  0.27475671  1
  Mo  Mo23  1  0.78055277  0.11327170  0.72524329  1
  Mo  Mo24  1  0.27475671  0.78055277  0.88672830  1
  Mo  Mo25  1  0.11327170  0.72524329  0.78055277  1
  Mo  Mo26  1  0.88672830  0.27475671  0.78055277  1
  Mo  Mo27  1  0.88672830  0.72524329  0.21944723  1
  Cl  Cl28  1  0.38624267  0.38624267  0.38624267  1
  Cl  Cl29  1  0.61375733  0.61375733  0.38624267  1
  Cl  Cl30  1  0.38624267  0.61375733  0.61375733  1
  Cl  Cl31  1  0.61375733  0.38624267  0.61375733  1
  Cl  Cl32  1  0.11375733  0.11375733  0.11375733  1
  Cl  Cl33  1  0.88624267  0.88624267  0.11375733  1
  Cl  Cl34  1  0.11375733  0.88624267  0.88624267  1
  Cl  Cl35  1  0.88624267  0.11375733  0.88624267  1
  Cl  Cl36  1  0.37535224  0.06708277  0.17320568  1
  Cl  Cl37  1  0.17320568  0.37535224  0.06708277  1
  Cl  Cl38  1  0.06708277  0.17320568  0.37535224  1
  Cl  Cl39  1  0.93291723  0.82679432  0.37535224  1
  Cl  Cl40  1  0.17320568  0.62464776  0.93291723  1
  Cl  Cl41  1  0.93291723  0.17320568  0.62464776  1
  Cl  Cl42  1  0.82679432  0.62464776  0.06708277  1
  Cl  Cl43  1  0.82679432  0.37535224  0.93291723  1
  Cl  Cl44  1  0.06708277  0.82679432  0.62464776  1
  Cl  Cl45  1  0.37535224  0.93291723  0.82679432  1
  Cl  Cl46  1  0.62464776  0.06708277  0.82679432  1
  Cl  Cl47  1  0.62464776  0.93291723  0.17320568  1
  Cl  Cl48  1  0.12464776  0.43291723  0.32679432  1
  Cl  Cl49  1  0.32679432  0.12464776  0.43291723  1
  Cl  Cl50  1  0.43291723  0.32679432  0.12464776  1
  Cl  Cl51  1  0.56708277  0.67320568  0.12464776  1
  Cl  Cl52  1  0.32679432  0.87535224  0.56708277  1
  Cl  Cl53  1  0.56708277  0.32679432  0.87535224  1
  Cl  Cl54  1  0.67320568  0.87535224  0.43291723  1
  Cl  Cl55  1  0.67320568  0.12464776  0.56708277  1
  Cl  Cl56  1  0.43291723  0.67320568  0.87535224  1
  Cl  Cl57  1  0.12464776  0.56708277  0.67320568  1
  Cl  Cl58  1  0.87535224  0.43291723  0.67320568  1
  Cl  Cl59  1  0.87535224  0.56708277  0.32679432  1
  Cl  Cl60  1  0.56715884  0.18691606  0.32878662  1
  Cl  Cl61  1  0.32878662  0.56715884  0.18691606  1
  Cl  Cl62  1  0.18691606  0.32878662  0.56715884  1
  Cl  Cl63  1  0.81308394  0.67121338  0.56715884  1
  Cl  Cl64  1  0.32878662  0.43284116  0.81308394  1
  Cl  Cl65  1  0.81308394  0.32878662  0.43284116  1
  Cl  Cl66  1  0.67121338  0.43284116  0.18691606  1
  Cl  Cl67  1  0.67121338  0.56715884  0.81308394  1
  Cl  Cl68  1  0.18691606  0.67121338  0.43284116  1
  Cl  Cl69  1  0.56715884  0.81308394  0.67121338  1
  Cl  Cl70  1  0.43284116  0.18691606  0.67121338  1
  Cl  Cl71  1  0.43284116  0.81308394  0.32878662  1
  Cl  Cl72  1  0.93284116  0.31308394  0.17121338  1
  Cl  Cl73  1  0.17121338  0.93284116  0.31308394  1
  Cl  Cl74  1  0.31308394  0.17121338  0.93284116  1
  Cl  Cl75  1  0.68691606  0.82878662  0.93284116  1
  Cl  Cl76  1  0.17121338  0.06715884  0.68691606  1
  Cl  Cl77  1  0.68691606  0.17121338  0.06715884  1
  Cl  Cl78  1  0.82878662  0.06715884  0.31308394  1
  Cl  Cl79  1  0.82878662  0.93284116  0.68691606  1
  Cl  Cl80  1  0.31308394  0.82878662  0.06715884  1
  Cl  Cl81  1  0.93284116  0.68691606  0.82878662  1
  Cl  Cl82  1  0.06715884  0.31308394  0.82878662  1
  Cl  Cl83  1  0.06715884  0.68691606  0.17121338  1
