# generated using pymatgen
data_MgMn4(OF)4
_symmetry_space_group_name_H-M   'P 1'
_cell_length_a   5.23107775
_cell_length_b   6.15354861
_cell_length_c   5.17450402
_cell_angle_alpha   86.91425333
_cell_angle_beta   83.78431866
_cell_angle_gamma   80.50424442
_symmetry_Int_Tables_number   1
_chemical_formula_structural   MgMn4(OF)4
_chemical_formula_sum   'Mg1 Mn4 O4 F4'
_cell_volume   163.20768823
_cell_formula_units_Z   1
loop_
 _symmetry_equiv_pos_site_id
 _symmetry_equiv_pos_as_xyz
  1  'x, y, z'
loop_
 _atom_site_type_symbol
 _atom_site_label
 _atom_site_symmetry_multiplicity
 _atom_site_fract_x
 _atom_site_fract_y
 _atom_site_fract_z
 _atom_site_occupancy
  Mg  Mg0  1  0.46526088  0.91923044  0.72899249  1
  Mn  Mn1  1  0.00298279  0.69596833  0.67692741  1
  Mn  Mn2  1  0.02930217  0.16147638  0.23797610  1
  Mn  Mn3  1  0.52925004  0.36476471  0.79124711  1
  Mn  Mn4  1  0.50715236  0.64528290  0.26210066  1
  O  O5  1  0.30562637  0.17450362  0.94141525  1
  O  O6  1  0.24847817  0.87787401  0.43761830  1
  O  O7  1  0.72524568  0.39760365  0.08079630  1
  O  O8  1  0.67522689  0.60631185  0.57735632  1
  F  F9  1  0.25719559  0.41600885  0.49680720  1
  F  F10  1  0.28010307  0.68866150  0.96047137  1
  F  F11  1  0.73226456  0.09624224  0.55024564  1
  F  F12  1  0.74190743  0.84892853  -0.00445615  1
