# generated using pymatgen
data_Sr2Bi2O5
_symmetry_space_group_name_H-M   'P 1'
_cell_length_a   6.20776775
_cell_length_b   7.67526189
_cell_length_c   14.32607123
_cell_angle_alpha   90.00000000
_cell_angle_beta   90.00000000
_cell_angle_gamma   90.00000000
_symmetry_Int_Tables_number   1
_chemical_formula_structural   Sr2Bi2O5
_chemical_formula_sum   'Sr8 Bi8 O20'
_cell_volume   682.58347441
_cell_formula_units_Z   4
loop_
 _symmetry_equiv_pos_site_id
 _symmetry_equiv_pos_as_xyz
  1  'x, y, z'
loop_
 _atom_site_type_symbol
 _atom_site_label
 _atom_site_symmetry_multiplicity
 _atom_site_fract_x
 _atom_site_fract_y
 _atom_site_fract_z
 _atom_site_occupancy
  Sr  Sr0  1  0.25000000  0.37340181  0.43459297  1
  Sr  Sr1  1  0.75000000  0.87340181  0.06540703  1
  Sr  Sr2  1  0.75000000  0.62659819  0.56540703  1
  Sr  Sr3  1  0.25000000  0.12659819  0.93459297  1
  Sr  Sr4  1  0.75000000  0.37697423  0.05272693  1
  Sr  Sr5  1  0.25000000  0.87697423  0.44727307  1
  Sr  Sr6  1  0.75000000  0.12302577  0.55272693  1
  Sr  Sr7  1  0.25000000  0.62302577  0.94727307  1
  Bi  Bi8  1  0.75000000  0.88404299  0.81400719  1
  Bi  Bi9  1  0.75000000  0.13246552  0.30682991  1
  Bi  Bi10  1  0.75000000  0.36753448  0.80682991  1
  Bi  Bi11  1  0.25000000  0.63246552  0.19317009  1
  Bi  Bi12  1  0.75000000  0.61595701  0.31400719  1
  Bi  Bi13  1  0.25000000  0.38404299  0.68599281  1
  Bi  Bi14  1  0.25000000  0.11595701  0.18599281  1
  Bi  Bi15  1  0.25000000  0.86753448  0.69317009  1
  O  O16  1  0.51013465  0.11801961  0.40622155  1
  O  O17  1  0.50905935  0.86710474  0.91261405  1
  O  O18  1  0.48986535  0.61801961  0.09377845  1
  O  O19  1  0.01013465  0.88198039  0.59377845  1
  O  O20  1  0.25000000  0.37215469  0.24489891  1
  O  O21  1  0.98986535  0.11801961  0.40622155  1
  O  O22  1  0.99094065  0.63289526  0.41261405  1
  O  O23  1  0.75000000  0.62784531  0.75510109  1
  O  O24  1  0.48986535  0.88198039  0.59377845  1
  O  O25  1  0.51013465  0.38198039  0.90622155  1
  O  O26  1  0.49094065  0.13289526  0.08738595  1
  O  O27  1  0.99094065  0.86710474  0.91261405  1
  O  O28  1  0.01013465  0.61801961  0.09377845  1
  O  O29  1  0.00905935  0.13289526  0.08738595  1
  O  O30  1  0.49094065  0.36710474  0.58738595  1
  O  O31  1  0.25000000  0.12784531  0.74489891  1
  O  O32  1  0.00905935  0.36710474  0.58738595  1
  O  O33  1  0.98986535  0.38198039  0.90622155  1
  O  O34  1  0.50905935  0.63289526  0.41261405  1
  O  O35  1  0.75000000  0.87215469  0.25510109  1
