# generated using pymatgen
data_Na3CuO3
_symmetry_space_group_name_H-M   'P 1'
_cell_length_a   8.04333329
_cell_length_b   8.04333329
_cell_length_c   16.25436899
_cell_angle_alpha   90.00000000
_cell_angle_beta   90.00000000
_cell_angle_gamma   94.90040163
_symmetry_Int_Tables_number   1
_chemical_formula_structural   Na3CuO3
_chemical_formula_sum   'Na36 Cu12 O36'
_cell_volume   1047.73598079
_cell_formula_units_Z   12
loop_
 _symmetry_equiv_pos_site_id
 _symmetry_equiv_pos_as_xyz
  1  'x, y, z'
loop_
 _atom_site_type_symbol
 _atom_site_label
 _atom_site_symmetry_multiplicity
 _atom_site_fract_x
 _atom_site_fract_y
 _atom_site_fract_z
 _atom_site_occupancy
  Na  Na0  1  0.52411263  0.47588737  0.28013727  1
  Na  Na1  1  0.97588737  0.02411263  0.78013727  1
  Na  Na2  1  0.47588737  0.52411263  0.71986273  1
  Na  Na3  1  0.02411263  0.97588737  0.21986273  1
  Na  Na4  1  0.16684833  0.33315167  0.25000000  1
  Na  Na5  1  0.33315167  0.16684833  0.75000000  1
  Na  Na6  1  0.83315167  0.66684833  0.75000000  1
  Na  Na7  1  0.66684833  0.83315167  0.25000000  1
  Na  Na8  1  0.32881549  0.67118451  0.22065316  1
  Na  Na9  1  0.17118451  0.82881549  0.72065316  1
  Na  Na10  1  0.67118451  0.32881549  0.77934684  1
  Na  Na11  1  0.82881549  0.17118451  0.27934684  1
  Na  Na12  1  0.12640828  0.47856050  0.07106710  1
  Na  Na13  1  0.37359172  0.02143950  0.57106710  1
  Na  Na14  1  0.47856050  0.12640828  0.92893290  1
  Na  Na15  1  0.02143950  0.37359172  0.42893290  1
  Na  Na16  1  0.87359172  0.52143950  0.92893290  1
  Na  Na17  1  0.62640828  0.97856050  0.42893290  1
  Na  Na18  1  0.52143950  0.87359172  0.07106710  1
  Na  Na19  1  0.97856050  0.62640828  0.57106710  1
  Na  Na20  1  0.17885934  0.22972532  0.91339069  1
  Na  Na21  1  0.32114066  0.27027468  0.41339069  1
  Na  Na22  1  0.22972532  0.17885934  0.08660931  1
  Na  Na23  1  0.27027468  0.32114066  0.58660931  1
  Na  Na24  1  0.82114066  0.77027468  0.08660931  1
  Na  Na25  1  0.67885934  0.72972532  0.58660931  1
  Na  Na26  1  0.77027468  0.82114066  0.91339069  1
  Na  Na27  1  0.72972532  0.67885934  0.41339069  1
  Na  Na28  1  0.16118741  0.51563368  0.81414887  1
  Na  Na29  1  0.33881259  0.98436632  0.31414887  1
  Na  Na30  1  0.51563368  0.16118741  0.18585113  1
  Na  Na31  1  0.98436632  0.33881259  0.68585113  1
  Na  Na32  1  0.83881259  0.48436632  0.18585113  1
  Na  Na33  1  0.66118741  0.01563368  0.68585113  1
  Na  Na34  1  0.48436632  0.83881259  0.81414887  1
  Na  Na35  1  0.01563368  0.66118741  0.31414887  1
  Cu  Cu36  1  0.84869227  0.15130773  0.07818930  1
  Cu  Cu37  1  0.65130773  0.34869227  0.57818930  1
  Cu  Cu38  1  0.15130773  0.84869227  0.92181070  1
  Cu  Cu39  1  0.34869227  0.65130773  0.42181070  1
  Cu  Cu40  1  0.82813174  0.17186826  0.90892003  1
  Cu  Cu41  1  0.67186826  0.32813174  0.40892003  1
  Cu  Cu42  1  0.17186826  0.82813174  0.09107997  1
  Cu  Cu43  1  0.32813174  0.67186826  0.59107997  1
  Cu  Cu44  1  0.49881314  0.50118686  0.08402345  1
  Cu  Cu45  1  0.00118686  0.99881314  0.58402345  1
  Cu  Cu46  1  0.50118686  0.49881314  0.91597655  1
  Cu  Cu47  1  0.99881314  0.00118686  0.41597655  1
  O  O48  1  0.98244709  0.25720409  0.15433467  1
  O  O49  1  0.51755291  0.24279591  0.65433467  1
  O  O50  1  0.25720409  0.98244709  0.84566533  1
  O  O51  1  0.24279591  0.51755291  0.34566533  1
  O  O52  1  0.01755291  0.74279591  0.84566533  1
  O  O53  1  0.48244709  0.75720409  0.34566533  1
  O  O54  1  0.74279591  0.01755291  0.15433467  1
  O  O55  1  0.75720409  0.48244709  0.65433467  1
  O  O56  1  0.95189148  0.27574904  0.99358178  1
  O  O57  1  0.54810852  0.22425096  0.49358178  1
  O  O58  1  0.27574904  0.95189148  0.00641822  1
  O  O59  1  0.22425096  0.54810852  0.50641822  1
  O  O60  1  0.04810852  0.72425096  0.00641822  1
  O  O61  1  0.45189148  0.77574904  0.50641822  1
  O  O62  1  0.72425096  0.04810852  0.99358178  1
  O  O63  1  0.77574904  0.45189148  0.49358178  1
  O  O64  1  0.94458220  0.30239181  0.83177044  1
  O  O65  1  0.55541780  0.19760819  0.33177044  1
  O  O66  1  0.30239181  0.94458220  0.16822956  1
  O  O67  1  0.19760819  0.55541780  0.66822956  1
  O  O68  1  0.05541780  0.69760819  0.16822956  1
  O  O69  1  0.44458220  0.80239181  0.66822956  1
  O  O70  1  0.69760819  0.05541780  0.83177044  1
  O  O71  1  0.80239181  0.44458220  0.33177044  1
  O  O72  1  0.38376994  0.38376994  0.00000000  1
  O  O73  1  0.11623006  0.11623006  0.50000000  1
  O  O74  1  0.61623006  0.61623006  0.00000000  1
  O  O75  1  0.88376994  0.88376994  0.50000000  1
  O  O76  1  0.37073538  0.39049998  0.16113238  1
  O  O77  1  0.12926462  0.10950002  0.66113238  1
  O  O78  1  0.39049998  0.37073538  0.83886762  1
  O  O79  1  0.10950002  0.12926462  0.33886762  1
  O  O80  1  0.62926462  0.60950002  0.83886762  1
  O  O81  1  0.87073538  0.89049998  0.33886762  1
  O  O82  1  0.60950002  0.62926462  0.16113238  1
  O  O83  1  0.89049998  0.87073538  0.66113238  1
