# generated using pymatgen
data_Na5Ca2Sc2P3(SO8)3
_symmetry_space_group_name_H-M   'P 1'
_cell_length_a   9.19624361
_cell_length_b   9.21360977
_cell_length_c   22.88439455
_cell_angle_alpha   90.53005683
_cell_angle_beta   90.09968037
_cell_angle_gamma   120.11371529
_symmetry_Int_Tables_number   1
_chemical_formula_structural   Na5Ca2Sc2P3(SO8)3
_chemical_formula_sum   'Na15 Ca6 Sc6 P9 S9 O72'
_cell_volume   1677.18569972
_cell_formula_units_Z   3
loop_
 _symmetry_equiv_pos_site_id
 _symmetry_equiv_pos_as_xyz
  1  'x, y, z'
loop_
 _atom_site_type_symbol
 _atom_site_label
 _atom_site_symmetry_multiplicity
 _atom_site_fract_x
 _atom_site_fract_y
 _atom_site_fract_z
 _atom_site_occupancy
  Na  Na0  1  0.64731038  0.01539697  0.25337177  1
  Na  Na1  1  0.00132199  0.63089272  0.24242531  1
  Na  Na2  1  0.63464460  0.63677317  0.74371632  1
  Na  Na3  1  0.99374522  0.35116784  0.74664991  1
  Na  Na4  1  0.31040674  0.34571944  0.58651285  1
  Na  Na5  1  0.66755305  0.96447867  0.57672938  1
  Na  Na6  1  0.30024753  0.96016880  0.07853504  1
  Na  Na7  1  0.69209210  0.02496471  0.91109666  1
  Na  Na8  1  0.96490818  0.29368596  0.41207754  1
  Na  Na9  1  0.97885412  0.96801700  0.49822572  1
  Na  Na10  1  0.00909477  0.98744973  0.99882118  1
  Na  Na11  1  0.62669933  0.30800677  0.83180605  1
  Na  Na12  1  0.63275309  0.31317140  0.33387914  1
  Na  Na13  1  0.31131272  0.63393650  0.16485298  1
  Na  Na14  1  0.32337788  0.66675613  0.66527971  1
  Ca  Ca15  1  0.00461651  0.00175204  0.35041614  1
  Ca  Ca16  1  0.01876420  0.00606736  0.85181921  1
  Ca  Ca17  1  0.66292166  0.32946674  0.68300708  1
  Ca  Ca18  1  0.66799212  0.33653600  0.18209681  1
  Ca  Ca19  1  0.32412209  0.66019176  0.01725179  1
  Ca  Ca20  1  0.33461687  0.66958463  0.51531853  1
  Sc  Sc21  1  0.99371629  0.00216440  0.65063452  1
  Sc  Sc22  1  0.00841297  0.00464412  0.15119159  1
  Sc  Sc23  1  0.67580593  0.34867718  0.98379897  1
  Sc  Sc24  1  0.67333342  0.33727203  0.48477318  1
  Sc  Sc25  1  0.33870854  0.67475278  0.31629576  1
  Sc  Sc26  1  0.34012364  0.68242154  0.81655932  1
  P  P27  1  0.29760656  0.99165608  0.24951390  1
  P  P28  1  0.00760742  0.30174781  0.25269291  1
  P  P29  1  0.29663926  0.30820505  0.74887265  1
  P  P30  1  0.70011454  0.99394813  0.75320969  1
  P  P31  1  0.96529321  0.32634359  0.58488933  1
  P  P32  1  0.67373277  0.63518536  0.58549861  1
  P  P33  1  0.96412886  0.64152014  0.08703923  1
  P  P34  1  0.34655170  0.97348528  0.92211307  1
  P  P35  1  0.63289057  0.97555969  0.41844493  1
  S  S36  1  0.70039808  0.70932809  0.24975118  1
  S  S37  1  0.00766511  0.70735382  0.74980850  1
  S  S38  1  0.36412181  0.04037337  0.58207186  1
  S  S39  1  0.67722739  0.03902940  0.08239326  1
  S  S40  1  0.36551960  0.32486686  0.08276455  1
  S  S41  1  0.62678054  0.65984992  0.91552924  1
  S  S42  1  0.02571985  0.37039987  0.91483553  1
  S  S43  1  0.34340315  0.37482107  0.41754354  1
  S  S44  1  0.02906504  0.65730486  0.41547707  1
  O  O45  1  0.21215518  0.00873055  0.30304301  1
  O  O46  1  0.79869353  0.78331465  0.30278987  1
  O  O47  1  0.97692089  0.20333549  0.30918224  1
  O  O48  1  0.21113861  0.20264051  0.80156065  1
  O  O49  1  0.98255032  0.78163060  0.80221783  1
  O  O50  1  0.79871349  0.00981919  0.80870213  1
  O  O51  1  0.79145553  0.96862260  0.69843210  1
  O  O52  1  0.18927695  0.21809861  0.69172284  1
  O  O53  1  0.02688147  0.81049213  0.69755170  1
  O  O54  1  0.78659611  0.81769888  0.19828726  1
  O  O55  1  0.02242849  0.20038530  0.19978323  1
  O  O56  1  0.18748581  0.96879902  0.19319138  1
  O  O57  1  0.88894852  0.34414274  0.64160008  1
  O  O58  1  0.46312479  0.11357139  0.63548892  1
  O  O59  1  0.64597113  0.53863338  0.64224799  1
  O  O60  1  0.89114465  0.55361630  0.14475353  1
  O  O61  1  0.65292280  0.11524850  0.13591637  1
  O  O62  1  0.45864141  0.34360262  0.13667460  1
  O  O63  1  0.45615083  0.30574108  0.03139378  1
  O  O64  1  0.84608527  0.53563646  0.03449942  1
  O  O65  1  0.69202635  0.14376500  0.03025475  1
  O  O66  1  0.45305307  0.14942780  0.53103888  1
  O  O67  1  0.68588109  0.53228418  0.53276389  1
  O  O68  1  0.84921653  0.30553435  0.53071609  1
  O  O69  1  0.54181479  0.67876270  0.96664442  1
  O  O70  1  0.12777624  0.45051048  0.96633073  1
  O  O71  1  0.33447663  0.88235593  0.97870479  1
  O  O72  1  0.55365759  0.88211282  0.47480699  1
  O  O73  1  0.32305591  0.44710650  0.47264472  1
  O  O74  1  0.12774382  0.67487396  0.46776020  1
  O  O75  1  0.11483018  0.63835858  0.36216173  1
  O  O76  1  0.52195095  0.87679507  0.36309847  1
  O  O77  1  0.35614566  0.48306221  0.36721592  1
  O  O78  1  0.10915138  0.46673659  0.86086345  1
  O  O79  1  0.36573910  0.86996271  0.86911136  1
  O  O80  1  0.52564255  0.63965813  0.86093461  1
  O  O81  1  0.00123883  0.80031905  0.41134074  1
  O  O82  1  0.81320088  0.00415162  0.41446934  1
  O  O83  1  0.19081213  0.20697284  0.41180376  1
  O  O84  1  0.99066899  0.19423727  0.91188241  1
  O  O85  1  0.19460114  0.99657271  0.91614115  1
  O  O86  1  0.79425877  0.81347721  0.91167036  1
  O  O87  1  0.97093585  0.15641730  0.58633710  1
  O  O88  1  0.19806431  0.03291601  0.58569248  1
  O  O89  1  0.83577323  0.81332770  0.58755846  1
  O  O90  1  0.98100604  0.82055108  0.08670248  1
  O  O91  1  0.83230990  0.02736381  0.08636167  1
  O  O92  1  0.19831227  0.16287526  0.08486333  1
  O  O93  1  0.68612145  0.15229105  0.74721831  1
  O  O94  1  0.48004648  0.34711889  0.74603437  1
  O  O95  1  0.85969882  0.53455401  0.74416886  1
  O  O96  1  0.67666007  0.53899261  0.24327745  1
  O  O97  1  0.85355148  0.32711569  0.24515438  1
  O  O98  1  0.48016739  0.13744442  0.24519767  1
  O  O99  1  0.64375232  0.50719795  0.92006823  1
  O  O100  1  0.85624962  0.35945925  0.91928538  1
  O  O101  1  0.51698209  0.14734943  0.92219955  1
  O  O102  1  0.64894654  0.15477468  0.41981403  1
  O  O103  1  0.49777138  0.36101204  0.41943876  1
  O  O104  1  0.86273846  0.49506574  0.41867114  1
  O  O105  1  0.33828879  0.46819136  0.07695651  1
  O  O106  1  0.14392298  0.66917102  0.08140373  1
  O  O107  1  0.52600087  0.86952132  0.07703694  1
  O  O108  1  0.34252453  0.87080057  0.57590090  1
  O  O109  1  0.52006068  0.66189939  0.57902884  1
  O  O110  1  0.14675466  0.47222798  0.57897963  1
  O  O111  1  0.30623163  0.82294189  0.25345052  1
  O  O112  1  0.53275208  0.70125357  0.25339934  1
  O  O113  1  0.16919085  0.48042055  0.25595590  1
  O  O114  1  0.29960954  0.48216500  0.75309994  1
  O  O115  1  0.16166329  0.68946232  0.75413768  1
  O  O116  1  0.52322966  0.82765867  0.75495023  1
