# generated using pymatgen
data_Na2TiAl(PO4)3
_symmetry_space_group_name_H-M   'P 1'
_cell_length_a   8.61209130
_cell_length_b   8.61209103
_cell_length_c   21.97413041
_cell_angle_alpha   90.14521651
_cell_angle_beta   89.85478350
_cell_angle_gamma   120.41497666
_symmetry_Int_Tables_number   1
_chemical_formula_structural   Na2TiAl(PO4)3
_chemical_formula_sum   'Na12 Ti6 Al6 P18 O72'
_cell_volume   1405.48574785
_cell_formula_units_Z   6
loop_
 _symmetry_equiv_pos_site_id
 _symmetry_equiv_pos_as_xyz
  1  'x, y, z'
loop_
 _atom_site_type_symbol
 _atom_site_label
 _atom_site_symmetry_multiplicity
 _atom_site_fract_x
 _atom_site_fract_y
 _atom_site_fract_z
 _atom_site_occupancy
  Na  Na0  1  0.36469869  0.36364693  0.24967236  1
  Na  Na1  1  0.63635307  0.63530131  0.74967236  1
  Na  Na2  1  0.03136569  0.69697993  0.58300536  1
  Na  Na3  1  0.30302007  0.96863431  0.08300536  1
  Na  Na4  1  0.69803169  0.03031393  0.91633936  1
  Na  Na5  1  0.96968607  0.30196831  0.41633936  1
  Na  Na6  1  0.99976968  0.99951702  0.49890393  1
  Na  Na7  1  0.00048298  0.00023032  0.99890393  1
  Na  Na8  1  0.66643668  0.33285002  0.83223693  1
  Na  Na9  1  0.66714998  0.33356332  0.33223693  1
  Na  Na10  1  0.33310268  0.66618402  0.16557093  1
  Na  Na11  1  0.33381598  0.66689732  0.66557093  1
  Ti  Ti12  1  0.00138307  0.00724327  0.64732509  1
  Ti  Ti13  1  0.99275673  0.99861693  0.14732509  1
  Ti  Ti14  1  0.66805007  0.34057627  0.98065809  1
  Ti  Ti15  1  0.65942373  0.33194993  0.48065809  1
  Ti  Ti16  1  0.33471607  0.67391027  0.31399209  1
  Ti  Ti17  1  0.32608973  0.66528393  0.81399209  1
  Al  Al18  1  0.99972606  0.99463323  0.35230745  1
  Al  Al19  1  0.00536677  0.00027394  0.85230745  1
  Al  Al20  1  0.66639306  0.32796623  0.68564045  1
  Al  Al21  1  0.67203377  0.33360694  0.18564045  1
  Al  Al22  1  0.33305906  0.66130023  0.01897445  1
  Al  Al23  1  0.33869977  0.66694094  0.51897445  1
  P  P24  1  0.28934140  0.00118750  0.25042680  1
  P  P25  1  0.71537546  0.71008401  0.25145324  1
  P  P26  1  0.99116590  0.28546921  0.25142049  1
  P  P27  1  0.28991599  0.28462454  0.75145324  1
  P  P28  1  0.99881250  0.71065860  0.75042680  1
  P  P29  1  0.71453079  0.00883410  0.75142049  1
  P  P30  1  0.95600840  0.33452050  0.58375980  1
  P  P31  1  0.38204246  0.04341701  0.58478624  1
  P  P32  1  0.65783290  0.61880221  0.58475349  1
  P  P33  1  0.95658299  0.61795754  0.08478624  1
  P  P34  1  0.66547950  0.04399160  0.08375980  1
  P  P35  1  0.38119779  0.34216710  0.08475349  1
  P  P36  1  0.62267440  0.66785450  0.91709380  1
  P  P37  1  0.04870846  0.37675101  0.91812024  1
  P  P38  1  0.32449890  0.95213621  0.91808749  1
  P  P39  1  0.62324899  0.95129154  0.41812024  1
  P  P40  1  0.33214550  0.37732560  0.41709380  1
  P  P41  1  0.04786379  0.67550110  0.41808749  1
  O  O42  1  0.20245336  0.03715443  0.30568335  1
  O  O43  1  0.83189191  0.79928557  0.30697817  1
  O  O44  1  0.96754188  0.17243571  0.30842564  1
  O  O45  1  0.20071443  0.16810809  0.80697817  1
  O  O46  1  0.96284557  0.79754664  0.80568335  1
  O  O47  1  0.82756429  0.03245812  0.80842564  1
  O  O48  1  0.79831077  0.96588970  0.69496062  1
  O  O49  1  0.17025723  0.20107432  0.69385166  1
  O  O50  1  0.03227286  0.82647409  0.69219528  1
  O  O51  1  0.79892568  0.82974277  0.19385166  1
  O  O52  1  0.03411030  0.20168923  0.19496062  1
  O  O53  1  0.17352591  0.96772714  0.19219528  1
  O  O54  1  0.86912036  0.37048743  0.63901635  1
  O  O55  1  0.49855891  0.13261857  0.64031117  1
  O  O56  1  0.63420888  0.50576871  0.64175864  1
  O  O57  1  0.86738143  0.50144109  0.14031117  1
  O  O58  1  0.62951257  0.13087964  0.13901635  1
  O  O59  1  0.49423129  0.36579112  0.14175864  1
  O  O60  1  0.46497777  0.29922270  0.02829362  1
  O  O61  1  0.83692423  0.53440732  0.02718466  1
  O  O62  1  0.69893986  0.15980709  0.02552828  1
  O  O63  1  0.46559268  0.16307577  0.52718466  1
  O  O64  1  0.70077730  0.53502223  0.52829362  1
  O  O65  1  0.84019291  0.30106014  0.52552828  1
  O  O66  1  0.53578636  0.70382143  0.97235035  1
  O  O67  1  0.16522491  0.46595257  0.97364517  1
  O  O68  1  0.30087488  0.83910271  0.97509264  1
  O  O69  1  0.53404743  0.83477509  0.47364517  1
  O  O70  1  0.29617857  0.46421364  0.47235035  1
  O  O71  1  0.16089729  0.69912512  0.47509264  1
  O  O72  1  0.13164377  0.63255670  0.36162762  1
  O  O73  1  0.50359023  0.86774132  0.36051866  1
  O  O74  1  0.36560586  0.49314109  0.35886228  1
  O  O75  1  0.13225868  0.49640977  0.86051866  1
  O  O76  1  0.36744330  0.86835623  0.86162762  1
  O  O77  1  0.50685891  0.63439414  0.85886228  1
  O  O78  1  0.02612019  0.83870444  0.40825884  1
  O  O79  1  0.81330638  0.97925962  0.40866929  1
  O  O80  1  0.16194231  0.18992903  0.40838830  1
  O  O81  1  0.02074038  0.18669362  0.90866929  1
  O  O82  1  0.16129556  0.97387981  0.90825884  1
  O  O83  1  0.81007097  0.83805769  0.90838830  1
  O  O84  1  0.97464915  0.16591243  0.59061207  1
  O  O85  1  0.19062416  0.02061338  0.59014741  1
  O  O86  1  0.83398208  0.80629867  0.59032000  1
  O  O87  1  0.97938662  0.80937584  0.09014741  1
  O  O88  1  0.83408757  0.02535085  0.09061207  1
  O  O89  1  0.19370133  0.16601792  0.09032000  1
  O  O90  1  0.69278719  0.17203744  0.74159184  1
  O  O91  1  0.47997338  0.31259262  0.74200229  1
  O  O92  1  0.82860931  0.52326203  0.74172130  1
  O  O93  1  0.68740738  0.52002662  0.24200229  1
  O  O94  1  0.82796256  0.30721281  0.24159184  1
  O  O95  1  0.47673797  0.17139069  0.24172130  1
  O  O96  1  0.64131615  0.49924543  0.92394507  1
  O  O97  1  0.85729116  0.35394638  0.92348041  1
  O  O98  1  0.50064908  0.13963167  0.92365300  1
  O  O99  1  0.64605362  0.14270884  0.42348041  1
  O  O100  1  0.50075457  0.35868385  0.42394507  1
  O  O101  1  0.86036833  0.49935092  0.42365300  1
  O  O102  1  0.35945319  0.50537144  0.07492584  1
  O  O103  1  0.14663938  0.64592662  0.07533629  1
  O  O104  1  0.49527531  0.85659603  0.07505530  1
  O  O105  1  0.35407338  0.85336062  0.57533629  1
  O  O106  1  0.49462856  0.64054681  0.57492584  1
  O  O107  1  0.14340397  0.50472469  0.57505530  1
  O  O108  1  0.30798215  0.83257943  0.25727907  1
  O  O109  1  0.52395716  0.68728038  0.25681441  1
  O  O110  1  0.16731508  0.47296567  0.25698700  1
  O  O111  1  0.31271962  0.47604284  0.75681441  1
  O  O112  1  0.16742057  0.69201785  0.75727907  1
  O  O113  1  0.52703433  0.83268492  0.75698700  1
