# generated using pymatgen
data_Sr8MgMn6O20
_symmetry_space_group_name_H-M   'P 1'
_cell_length_a   5.68621845
_cell_length_b   6.67298372
_cell_length_c   14.22047343
_cell_angle_alpha   94.35347756
_cell_angle_beta   83.89676327
_cell_angle_gamma   112.86210344
_symmetry_Int_Tables_number   1
_chemical_formula_structural   Sr8MgMn6O20
_chemical_formula_sum   'Sr8 Mg1 Mn6 O20'
_cell_volume   494.02324788
_cell_formula_units_Z   1
loop_
 _symmetry_equiv_pos_site_id
 _symmetry_equiv_pos_as_xyz
  1  'x, y, z'
loop_
 _atom_site_type_symbol
 _atom_site_label
 _atom_site_symmetry_multiplicity
 _atom_site_fract_x
 _atom_site_fract_y
 _atom_site_fract_z
 _atom_site_occupancy
  Sr  Sr0  1  0.15613300  0.46168600  0.07599400  1
  Sr  Sr1  1  0.76477900  0.50204200  0.86547500  1
  Sr  Sr2  1  0.78747300  0.52483300  0.33824500  1
  Sr  Sr3  1  0.29739600  0.49051700  0.65815500  1
  Sr  Sr4  1  0.02230000  0.90702800  0.64446100  1
  Sr  Sr5  1  0.20012800  0.19443000  0.42507400  1
  Sr  Sr6  1  0.43827100  0.05826600  0.12575200  1
  Sr  Sr7  1  0.47795400  0.92599000  0.86809200  1
  Mg  Mg8  1  0.87136200  0.02615500  0.26336600  1
  Mn  Mn9  1  0.66971700  0.22152900  0.66134000  1
  Mn  Mn10  1  0.36121900  0.78186300  0.34537400  1
  Mn  Mn11  1  0.74351800  0.69050600  0.12319300  1
  Mn  Mn12  1  0.13390700  0.22981600  0.84535900  1
  Mn  Mn13  1  0.55652700  0.99034300  0.50211800  1
  Mn  Mn14  1  0.96327900  0.98966000  0.99537000  1
  O  O15  1  0.39488000  0.18618900  0.75700000  1
  O  O16  1  0.13041600  0.89873800  0.28753200  1
  O  O17  1  0.55399400  0.78457000  0.22480800  1
  O  O18  1  0.87467700  0.17817400  0.74708300  1
  O  O19  1  0.21074600  0.83790600  0.46745500  1
  O  O20  1  0.45304800  0.22485300  0.55837700  1
  O  O21  1  0.31702200  0.18424200  0.97427700  1
  O  O22  1  0.03000800  0.74285100  0.03024600  1
  O  O23  1  0.88908400  0.17248100  0.55180900  1
  O  O24  1  0.60151300  0.75153600  0.43009900  1
  O  O25  1  0.59883600  0.79039100  0.02300400  1
  O  O26  1  0.87103900  0.21896100  0.95543500  1
  O  O27  1  0.82400900  0.52539100  0.68063400  1
  O  O28  1  0.18663600  0.48229900  0.33074700  1
  O  O29  1  0.97804100  0.08427000  0.12940600  1
  O  O30  1  0.97157200  0.90632600  0.86334700  1
  O  O31  1  0.49067200  0.88673600  0.62823200  1
  O  O32  1  0.73375300  0.43351500  0.16932700  1
  O  O33  1  0.27820300  0.53513900  0.83624500  1
  O  O34  1  0.63217700  0.10669100  0.36756800  1
