# generated using pymatgen
data_MgMn4Zn2O8
_symmetry_space_group_name_H-M   'P 1'
_cell_length_a   6.24108666
_cell_length_b   6.43873749
_cell_length_c   6.26745488
_cell_angle_alpha   58.81472977
_cell_angle_beta   61.71714949
_cell_angle_gamma   56.24561300
_symmetry_Int_Tables_number   1
_chemical_formula_structural   MgMn4Zn2O8
_chemical_formula_sum   'Mg1 Mn4 Zn2 O8'
_cell_volume   172.89982267
_cell_formula_units_Z   1
loop_
 _symmetry_equiv_pos_site_id
 _symmetry_equiv_pos_as_xyz
  1  'x, y, z'
loop_
 _atom_site_type_symbol
 _atom_site_label
 _atom_site_symmetry_multiplicity
 _atom_site_fract_x
 _atom_site_fract_y
 _atom_site_fract_z
 _atom_site_occupancy
  Mg  Mg0  1  0.08084210  0.57301193  0.70668650  1
  Mn  Mn1  1  0.27206770  0.25320780  0.27219609  1
  Mn  Mn2  1  0.57740065  0.08476865  0.70033457  1
  Mn  Mn3  1  0.61333634  0.59013671  0.18966383  1
  Mn  Mn4  1  0.58731978  0.60982346  0.68110698  1
  Zn  Zn5  1  0.00306142  0.05935158  0.79682876  1
  Zn  Zn6  1  0.04993060  0.00803185  0.21139007  1
  O  O7  1  0.36138358  0.36599354  0.44558736  1
  O  O8  1  0.38429973  0.34024538  0.89419726  1
  O  O9  1  0.32707254  0.88335176  0.39640250  1
  O  O10  1  0.90202470  0.34375473  0.44471700  1
  O  O11  1  0.33430046  0.85468076  0.92344083  1
  O  O12  1  0.86464340  0.34478794  0.94587620  1
  O  O13  1  0.80208140  0.85555392  0.49289695  1
  O  O14  1  0.82982161  0.83329798  0.90909309  1
