# generated using pymatgen
data_MgFe8(OF)8
_symmetry_space_group_name_H-M   'P 1'
_cell_length_a   9.60555615
_cell_length_b   9.92077831
_cell_length_c   3.10087564
_cell_angle_alpha   90.15382454
_cell_angle_beta   89.88458755
_cell_angle_gamma   90.20737548
_symmetry_Int_Tables_number   1
_chemical_formula_structural   MgFe8(OF)8
_chemical_formula_sum   'Mg1 Fe8 O8 F8'
_cell_volume   295.49308794
_cell_formula_units_Z   1
loop_
 _symmetry_equiv_pos_site_id
 _symmetry_equiv_pos_as_xyz
  1  'x, y, z'
loop_
 _atom_site_type_symbol
 _atom_site_label
 _atom_site_symmetry_multiplicity
 _atom_site_fract_x
 _atom_site_fract_y
 _atom_site_fract_z
 _atom_site_occupancy
  Mg  Mg0  1  0.26782200  0.49939200  0.02211500  1
  Fe  Fe1  1  0.00857900  0.99988900  0.01327300  1
  Fe  Fe2  1  0.97741600  0.50693000  0.98831000  1
  Fe  Fe3  1  0.21349800  0.23577500  0.51844400  1
  Fe  Fe4  1  0.21311300  0.76184400  0.51484400  1
  Fe  Fe5  1  0.59437200  0.49243100  0.99926300  1
  Fe  Fe6  1  0.50108800  0.00521900  0.01192900  1
  Fe  Fe7  1  0.76647500  0.26605600  0.49785300  1
  Fe  Fe8  1  0.75055300  0.74127400  0.50349300  1
  O  O9  1  0.13451900  0.42064300  0.52437400  1
  O  O10  1  0.09068400  0.91186400  0.51267200  1
  O  O11  1  0.13006100  0.15339500  0.01740200  1
  O  O12  1  0.14292800  0.65994300  0.01366900  1
  O  O13  1  0.60786000  0.37996200  0.49850000  1
  O  O14  1  0.65078100  0.67766800  0.00354000  1
  O  O15  1  0.86697700  0.34172900  0.99816300  1
  O  O16  1  0.89319700  0.59712700  0.49418400  1
  F  F17  1  0.34333100  0.31735000  0.01891300  1
  F  F18  1  0.33951200  0.84311400  0.01552000  1
  F  F19  1  0.38418400  0.09388200  0.51522100  1
  F  F20  1  0.36896700  0.58785400  0.51908500  1
  F  F21  1  0.60796800  0.91089800  0.50887700  1
  F  F22  1  0.66846000  0.15026800  0.00297900  1
  F  F23  1  0.84909600  0.85653400  0.00735200  1
  F  F24  1  0.89245000  0.08895700  0.50919300  1
