# generated using pymatgen
data_Na15Mg4Ta8Si9(PO8)9
_symmetry_space_group_name_H-M   'P 1'
_cell_length_a   8.96327529
_cell_length_b   8.96559558
_cell_length_c   22.47934738
_cell_angle_alpha   89.85846253
_cell_angle_beta   89.93541453
_cell_angle_gamma   120.10702535
_symmetry_Int_Tables_number   1
_chemical_formula_structural   Na15Mg4Ta8Si9(PO8)9
_chemical_formula_sum   'Na15 Mg4 Ta8 Si9 P9 O72'
_cell_volume   1562.74414710
_cell_formula_units_Z   1
loop_
 _symmetry_equiv_pos_site_id
 _symmetry_equiv_pos_as_xyz
  1  'x, y, z'
loop_
 _atom_site_type_symbol
 _atom_site_label
 _atom_site_symmetry_multiplicity
 _atom_site_fract_x
 _atom_site_fract_y
 _atom_site_fract_z
 _atom_site_occupancy
  Na  Na0  1  0.64038511  0.01596339  0.24257980  1
  Na  Na1  1  0.98696849  0.62799325  0.24280063  1
  Na  Na2  1  0.63934796  0.62613623  0.74354889  1
  Na  Na3  1  0.37184559  0.01626996  0.74343035  1
  Na  Na4  1  0.31375962  0.33743579  0.58661365  1
  Na  Na5  1  0.96517705  0.68059671  0.91400681  1
  Na  Na6  1  0.71006310  0.02956966  0.91353803  1
  Na  Na7  1  0.96571411  0.29059250  0.41402342  1
  Na  Na8  1  0.70953302  0.67749693  0.41278446  1
  Na  Na9  1  0.00864162  0.99386081  0.49369043  1
  Na  Na10  1  0.00951733  0.00539618  0.99467987  1
  Na  Na11  1  0.66654868  0.33300625  0.82759706  1
  Na  Na12  1  0.64534971  0.32608172  0.32786739  1
  Na  Na13  1  0.33283080  0.66044963  0.16251335  1
  Na  Na14  1  0.32185736  0.66679806  0.66337591  1
  Mg  Mg15  1  0.01144564  0.00242318  0.35344375  1
  Mg  Mg16  1  0.00481895  0.00285301  0.85368558  1
  Mg  Mg17  1  0.67202649  0.33389126  0.68315835  1
  Mg  Mg18  1  0.66171864  0.33247406  0.18283733  1
  Ta  Ta19  1  0.99747744  0.99856961  0.64379683  1
  Ta  Ta20  1  0.99950981  0.99769609  0.14350855  1
  Ta  Ta21  1  0.66174508  0.33363040  0.98240541  1
  Ta  Ta22  1  0.66542497  0.33380814  0.48172296  1
  Ta  Ta23  1  0.33714264  0.67461256  0.02223144  1
  Ta  Ta24  1  0.32733004  0.66581420  0.52177837  1
  Ta  Ta25  1  0.33087448  0.66027518  0.31262779  1
  Ta  Ta26  1  0.33390722  0.66450432  0.81313589  1
  Si  Si27  1  0.95133638  0.33314851  0.58562077  1
  Si  Si28  1  0.38019145  0.04181134  0.58801213  1
  Si  Si29  1  0.66736181  0.62308214  0.58617474  1
  Si  Si30  1  0.95596770  0.61973059  0.08707114  1
  Si  Si31  1  0.66843873  0.04623581  0.08699798  1
  Si  Si32  1  0.62314689  0.66281151  0.91671620  1
  Si  Si33  1  0.33339957  0.96179466  0.91614186  1
  Si  Si34  1  0.33208812  0.36990492  0.41768565  1
  Si  Si35  1  0.04046808  0.66989796  0.41616844  1
  P  P36  1  0.29216803  0.00496087  0.25161691  1
  P  P37  1  0.71063191  0.70977729  0.25217389  1
  P  P38  1  0.00024596  0.28669783  0.25239213  1
  P  P39  1  0.28727347  0.28863410  0.75152528  1
  P  P40  1  0.99725976  0.70769790  0.75249877  1
  P  P41  1  0.71263346  0.00439103  0.75341800  1
  P  P42  1  0.37676326  0.33485150  0.08554852  1
  P  P43  1  0.04579365  0.37808075  0.91819282  1
  P  P44  1  0.61799424  0.95624223  0.41567406  1
  O  O45  1  0.20461633  0.01915189  0.30643037  1
  O  O46  1  0.81372470  0.79196926  0.30832191  1
  O  O47  1  0.97540234  0.18252342  0.30840483  1
  O  O48  1  0.19908901  0.17549348  0.80436601  1
  O  O49  1  0.97577560  0.78985183  0.80872260  1
  O  O50  1  0.80928511  0.01638951  0.80996274  1
  O  O51  1  0.80234016  0.97227410  0.69816659  1
  O  O52  1  0.17943841  0.20614046  0.69308323  1
  O  O53  1  0.03087169  0.83217925  0.69747224  1
  O  O54  1  0.80416827  0.83314216  0.19684971  1
  O  O55  1  0.02739072  0.19808083  0.19674917  1
  O  O56  1  0.17272446  0.97118384  0.19551478  1
  O  O57  1  0.87811757  0.37380990  0.64218450  1
  O  O58  1  0.48000768  0.11488407  0.64830317  1
  O  O59  1  0.61591620  0.50663769  0.64431172  1
  O  O60  1  0.88152645  0.51675564  0.14700659  1
  O  O61  1  0.63167184  0.11551684  0.14643539  1
  O  O62  1  0.48617900  0.36862043  0.13981550  1
  O  O63  1  0.46418764  0.30434557  0.02863652  1
  O  O64  1  0.83440166  0.53066670  0.02625622  1
  O  O65  1  0.69355514  0.16363594  0.02588025  1
  O  O66  1  0.47135332  0.17175464  0.52909173  1
  O  O67  1  0.69899048  0.53266783  0.52555557  1
  O  O68  1  0.83826693  0.30094525  0.52306212  1
  O  O69  1  0.51674869  0.68279254  0.97157913  1
  O  O70  1  0.15728859  0.47002547  0.97232213  1
  O  O71  1  0.31097727  0.83204530  0.97166661  1
  O  O72  1  0.52592442  0.83832272  0.46946922  1
  O  O73  1  0.31724876  0.47539463  0.47458340  1
  O  O74  1  0.16472747  0.68597754  0.47173433  1
  O  O75  1  0.13767049  0.63697961  0.35752406  1
  O  O76  1  0.50537677  0.86898150  0.35850099  1
  O  O77  1  0.36890606  0.50691397  0.36008885  1
  O  O78  1  0.13459950  0.49910078  0.86216442  1
  O  O79  1  0.36629587  0.86368368  0.85750510  1
  O  O80  1  0.49916145  0.63299816  0.85683911  1
  O  O81  1  0.00396795  0.82528029  0.41363380  1
  O  O82  1  0.79526096  0.97472371  0.41070734  1
  O  O83  1  0.15597918  0.19261971  0.41368680  1
  O  O84  1  0.01602658  0.19786631  0.91180342  1
  O  O85  1  0.16162384  0.97090632  0.91309377  1
  O  O86  1  0.80834420  0.83416464  0.91316279  1
  O  O87  1  0.98231746  0.16438803  0.59176262  1
  O  O88  1  0.18739026  0.02883303  0.59153907  1
  O  O89  1  0.83970106  0.81545071  0.59197531  1
  O  O90  1  0.98136337  0.81774279  0.09166338  1
  O  O91  1  0.84370780  0.02701210  0.09143731  1
  O  O92  1  0.19500899  0.16906854  0.09062112  1
  O  O93  1  0.67490844  0.15080922  0.74741599  1
  O  O94  1  0.47179092  0.31911285  0.74693699  1
  O  O95  1  0.83864713  0.53071816  0.74496451  1
  O  O96  1  0.68685356  0.53086931  0.24420809  1
  O  O97  1  0.84711615  0.31768085  0.24654174  1
  O  O98  1  0.47627998  0.15436661  0.24524994  1
  O  O99  1  0.64358019  0.49061554  0.92243236  1
  O  O100  1  0.86688605  0.37165497  0.92269549  1
  O  O101  1  0.51781846  0.14343069  0.92281319  1
  O  O102  1  0.63374505  0.13614986  0.42152814  1
  O  O103  1  0.51462663  0.36789354  0.42154987  1
  O  O104  1  0.85552311  0.48383604  0.42126351  1
  O  O105  1  0.34821391  0.48822353  0.07282936  1
  O  O106  1  0.14791957  0.64494312  0.07366289  1
  O  O107  1  0.50493694  0.84916630  0.07406511  1
  O  O108  1  0.35077919  0.85013796  0.57396437  1
  O  O109  1  0.50163304  0.64853703  0.57151550  1
  O  O110  1  0.15306099  0.49217822  0.57419704  1
  O  O111  1  0.30444663  0.82997229  0.25506908  1
  O  O112  1  0.53053054  0.70571425  0.25448412  1
  O  O113  1  0.17053141  0.47511364  0.25570182  1
  O  O114  1  0.30423144  0.47481143  0.75555385  1
  O  O115  1  0.17091607  0.69948528  0.75580814  1
  O  O116  1  0.52568252  0.82613769  0.75489079  1
