# generated using pymatgen
data_MgFe4(OF)4
_symmetry_space_group_name_H-M   'P 1'
_cell_length_a   6.64375515
_cell_length_b   5.70439853
_cell_length_c   5.41583597
_cell_angle_alpha   93.49505390
_cell_angle_beta   62.37265185
_cell_angle_gamma   64.86600236
_symmetry_Int_Tables_number   1
_chemical_formula_structural   MgFe4(OF)4
_chemical_formula_sum   'Mg1 Fe4 O4 F4'
_cell_volume   155.88847319
_cell_formula_units_Z   1
loop_
 _symmetry_equiv_pos_site_id
 _symmetry_equiv_pos_as_xyz
  1  'x, y, z'
loop_
 _atom_site_type_symbol
 _atom_site_label
 _atom_site_symmetry_multiplicity
 _atom_site_fract_x
 _atom_site_fract_y
 _atom_site_fract_z
 _atom_site_occupancy
  Mg  Mg0  1  0.78501344  0.36734833  0.74632814  1
  Fe  Fe1  1  0.18406946  0.93208418  0.01673065  1
  Fe  Fe2  1  0.73012703  0.67965450  0.30097358  1
  Fe  Fe3  1  0.30659852  0.30770143  0.66489752  1
  Fe  Fe4  1  0.75872533  0.90558847  0.85790747  1
  O  O5  1  0.48142247  0.98436900  0.76678768  1
  O  O6  1  0.98214383  0.27925044  0.95381095  1
  O  O7  1  0.06295763  0.71045653  0.91659737  1
  O  O8  1  0.50775676  0.06373237  0.28468103  1
  F  F9  1  0.45161055  0.63580069  0.08952449  1
  F  F10  1  0.97363522  0.52486644  0.49550948  1
  F  F11  1  0.56956508  0.45495985  0.56080275  1
  F  F12  1  0.97398368  0.01245677  0.45824489  1
