# generated using pymatgen
data_Na3Zr3Ga(PO4)6
_symmetry_space_group_name_H-M   'P 1'
_cell_length_a   8.88415178
_cell_length_b   8.87364911
_cell_length_c   23.01478157
_cell_angle_alpha   89.99729941
_cell_angle_beta   90.00300502
_cell_angle_gamma   120.16405379
_symmetry_Int_Tables_number   1
_chemical_formula_structural   Na3Zr3Ga(PO4)6
_chemical_formula_sum   'Na9 Zr9 Ga3 P18 O72'
_cell_volume   1568.68373701
_cell_formula_units_Z   3
loop_
 _symmetry_equiv_pos_site_id
 _symmetry_equiv_pos_as_xyz
  1  'x, y, z'
loop_
 _atom_site_type_symbol
 _atom_site_label
 _atom_site_symmetry_multiplicity
 _atom_site_fract_x
 _atom_site_fract_y
 _atom_site_fract_z
 _atom_site_occupancy
  Na  Na0  1  0.36693954  0.36283545  0.24749979  1
  Na  Na1  1  0.63751489  0.63320207  0.74775692  1
  Na  Na2  1  0.97067402  0.29951117  0.41386765  1
  Na  Na3  1  0.00062793  0.99182740  0.49716848  1
  Na  Na4  1  0.99986350  0.99983779  0.00095026  1
  Na  Na5  1  0.66714036  0.32515563  0.83171132  1
  Na  Na6  1  0.66757537  0.33352648  0.32822150  1
  Na  Na7  1  0.33257013  0.67481214  0.16507313  1
  Na  Na8  1  0.32530268  0.66713308  0.66530013  1
  Zr  Zr9  1  0.00114608  0.00205202  0.85226080  1
  Zr  Zr10  1  0.00200051  0.00272129  0.64552875  1
  Zr  Zr11  1  0.99751614  0.99756846  0.14658610  1
  Zr  Zr12  1  0.66654600  0.33383850  0.98121121  1
  Zr  Zr13  1  0.66096604  0.33396737  0.48107300  1
  Zr  Zr14  1  0.33369065  0.66665438  0.02226031  1
  Zr  Zr15  1  0.33448923  0.66864933  0.52035047  1
  Zr  Zr16  1  0.33489818  0.67391389  0.31263432  1
  Zr  Zr17  1  0.32797841  0.66732328  0.81414659  1
  Ga  Ga18  1  0.99851863  0.99199638  0.34811757  1
  Ga  Ga19  1  0.66756669  0.32723178  0.68328808  1
  Ga  Ga20  1  0.67377521  0.33286778  0.18401260  1
  P  P21  1  0.29254783  0.00704222  0.25044957  1
  P  P22  1  0.71494369  0.70569646  0.25105691  1
  P  P23  1  0.98963828  0.28489480  0.25168760  1
  P  P24  1  0.29991456  0.29167081  0.74858633  1
  P  P25  1  0.99393632  0.70129208  0.74801230  1
  P  P26  1  0.70902998  0.00938288  0.74855949  1
  P  P27  1  0.95220141  0.33496254  0.58478971  1
  P  P28  1  0.38159879  0.04669043  0.58612003  1
  P  P29  1  0.66494096  0.61887898  0.58667647  1
  P  P30  1  0.95219584  0.61784632  0.08601004  1
  P  P31  1  0.66618911  0.04885247  0.08612575  1
  P  P32  1  0.38181585  0.33385044  0.08682746  1
  P  P33  1  0.62416980  0.66645086  0.91612860  1
  P  P34  1  0.04120055  0.37484985  0.91749199  1
  P  P35  1  0.33296556  0.95821734  0.91732134  1
  P  P36  1  0.63340809  0.95811439  0.41583673  1
  P  P37  1  0.32716396  0.36820355  0.41427604  1
  P  P38  1  0.04259984  0.67653446  0.41567374  1
  O  O39  1  0.20869759  0.03922639  0.30442837  1
  O  O40  1  0.82448589  0.79129316  0.30549790  1
  O  O41  1  0.96744980  0.17919665  0.30779635  1
  O  O42  1  0.21152954  0.18044541  0.80291690  1
  O  O43  1  0.96428858  0.78770101  0.80210419  1
  O  O44  1  0.82033657  0.03157737  0.80300119  1
  O  O45  1  0.79263023  0.97041328  0.69620542  1
  O  O46  1  0.18234355  0.20748584  0.69565980  1
  O  O47  1  0.02457613  0.81903848  0.69520459  1
  O  O48  1  0.79404630  0.81943373  0.19693122  1
  O  O49  1  0.02920145  0.20354092  0.19880600  1
  O  O50  1  0.17880225  0.97479000  0.19640882  1
  O  O51  1  0.86754491  0.36263856  0.63813438  1
  O  O52  1  0.49270410  0.13053486  0.63973095  1
  O  O53  1  0.63834613  0.51118620  0.64175635  1
  O  O54  1  0.86879424  0.50668912  0.13987100  1
  O  O55  1  0.63736148  0.13148398  0.13995533  1
  O  O56  1  0.48943499  0.36084467  0.14209343  1
  O  O57  1  0.46469870  0.30804355  0.03165635  1
  O  O58  1  0.84516057  0.53754624  0.03025643  1
  O  O59  1  0.69289211  0.15572406  0.03033608  1
  O  O60  1  0.46234955  0.15449013  0.53042518  1
  O  O61  1  0.69141536  0.53535609  0.53167205  1
  O  O62  1  0.84802077  0.30808671  0.52799458  1
  O  O63  1  0.53621408  0.69204027  0.96937815  1
  O  O64  1  0.15391300  0.46127256  0.97098386  1
  O  O65  1  0.30680868  0.84560145  0.97083857  1
  O  O66  1  0.54421806  0.84642786  0.47009533  1
  O  O67  1  0.29855764  0.45745631  0.46792151  1
  O  O68  1  0.15445162  0.69876407  0.47008215  1
  O  O69  1  0.12619906  0.63735590  0.36319823  1
  O  O70  1  0.51566970  0.87383783  0.36281802  1
  O  O71  1  0.35754863  0.48210693  0.36006716  1
  O  O72  1  0.12751072  0.48610926  0.86275922  1
  O  O73  1  0.35857846  0.87248489  0.86260630  1
  O  O74  1  0.51682423  0.64175486  0.86021655  1
  O  O75  1  0.02339385  0.83654982  0.40778336  1
  O  O76  1  0.81635022  0.98235844  0.40870949  1
  O  O77  1  0.16033345  0.18940770  0.40815690  1
  O  O78  1  0.02365295  0.19411164  0.91039855  1
  O  O79  1  0.17011420  0.97570876  0.90994819  1
  O  O80  1  0.80589749  0.82964173  0.90991478  1
  O  O81  1  0.97306821  0.17267877  0.59023510  1
  O  O82  1  0.19856852  0.02575880  0.59031873  1
  O  O83  1  0.82760963  0.80245644  0.59051642  1
  O  O84  1  0.97361746  0.80136083  0.09039247  1
  O  O85  1  0.82794868  0.02737097  0.09077483  1
  O  O86  1  0.19762769  0.17192509  0.09076150  1
  O  O87  1  0.68948651  0.16937446  0.74147007  1
  O  O88  1  0.48337114  0.31673267  0.74209174  1
  O  O89  1  0.82735646  0.52253233  0.74154384  1
  O  O90  1  0.68538808  0.51958057  0.24368812  1
  O  O91  1  0.83136798  0.30798472  0.24317478  1
  O  O92  1  0.47357898  0.17206454  0.24327807  1
  O  O93  1  0.64253769  0.50421559  0.92206017  1
  O  O94  1  0.86056239  0.35615597  0.92232019  1
  O  O95  1  0.49542079  0.13938549  0.92229526  1
  O  O96  1  0.65521587  0.14263675  0.42269684  1
  O  O97  1  0.49029689  0.35171188  0.42207867  1
  O  O98  1  0.86403576  0.50570065  0.42293544  1
  O  O99  1  0.36125581  0.49621741  0.07898369  1
  O  O100  1  0.13551542  0.63964149  0.07868924  1
  O  O101  1  0.50439754  0.86482126  0.07875960  1
  O  O102  1  0.36015905  0.86358667  0.57829380  1
  O  O103  1  0.50288738  0.63890925  0.57812358  1
  O  O104  1  0.13628624  0.49662968  0.57767849  1
  O  O105  1  0.31145916  0.84358855  0.25688374  1
  O  O106  1  0.52786136  0.68210731  0.25720235  1
  O  O107  1  0.16107044  0.46718783  0.25752885  1
  O  O108  1  0.32179583  0.47649759  0.75558447  1
  O  O109  1  0.15709858  0.68428315  0.75512772  1
  O  O110  1  0.53008000  0.83845709  0.75581093  1
