# generated using pymatgen
data_In3Sb5O12
_symmetry_space_group_name_H-M   'P 1'
_cell_length_a   9.15719077
_cell_length_b   9.15719012
_cell_length_c   9.15719130
_cell_angle_alpha   109.47144598
_cell_angle_beta   109.47145053
_cell_angle_gamma   109.47144440
_symmetry_Int_Tables_number   1
_chemical_formula_structural   In3Sb5O12
_chemical_formula_sum   'In6 Sb10 O24'
_cell_volume   591.10039579
_cell_formula_units_Z   2
loop_
 _symmetry_equiv_pos_site_id
 _symmetry_equiv_pos_as_xyz
  1  'x, y, z'
loop_
 _atom_site_type_symbol
 _atom_site_label
 _atom_site_symmetry_multiplicity
 _atom_site_fract_x
 _atom_site_fract_y
 _atom_site_fract_z
 _atom_site_occupancy
  In  In0  1  0.50000243  0.75000195  0.25000183  1
  In  In1  1  0.75000144  0.25000161  0.50000201  1
  In  In2  1  0.25000179  0.50000222  0.75000151  1
  In  In3  1  0.50000240  0.25000181  0.75000183  1
  In  In4  1  0.25000159  0.75000160  0.50000214  1
  In  In5  1  0.75000160  0.50000199  0.25000170  1
  Sb  Sb6  1  0.51803117  0.51803097  0.51803101  1
  Sb  Sb7  1  -0.00000225  -0.00000241  0.48196710  1
  Sb  Sb8  1  -0.00000220  0.48196722  -0.00000241  1
  Sb  Sb9  1  0.48196698  -0.00000230  -0.00000235  1
  Sb  Sb10  1  0.71747253  0.71747250  0.00000058  1
  Sb  Sb11  1  0.71747253  0.00000031  0.71747262  1
  Sb  Sb12  1  0.00000043  0.71747262  0.71747255  1
  Sb  Sb13  1  0.28252676  0.28252739  -0.00000143  1
  Sb  Sb14  1  0.28252683  -0.00000113  0.28252770  1
  Sb  Sb15  1  -0.00000133  0.28252702  0.28252726  1
  O  O16  1  -0.00000266  0.79889445  0.52355672  1
  O  O17  1  0.79889420  0.52355645  -0.00000292  1
  O  O18  1  0.52355674  -0.00000283  0.79889445  1
  O  O19  1  -0.00000290  0.52355655  0.79889435  1
  O  O20  1  0.52355684  0.79889457  -0.00000269  1
  O  O21  1  0.79889423  -0.00000283  0.52355667  1
  O  O22  1  0.20110196  0.20110229  0.72466194  1
  O  O23  1  0.20110198  0.72466186  0.20110235  1
  O  O24  1  0.72466179  0.20110222  0.20110222  1
  O  O25  1  0.47644162  0.47644161  0.27533857  1
  O  O26  1  0.47644178  0.27533875  0.47644197  1
  O  O27  1  0.27533859  0.47644180  0.47644183  1
  O  O28  1  0.29905837  0.00000220  0.50488520  1
  O  O29  1  0.00000214  0.50488472  0.29905829  1
  O  O30  1  0.50488463  0.29905807  0.00000208  1
  O  O31  1  0.29905839  0.50488508  0.00000212  1
  O  O32  1  0.49511534  0.79417452  0.49511520  1
  O  O33  1  0.49511537  0.49511535  0.79417453  1
  O  O34  1  0.79417446  0.49511527  0.49511520  1
  O  O35  1  0.20582757  0.70094390  0.70094382  1
  O  O36  1  0.70094408  0.20582736  0.70094386  1
  O  O37  1  0.70094392  0.70094377  0.20582741  1
  O  O38  1  0.00000221  0.29905835  0.50488497  1
  O  O39  1  0.50488462  0.00000217  0.29905821  1
