# generated using pymatgen
data_Na2Ca4Zr4SiS11O48
_symmetry_space_group_name_H-M   'P 1'
_cell_length_a   18.21897483
_cell_length_b   9.11255035
_cell_length_c   23.72391271
_cell_angle_alpha   89.96983156
_cell_angle_beta   89.99651178
_cell_angle_gamma   120.00055348
_symmetry_Int_Tables_number   1
_chemical_formula_structural   Na2Ca4Zr4SiS11O48
_chemical_formula_sum   'Na6 Ca12 Zr12 Si3 S33 O144'
_cell_volume   3410.97324457
_cell_formula_units_Z   3
loop_
 _symmetry_equiv_pos_site_id
 _symmetry_equiv_pos_as_xyz
  1  'x, y, z'
loop_
 _atom_site_type_symbol
 _atom_site_label
 _atom_site_symmetry_multiplicity
 _atom_site_fract_x
 _atom_site_fract_y
 _atom_site_fract_z
 _atom_site_occupancy
  Na  Na0  1  0.99702425  0.98423086  0.49267103  1
  Na  Na1  1  0.49850812  0.00139509  0.00030738  1
  Na  Na2  1  0.33451202  0.32828406  0.83755253  1
  Na  Na3  1  0.83943615  0.34061126  0.83189171  1
  Na  Na4  1  0.33869390  0.33330226  0.32971754  1
  Na  Na5  1  0.84085194  0.34249509  0.34116552  1
  Ca  Ca6  1  0.00078347  0.99387031  0.35641112  1
  Ca  Ca7  1  0.00249428  0.00227143  0.85769810  1
  Ca  Ca8  1  0.33250323  0.33342759  0.68410895  1
  Ca  Ca9  1  0.83504769  0.33459123  0.68268966  1
  Ca  Ca10  1  0.33771552  0.33436999  0.18524133  1
  Ca  Ca11  1  0.83277837  0.33126053  0.18382513  1
  Ca  Ca12  1  0.33666279  0.33271246  0.98148435  1
  Ca  Ca13  1  0.83436980  0.33474412  0.98312245  1
  Ca  Ca14  1  0.33576188  0.33662414  0.48226296  1
  Ca  Ca15  1  0.83560637  0.33764982  0.48028621  1
  Ca  Ca16  1  0.66637002  0.66682440  0.52064783  1
  Ca  Ca17  1  0.16388584  0.66392108  0.80816355  1
  Zr  Zr18  1  0.49813999  0.00613390  0.35539838  1
  Zr  Zr19  1  0.49773451  0.00554945  0.85531190  1
  Zr  Zr20  1  0.99898427  0.99683569  0.64997967  1
  Zr  Zr21  1  0.49980336  0.00029372  0.64273596  1
  Zr  Zr22  1  0.00010612  0.00100903  0.14781415  1
  Zr  Zr23  1  0.49995822  0.00925398  0.15237417  1
  Zr  Zr24  1  0.16446184  0.66587484  0.01849880  1
  Zr  Zr25  1  0.66249516  0.65398117  0.01931802  1
  Zr  Zr26  1  0.16172284  0.66671167  0.51964543  1
  Zr  Zr27  1  0.15876946  0.66230992  0.31270391  1
  Zr  Zr28  1  0.66631539  0.66339326  0.31083582  1
  Zr  Zr29  1  0.66410738  0.66006615  0.81122407  1
  Si  Si30  1  0.49862532  0.29318157  0.25338287  1
  Si  Si31  1  0.52049795  0.37755369  0.91451506  1
  Si  Si32  1  0.01772095  0.66578410  0.41715865  1
  S  S33  1  0.14479519  0.99851517  0.25020705  1
  S  S34  1  0.64276867  0.99820993  0.25243039  1
  S  S35  1  0.35534308  0.71446226  0.25247148  1
  S  S36  1  0.85418292  0.71002411  0.25022626  1
  S  S37  1  0.00077559  0.29065251  0.25055596  1
  S  S38  1  0.14548180  0.28741664  0.75008850  1
  S  S39  1  0.64272326  0.28584548  0.75134947  1
  S  S40  1  0.99777375  0.70850716  0.75068133  1
  S  S41  1  0.50150529  0.71686488  0.75178796  1
  S  S42  1  0.35887174  0.00214112  0.74955389  1
  S  S43  1  0.85390184  0.99871455  0.75194800  1
  S  S44  1  0.48019191  0.33099846  0.58492874  1
  S  S45  1  0.98331854  0.32951385  0.58346305  1
  S  S46  1  0.18320310  0.03540227  0.58337058  1
  S  S47  1  0.68511716  0.03938072  0.58475333  1
  S  S48  1  0.33242760  0.63096918  0.58327998  1
  S  S49  1  0.83603922  0.63433710  0.58497045  1
  S  S50  1  0.48383005  0.63787645  0.08266614  1
  S  S51  1  0.98307092  0.63422136  0.08374665  1
  S  S52  1  0.33351959  0.03045399  0.08269382  1
  S  S53  1  0.83297054  0.03243280  0.08352897  1
  S  S54  1  0.18365035  0.33411193  0.08351073  1
  S  S55  1  0.68278734  0.32964401  0.08306640  1
  S  S56  1  0.31198599  0.66832871  0.91594683  1
  S  S57  1  0.80781349  0.66538258  0.91597633  1
  S  S58  1  0.02122010  0.37849120  0.91673562  1
  S  S59  1  0.16736030  0.95509859  0.91668377  1
  S  S60  1  0.66536571  0.95152148  0.91466987  1
  S  S61  1  0.30931222  0.95058070  0.41486771  1
  S  S62  1  0.81023601  0.95616588  0.41527758  1
  S  S63  1  0.16857366  0.38533835  0.41650897  1
  S  S64  1  0.66567534  0.37459350  0.41386039  1
  S  S65  1  0.52152281  0.66845121  0.41295333  1
  O  O66  1  0.10596802  0.02281296  0.30008631  1
  O  O67  1  0.59851712  0.01699390  0.30185976  1
  O  O68  1  0.41053648  0.80016108  0.30200717  1
  O  O69  1  0.90600607  0.78662783  0.29984932  1
  O  O70  1  0.49125380  0.16589547  0.30543629  1
  O  O71  1  0.98913477  0.18940649  0.30045443  1
  O  O72  1  0.10603359  0.18549069  0.80034662  1
  O  O73  1  0.59806452  0.17819576  0.80187204  1
  O  O74  1  0.49213737  0.80489025  0.80215325  1
  O  O75  1  0.98613749  0.78795099  0.80067597  1
  O  O76  1  0.41331810  0.02009975  0.80119969  1
  O  O77  1  0.90557819  0.02331804  0.80156368  1
  O  O78  1  0.40456204  0.98649971  0.69963275  1
  O  O79  1  0.89495449  0.97495520  0.69997529  1
  O  O80  1  0.09063161  0.19254457  0.69871306  1
  O  O81  1  0.59066160  0.20676495  0.70057559  1
  O  O82  1  0.00431479  0.81613401  0.69897919  1
  O  O83  1  0.51310346  0.82060431  0.70066823  1
  O  O84  1  0.39801588  0.81984105  0.20067792  1
  O  O85  1  0.89700011  0.81935136  0.19860156  1
  O  O86  1  0.01182384  0.20459745  0.19889998  1
  O  O87  1  0.51250979  0.19684829  0.19677927  1
  O  O88  1  0.08936349  0.97294220  0.19888169  1
  O  O89  1  0.59019556  0.97205897  0.20028153  1
  O  O90  1  0.44048641  0.35484928  0.63482053  1
  O  O91  1  0.94903033  0.36293940  0.63408069  1
  O  O92  1  0.23415566  0.10695107  0.63386535  1
  O  O93  1  0.73602378  0.11779892  0.63507243  1
  O  O94  1  0.31655651  0.52743306  0.63358419  1
  O  O95  1  0.82523161  0.53372409  0.63546852  1
  O  O96  1  0.44955710  0.53454971  0.13301334  1
  O  O97  1  0.94815060  0.52784082  0.13344637  1
  O  O98  1  0.31719170  0.09977630  0.13310815  1
  O  O99  1  0.81527542  0.10303501  0.13350407  1
  O  O100  1  0.23627500  0.37147909  0.13363195  1
  O  O101  1  0.73312755  0.35776601  0.13346254  1
  O  O102  1  0.21735688  0.29570516  0.03354942  1
  O  O103  1  0.71861880  0.29857513  0.03233046  1
  O  O104  1  0.43132622  0.56639383  0.03247683  1
  O  O105  1  0.93014945  0.56614766  0.03359351  1
  O  O106  1  0.35267603  0.13643104  0.03258523  1
  O  O107  1  0.85219132  0.14023704  0.03371916  1
  O  O108  1  0.21836447  0.13989030  0.53287662  1
  O  O109  1  0.71795684  0.14447629  0.53450686  1
  O  O110  1  0.35180372  0.56279692  0.53334477  1
  O  O111  1  0.85535752  0.56733482  0.53450048  1
  O  O112  1  0.42740101  0.29183861  0.53441103  1
  O  O113  1  0.93093017  0.29383050  0.53338433  1
  O  O114  1  0.27240200  0.69543749  0.96765879  1
  O  O115  1  0.76375017  0.68225225  0.96741562  1
  O  O116  1  0.07572268  0.47380620  0.96849536  1
  O  O117  1  0.58096060  0.47015605  0.97083126  1
  O  O118  1  0.16144208  0.84627340  0.96855717  1
  O  O119  1  0.65359868  0.84909285  0.96623230  1
  O  O120  1  0.27111095  0.84917869  0.46655084  1
  O  O121  1  0.77092548  0.85613251  0.46617867  1
  O  O122  1  0.16305457  0.47552346  0.46770251  1
  O  O123  1  0.64961046  0.44209403  0.46503889  1
  O  O124  1  0.08099403  0.67650981  0.47112862  1
  O  O125  1  0.56963034  0.69698597  0.46476100  1
  O  O126  1  0.07407541  0.65366026  0.36111898  1
  O  O127  1  0.56779377  0.64920749  0.36329285  1
  O  O128  1  0.25721180  0.86357639  0.36422708  1
  O  O129  1  0.75722807  0.86055062  0.36396579  1
  O  O130  1  0.17761069  0.48997623  0.36475644  1
  O  O131  1  0.67505052  0.48484695  0.36389525  1
  O  O132  1  0.06098899  0.48143724  0.86668396  1
  O  O133  1  0.57578532  0.49688952  0.86027064  1
  O  O134  1  0.17974297  0.87587691  0.86672864  1
  O  O135  1  0.67546930  0.86712913  0.86397518  1
  O  O136  1  0.26367822  0.65136636  0.86530513  1
  O  O137  1  0.75424128  0.64875558  0.86509235  1
  O  O138  1  0.01814685  0.84145291  0.41903339  1
  O  O139  1  0.51254461  0.82018275  0.40145341  1
  O  O140  1  0.39417293  0.96347168  0.40751805  1
  O  O141  1  0.89544797  0.97779197  0.40992364  1
  O  O142  1  0.09075510  0.22124510  0.41365913  1
  O  O143  1  0.58874283  0.20207175  0.40363954  1
  O  O144  1  0.01634162  0.21461855  0.91590196  1
  O  O145  1  0.51682558  0.18994560  0.90745444  1
  O  O146  1  0.08895068  0.96053948  0.91604404  1
  O  O147  1  0.58635175  0.96388187  0.90799102  1
  O  O148  1  0.39996206  0.82861849  0.91117647  1
  O  O149  1  0.88976171  0.81654011  0.91165649  1
  O  O150  1  0.48927834  0.17366280  0.59608678  1
  O  O151  1  0.99529538  0.17792625  0.59352393  1
  O  O152  1  0.09495585  0.00946742  0.59252597  1
  O  O153  1  0.59681585  0.02114933  0.59692247  1
  O  O154  1  0.40915901  0.80537583  0.59488299  1
  O  O155  1  0.91499503  0.81224141  0.59470267  1
  O  O156  1  0.49655408  0.81310127  0.09166952  1
  O  O157  1  0.99539400  0.80814564  0.09565529  1
  O  O158  1  0.40946005  0.00427478  0.09202541  1
  O  O159  1  0.90878377  0.01061321  0.09590516  1
  O  O160  1  0.09592418  0.18435030  0.09610168  1
  O  O161  1  0.59477884  0.17666161  0.09066040  1
  O  O162  1  0.35404441  0.15740612  0.74704513  1
  O  O163  1  0.84105184  0.14424839  0.74438176  1
  O  O164  1  0.22995668  0.30484962  0.74303233  1
  O  O165  1  0.72677399  0.30409883  0.74844207  1
  O  O166  1  0.42743431  0.54764616  0.74772812  1
  O  O167  1  0.92214669  0.53872790  0.74422870  1
  O  O168  1  0.34628865  0.54685754  0.24673042  1
  O  O169  1  0.84116883  0.53963253  0.24139963  1
  O  O170  1  0.41625886  0.31054115  0.25049340  1
  O  O171  1  0.92851700  0.31677672  0.24207427  1
  O  O172  1  0.22891937  0.14502260  0.24156862  1
  O  O173  1  0.72646507  0.14840300  0.24668088  1
  O  O174  1  0.32432503  0.52345508  0.92323471  1
  O  O175  1  0.81199021  0.50832132  0.91959235  1
  O  O176  1  0.42864815  0.35596340  0.91582487  1
  O  O177  1  0.93657232  0.36187118  0.92374280  1
  O  O178  1  0.24214618  0.12407598  0.92420614  1
  O  O179  1  0.73935533  0.12155437  0.91915069  1
  O  O180  1  0.31997431  0.12059148  0.41882804  1
  O  O181  1  0.81346990  0.12068408  0.41588604  1
  O  O182  1  0.24506134  0.36998797  0.41958544  1
  O  O183  1  0.74010010  0.35475344  0.41566961  1
  O  O184  1  0.43652347  0.51654431  0.41490557  1
  O  O185  1  0.92925154  0.49242005  0.41566184  1
  O  O186  1  0.17047929  0.48241682  0.07116400  1
  O  O187  1  0.67240298  0.48194727  0.07405548  1
  O  O188  1  0.07010746  0.65887961  0.07229748  1
  O  O189  1  0.57093913  0.66062018  0.07160042  1
  O  O190  1  0.25900004  0.85753333  0.07137165  1
  O  O191  1  0.75932351  0.85989177  0.07156100  1
  O  O192  1  0.17326815  0.86330529  0.57358227  1
  O  O193  1  0.66996651  0.86738247  0.57815566  1
  O  O194  1  0.25981277  0.65802314  0.57255188  1
  O  O195  1  0.76394557  0.66080650  0.57787310  1
  O  O196  1  0.07089317  0.47814442  0.57332716  1
  O  O197  1  0.56552294  0.47413301  0.57764584  1
  O  O198  1  0.15167616  0.84124321  0.25588493  1
  O  O199  1  0.65006619  0.84415167  0.25965775  1
  O  O200  1  0.27281681  0.70555865  0.25960984  1
  O  O201  1  0.76993580  0.70049464  0.25622426  1
  O  O202  1  0.08102620  0.46030024  0.25528920  1
  O  O203  1  0.58665016  0.47433896  0.26347727  1
  O  O204  1  0.15051231  0.45222424  0.75119365  1
  O  O205  1  0.65010693  0.45578290  0.75916540  1
  O  O206  1  0.07570743  0.70043689  0.75110841  1
  O  O207  1  0.58019794  0.70568185  0.75973160  1
  O  O208  1  0.27754729  0.84930181  0.75481735  1
  O  O209  1  0.76872751  0.84030311  0.75850465  1
