# generated using pymatgen
data_Na3ZnSn3P5SO24
_symmetry_space_group_name_H-M   'P 1'
_cell_length_a   8.78226267
_cell_length_b   8.78208643
_cell_length_c   22.65470563
_cell_angle_alpha   89.71338500
_cell_angle_beta   90.19464572
_cell_angle_gamma   119.94323351
_symmetry_Int_Tables_number   1
_chemical_formula_structural   Na3ZnSn3P5SO24
_chemical_formula_sum   'Na9 Zn3 Sn9 P15 S3 O72'
_cell_volume   1514.03409669
_cell_formula_units_Z   3
loop_
 _symmetry_equiv_pos_site_id
 _symmetry_equiv_pos_as_xyz
  1  'x, y, z'
loop_
 _atom_site_type_symbol
 _atom_site_label
 _atom_site_symmetry_multiplicity
 _atom_site_fract_x
 _atom_site_fract_y
 _atom_site_fract_z
 _atom_site_occupancy
  Na  Na0  1  0.98948359  0.36326994  0.74419440  1
  Na  Na1  1  0.31079601  0.97528989  0.08699330  1
  Na  Na2  1  0.32542370  0.03110757  0.40930231  1
  Na  Na3  1  0.98049433  0.99785079  0.49465307  1
  Na  Na4  1  0.98861480  0.00025556  0.99923240  1
  Na  Na5  1  0.65313928  0.33257025  0.82791027  1
  Na  Na6  1  0.67020946  0.33658773  0.32628259  1
  Na  Na7  1  0.33274219  0.65907965  0.16731606  1
  Na  Na8  1  0.34569028  0.66966473  0.66596562  1
  Zn  Zn9  1  0.99979550  0.00033810  0.35298123  1
  Zn  Zn10  1  0.66789024  0.34601652  0.68602544  1
  Zn  Zn11  1  0.65873050  0.32481258  0.18176539  1
  Sn  Sn12  1  0.00067368  0.99924672  0.85280043  1
  Sn  Sn13  1  0.99332835  0.99709996  0.64838154  1
  Sn  Sn14  1  0.99889436  0.99827717  0.15006306  1
  Sn  Sn15  1  0.66968103  0.33519453  0.98219060  1
  Sn  Sn16  1  0.67753257  0.34317110  0.48280345  1
  Sn  Sn17  1  0.33269356  0.66204959  0.01734270  1
  Sn  Sn18  1  0.33409195  0.65908731  0.51841896  1
  Sn  Sn19  1  0.33440380  0.67099158  0.31589375  1
  Sn  Sn20  1  0.33694416  0.66956897  0.81521030  1
  P  P21  1  0.29895000  0.00217762  0.25213547  1
  P  P22  1  0.29377430  0.29094630  0.75061073  1
  P  P23  1  0.00164153  0.70939387  0.75083286  1
  P  P24  1  0.70350952  0.99913251  0.75040821  1
  P  P25  1  0.96266312  0.33328894  0.58614055  1
  P  P26  1  0.66762465  0.62825246  0.58450891  1
  P  P27  1  0.95763660  0.62344205  0.08518953  1
  P  P28  1  0.66890053  0.03949024  0.08373635  1
  P  P29  1  0.37449882  0.33545513  0.08481928  1
  P  P30  1  0.62779216  0.66596133  0.91684983  1
  P  P31  1  0.03739552  0.37160620  0.91542870  1
  P  P32  1  0.33502553  0.96269804  0.91795569  1
  P  P33  1  0.62930017  0.96193473  0.41857391  1
  P  P34  1  0.33431101  0.37244112  0.41634687  1
  P  P35  1  0.04039308  0.66506352  0.41698252  1
  S  S36  1  0.70448187  0.70443115  0.25165716  1
  S  S37  1  0.00057386  0.29566709  0.25122862  1
  S  S38  1  0.37175837  0.03839835  0.58317729  1
  O  O39  1  0.20844852  0.01608820  0.30729009  1
  O  O40  1  0.80773041  0.79365271  0.30393526  1
  O  O41  1  0.98085552  0.18966745  0.30350451  1
  O  O42  1  0.20975114  0.18234184  0.80725420  1
  O  O43  1  0.97530094  0.79281841  0.80660390  1
  O  O44  1  0.82230377  0.03346535  0.80555570  1
  O  O45  1  0.78161933  0.96118902  0.69489666  1
  O  O46  1  0.16939093  0.21152058  0.69602612  1
  O  O47  1  0.03809286  0.82470743  0.69496891  1
  O  O48  1  0.77663982  0.81399282  0.19598611  1
  O  O49  1  0.03028280  0.21886302  0.19561180  1
  O  O50  1  0.18683130  0.96979037  0.19326037  1
  O  O51  1  0.88466664  0.35585894  0.64268358  1
  O  O52  1  0.48002299  0.12093886  0.63482572  1
  O  O53  1  0.63596841  0.51675779  0.63860038  1
  O  O54  1  0.87856599  0.51438982  0.13947568  1
  O  O55  1  0.62705497  0.11377298  0.13705929  1
  O  O56  1  0.48210969  0.36540689  0.13958933  1
  O  O57  1  0.44877754  0.29251474  0.02845278  1
  O  O58  1  0.85167034  0.55125997  0.02701179  1
  O  O59  1  0.70308254  0.14866154  0.02606781  1
  O  O60  1  0.44571649  0.13907575  0.52663601  1
  O  O61  1  0.69464073  0.55108329  0.52627053  1
  O  O62  1  0.84873451  0.29997496  0.52962361  1
  O  O63  1  0.54780787  0.69899887  0.97224394  1
  O  O64  1  0.15300672  0.45500987  0.97018790  1
  O  O65  1  0.30546404  0.85499466  0.97548826  1
  O  O66  1  0.54379067  0.84941316  0.47433805  1
  O  O67  1  0.30501200  0.45292193  0.47225632  1
  O  O68  1  0.15955855  0.69976512  0.47197466  1
  O  O69  1  0.11990148  0.62835962  0.36157219  1
  O  O70  1  0.50500204  0.88581420  0.36357600  1
  O  O71  1  0.37262378  0.49098601  0.36098814  1
  O  O72  1  0.11600473  0.47957309  0.85808745  1
  O  O73  1  0.36464428  0.87723914  0.86342742  1
  O  O74  1  0.51529373  0.63361380  0.86097433  1
  O  O75  1  0.02523323  0.82976214  0.41222690  1
  O  O76  1  0.80889106  0.98293494  0.41123014  1
  O  O77  1  0.17590985  0.18866036  0.41124118  1
  O  O78  1  0.01998363  0.18773281  0.91182213  1
  O  O79  1  0.16779049  0.97845625  0.91298169  1
  O  O80  1  0.81136518  0.83207263  0.91185914  1
  O  O81  1  0.98866611  0.16928171  0.58716064  1
  O  O82  1  0.19336390  0.01983397  0.58672394  1
  O  O83  1  0.83694572  0.81371888  0.58703881  1
  O  O84  1  0.98691700  0.81618055  0.08884720  1
  O  O85  1  0.83284723  0.01661666  0.08975471  1
  O  O86  1  0.18766470  0.16467939  0.08893691  1
  O  O87  1  0.68876597  0.16391351  0.74469084  1
  O  O88  1  0.47319553  0.31036256  0.74480008  1
  O  O89  1  0.84371819  0.52449153  0.74718283  1
  O  O90  1  0.68812182  0.53264746  0.24551349  1
  O  O91  1  0.84934060  0.32017272  0.24490130  1
  O  O92  1  0.48098438  0.16328447  0.24613653  1
  O  O93  1  0.64445843  0.49967113  0.92238911  1
  O  O94  1  0.85538703  0.35640017  0.92112137  1
  O  O95  1  0.50082832  0.14614140  0.92243206  1
  O  O96  1  0.63213069  0.14155627  0.42486323  1
  O  O97  1  0.50156046  0.35214987  0.42252277  1
  O  O98  1  0.85882200  0.49580151  0.42166390  1
  O  O99  1  0.34937421  0.49686160  0.07678030  1
  O  O100  1  0.15015895  0.65571047  0.07751579  1
  O  O101  1  0.49985872  0.85439951  0.07584150  1
  O  O102  1  0.35099828  0.85937524  0.57782539  1
  O  O103  1  0.50456139  0.65476942  0.57880386  1
  O  O104  1  0.14623619  0.50282789  0.57861306  1
  O  O105  1  0.31024538  0.82646361  0.25309523  1
  O  O106  1  0.52356393  0.68751161  0.25416342  1
  O  O107  1  0.16871493  0.47256372  0.25395495  1
  O  O108  1  0.29790216  0.47218494  0.75548769  1
  O  O109  1  0.17033332  0.69078876  0.75527564  1
  O  O110  1  0.52200898  0.82952723  0.75598815  1
