# generated using pymatgen
data_Sb2F7
_symmetry_space_group_name_H-M   'P 1'
_cell_length_a   4.70024895
_cell_length_b   10.73786568
_cell_length_c   10.73900279
_cell_angle_alpha   90.00000000
_cell_angle_beta   90.00000000
_cell_angle_gamma   95.22004326
_symmetry_Int_Tables_number   1
_chemical_formula_structural   Sb2F7
_chemical_formula_sum   'Sb8 F28'
_cell_volume   539.75647315
_cell_formula_units_Z   4
loop_
 _symmetry_equiv_pos_site_id
 _symmetry_equiv_pos_as_xyz
  1  'x, y, z'
loop_
 _atom_site_type_symbol
 _atom_site_label
 _atom_site_symmetry_multiplicity
 _atom_site_fract_x
 _atom_site_fract_y
 _atom_site_fract_z
 _atom_site_occupancy
  Sb  Sb0  1  0.13843968  0.07785608  0.75000000  1
  Sb  Sb1  1  0.86156032  0.92214392  0.25000000  1
  Sb  Sb2  1  0.80754524  0.22903379  0.06034289  1
  Sb  Sb3  1  0.19245476  0.77096621  0.56034289  1
  Sb  Sb4  1  0.19245476  0.77096621  0.93965711  1
  Sb  Sb5  1  0.80754524  0.22903379  0.43965711  1
  Sb  Sb6  1  0.57258912  0.47653323  0.75000000  1
  Sb  Sb7  1  0.42741088  0.52346677  0.25000000  1
  F  F8  1  0.64220959  0.44869176  0.12487010  1
  F  F9  1  0.35779041  0.55130824  0.62487010  1
  F  F10  1  0.35779041  0.55130824  0.87512990  1
  F  F11  1  0.64220959  0.44869176  0.37512990  1
  F  F12  1  0.85322480  0.93735781  0.75000000  1
  F  F13  1  0.14677520  0.06264219  0.25000000  1
  F  F14  1  0.75188996  0.04375647  0.08371348  1
  F  F15  1  0.24811004  0.95624353  0.58371348  1
  F  F16  1  0.66061090  0.21627151  0.25000000  1
  F  F17  1  0.33938910  0.78372849  0.75000000  1
  F  F18  1  0.16590394  0.37802522  0.25000000  1
  F  F19  1  0.83409606  0.62197478  0.75000000  1
  F  F20  1  0.41222291  0.21694915  0.48803974  1
  F  F21  1  0.58777709  0.78305085  0.98803974  1
  F  F22  1  0.58777709  0.78305085  0.51196026  1
  F  F23  1  0.41222291  0.21694915  0.01196026  1
  F  F24  1  0.69368025  0.66634629  0.25000000  1
  F  F25  1  0.30631975  0.33365371  0.75000000  1
  F  F26  1  0.21146817  0.59479994  0.12412298  1
  F  F27  1  0.78853183  0.40520006  0.62412298  1
  F  F28  1  0.78853183  0.40520006  0.87587702  1
  F  F29  1  0.21146817  0.59479994  0.37587702  1
  F  F30  1  0.13563994  0.84845958  0.12748219  1
  F  F31  1  0.86436006  0.15154042  0.62748219  1
  F  F32  1  0.86436006  0.15154042  0.87251781  1
  F  F33  1  0.13563994  0.84845958  0.37251781  1
  F  F34  1  0.75188996  0.04375647  0.41628652  1
  F  F35  1  0.24811004  0.95624353  0.91628652  1
