# generated using pymatgen
data_Na6TaGa3Si2(PO6)4
_symmetry_space_group_name_H-M   'P 1'
_cell_length_a   8.84018569
_cell_length_b   8.85442394
_cell_length_c   22.00733172
_cell_angle_alpha   90.08782922
_cell_angle_beta   89.60448557
_cell_angle_gamma   119.91352636
_symmetry_Int_Tables_number   1
_chemical_formula_structural   Na6TaGa3Si2(PO6)4
_chemical_formula_sum   'Na18 Ta3 Ga9 Si6 P12 O72'
_cell_volume   1493.09035228
_cell_formula_units_Z   3
loop_
 _symmetry_equiv_pos_site_id
 _symmetry_equiv_pos_as_xyz
  1  'x, y, z'
loop_
 _atom_site_type_symbol
 _atom_site_label
 _atom_site_symmetry_multiplicity
 _atom_site_fract_x
 _atom_site_fract_y
 _atom_site_fract_z
 _atom_site_occupancy
  Na  Na0  1  0.99866236  0.99170694  0.50236195  1
  Na  Na1  1  0.98322067  0.99245325  0.99700212  1
  Na  Na2  1  0.66361541  0.33427556  0.82859408  1
  Na  Na3  1  0.66377892  0.33748641  0.32903859  1
  Na  Na4  1  0.33448345  0.66039866  0.16168005  1
  Na  Na5  1  0.33185736  0.66461467  0.66353116  1
  Na  Na6  1  0.63976569  0.00878673  0.24620341  1
  Na  Na7  1  0.99532772  0.35801975  0.74688052  1
  Na  Na8  1  0.36422170  0.00528303  0.74963532  1
  Na  Na9  1  0.29935791  0.33313447  0.58619212  1
  Na  Na10  1  0.66839823  0.96646477  0.58431127  1
  Na  Na11  1  0.29528393  0.96247138  0.08395293  1
  Na  Na12  1  0.03700492  0.33629423  0.08267217  1
  Na  Na13  1  0.97442005  0.67893238  0.91471187  1
  Na  Na14  1  0.32451450  0.29453366  0.91401575  1
  Na  Na15  1  0.96270664  0.29455115  0.41717709  1
  Na  Na16  1  0.33370701  0.03689506  0.41497459  1
  Na  Na17  1  0.70250311  0.67051540  0.41827876  1
  Ta  Ta18  1  0.66736971  0.33132519  0.97875031  1
  Ta  Ta19  1  0.33185525  0.67054823  0.31037652  1
  Ta  Ta20  1  0.33908905  0.66365565  0.81335549  1
  Ga  Ga21  1  0.99824736  -0.00006208  0.34745503  1
  Ga  Ga22  1  0.00157194  0.00383788  0.85333520  1
  Ga  Ga23  1  0.00172474  0.99684983  0.65047155  1
  Ga  Ga24  1  0.99783856  0.99220622  0.14958742  1
  Ga  Ga25  1  0.66440139  0.34133426  0.68399991  1
  Ga  Ga26  1  0.65969130  0.33569195  0.18657269  1
  Ga  Ga27  1  0.66636839  0.32990201  0.48460956  1
  Ga  Ga28  1  0.33864090  0.66710875  0.01493606  1
  Ga  Ga29  1  0.33391195  0.67059018  0.51822301  1
  Si  Si30  1  0.28917908  0.01062984  0.24877323  1
  Si  Si31  1  0.29225830  0.28645540  0.74783386  1
  Si  Si32  1  0.63060189  0.67823777  0.91912321  1
  Si  Si33  1  0.04451869  0.37232714  0.91881349  1
  Si  Si34  1  0.33131590  0.95298122  0.91869191  1
  Si  Si35  1  0.62990051  0.96154777  0.41887118  1
  P  P36  1  0.71530389  0.70723320  0.24992371  1
  P  P37  1  0.99866955  0.28886782  0.24842704  1
  P  P38  1  0.99442092  0.70868090  0.74975653  1
  P  P39  1  0.71457505  0.00124409  0.74809910  1
  P  P40  1  0.95954992  0.33704747  0.58330463  1
  P  P41  1  0.37213072  0.03863071  0.58350450  1
  P  P42  1  0.67028898  0.62578011  0.58210385  1
  P  P43  1  0.95413484  0.62415553  0.08638834  1
  P  P44  1  0.66681964  0.03748724  0.08670844  1
  P  P45  1  0.37499088  0.33758390  0.08606729  1
  P  P46  1  0.33305630  0.37695516  0.41886864  1
  P  P47  1  0.04240819  0.66658625  0.41905360  1
  O  O48  1  0.20535595  0.03227938  0.31218583  1
  O  O49  1  0.81613711  0.78577590  0.30970391  1
  O  O50  1  0.96244210  0.17583456  0.30690274  1
  O  O51  1  0.20921153  0.16893551  0.80862206  1
  O  O52  1  0.96771586  0.78507899  0.80827996  1
  O  O53  1  0.82926859  0.03345343  0.80331677  1
  O  O54  1  0.78631969  0.96537182  0.68875628  1
  O  O55  1  0.16668376  0.20922153  0.68816720  1
  O  O56  1  0.03582881  0.82810270  0.69389000  1
  O  O57  1  0.78849402  0.83358528  0.19574862  1
  O  O58  1  0.03234570  0.20957165  0.19140243  1
  O  O59  1  0.17184894  0.96559048  0.18831729  1
  O  O60  1  0.87386720  0.36238694  0.64096713  1
  O  O61  1  0.49156937  0.12148784  0.63944910  1
  O  O62  1  0.63186156  0.50352308  0.63685536  1
  O  O63  1  0.86563485  0.50040135  0.13984256  1
  O  O64  1  0.63541104  0.12251707  0.14300138  1
  O  O65  1  0.48972710  0.36270015  0.14025488  1
  O  O66  1  0.46346569  0.30691905  0.02783367  1
  O  O67  1  0.84370633  0.53507131  0.02740507  1
  O  O68  1  0.69622685  0.16230141  0.03039775  1
  O  O69  1  0.45242832  0.15619473  0.52557991  1
  O  O70  1  0.69808078  0.54554836  0.52276777  1
  O  O71  1  0.84448089  0.30253618  0.52567130  1
  O  O72  1  0.54136816  0.70401556  0.97812150  1
  O  O73  1  0.16144045  0.45652269  0.97874545  1
  O  O74  1  0.29192884  0.83411595  0.97885360  1
  O  O75  1  0.54383584  0.83397230  0.47720562  1
  O  O76  1  0.29611846  0.45550988  0.47595833  1
  O  O77  1  0.16222330  0.70189103  0.47335538  1
  O  O78  1  0.13038565  0.63295690  0.36211864  1
  O  O79  1  0.49974286  0.86540074  0.35951093  1
  O  O80  1  0.36164085  0.49704354  0.36312300  1
  O  O81  1  0.13064742  0.50257653  0.85853934  1
  O  O82  1  0.36796083  0.86848201  0.85718410  1
  O  O83  1  0.49691190  0.62749910  0.85990328  1
  O  O84  1  0.02378457  0.83019718  0.41162827  1
  O  O85  1  0.82299194  0.98040229  0.40917423  1
  O  O86  1  0.17002916  0.19355476  0.41224776  1
  O  O87  1  0.02599723  0.18461988  0.91008337  1
  O  O88  1  0.16420783  0.97886055  0.91138545  1
  O  O89  1  0.82479788  0.83466663  0.90859389  1
  O  O90  1  0.97483913  0.16797696  0.58678707  1
  O  O91  1  0.19098389  0.02574424  0.58914543  1
  O  O92  1  0.83016708  0.81152621  0.58854909  1
  O  O93  1  0.97229911  0.80738269  0.08828610  1
  O  O94  1  0.83856716  0.03149548  0.08942339  1
  O  O95  1  0.19222275  0.16766049  0.08757139  1
  O  O96  1  0.69137119  0.16435666  0.74285918  1
  O  O97  1  0.48512949  0.30454012  0.74211096  1
  O  O98  1  0.84126249  0.51973313  0.74300897  1
  O  O99  1  0.69315389  0.52646575  0.24319381  1
  O  O100  1  0.83703113  0.31075050  0.24348122  1
  O  O101  1  0.49137340  0.16900744  0.24462907  1
  O  O102  1  0.64090044  0.49477815  0.92488810  1
  O  O103  1  0.85583426  0.36660562  0.92350737  1
  O  O104  1  0.50495956  0.14913650  0.92470444  1
  O  O105  1  0.64338797  0.15335219  0.42295542  1
  O  O106  1  0.50154643  0.36383188  0.42237993  1
  O  O107  1  0.86009467  0.50052918  0.42251148  1
  O  O108  1  0.34950237  0.49707568  0.08010586  1
  O  O109  1  0.13817207  0.64209433  0.08080481  1
  O  O110  1  0.49883704  0.86058629  0.07940801  1
  O  O111  1  0.36040244  0.85839646  0.57734024  1
  O  O112  1  0.50045066  0.64100273  0.57843146  1
  O  O113  1  0.14577360  0.49751346  0.57739013  1
  O  O114  1  0.31280703  0.83084046  0.25686591  1
  O  O115  1  0.52716198  0.68986681  0.25789697  1
  O  O116  1  0.16628500  0.47138394  0.25757823  1
  O  O117  1  0.30537004  0.48109339  0.75409970  1
  O  O118  1  0.16664866  0.69303938  0.75421293  1
  O  O119  1  0.52440957  0.83938759  0.75429024  1
