# generated using pymatgen
data_Nb2Si2SO12
_symmetry_space_group_name_H-M   'P 1'
_cell_length_a   8.92265970
_cell_length_b   8.93506608
_cell_length_c   22.97883444
_cell_angle_alpha   90.55761612
_cell_angle_beta   90.00000000
_cell_angle_gamma   119.95407928
_symmetry_Int_Tables_number   1
_chemical_formula_structural   Nb2Si2SO12
_chemical_formula_sum   'Nb12 Si12 S6 O72'
_cell_volume   1587.17239558
_cell_formula_units_Z   6
loop_
 _symmetry_equiv_pos_site_id
 _symmetry_equiv_pos_as_xyz
  1  'x, y, z'
loop_
 _atom_site_type_symbol
 _atom_site_label
 _atom_site_symmetry_multiplicity
 _atom_site_fract_x
 _atom_site_fract_y
 _atom_site_fract_z
 _atom_site_occupancy
  Nb  Nb0  1  0.00291034  0.00858038  0.35784935  1
  Nb  Nb1  1  0.00567004  0.00858038  0.85784935  1
  Nb  Nb2  1  0.98791182  0.00882281  0.64225363  1
  Nb  Nb3  1  0.02091098  0.00882281  0.14225363  1
  Nb  Nb4  1  0.66957734  0.34191338  0.69118235  1
  Nb  Nb5  1  0.67233704  0.34191338  0.19118235  1
  Nb  Nb6  1  0.65457882  0.34215581  0.97558663  1
  Nb  Nb7  1  0.68757798  0.34215581  0.47558663  1
  Nb  Nb8  1  0.33624334  0.67524738  0.02451635  1
  Nb  Nb9  1  0.33900304  0.67524738  0.52451635  1
  Nb  Nb10  1  0.32124482  0.67548981  0.30892063  1
  Nb  Nb11  1  0.35424398  0.67548981  0.80892063  1
  Si  Si12  1  0.28903128  0.00729541  0.25054016  1
  Si  Si13  1  0.00101423  0.28382529  0.24999065  1
  Si  Si14  1  0.28281106  0.28382529  0.74999065  1
  Si  Si15  1  0.71826412  0.00729541  0.75054016  1
  Si  Si16  1  0.95569828  0.34062841  0.58387316  1
  Si  Si17  1  0.66768123  0.61715829  0.58332365  1
  Si  Si18  1  0.94947806  0.61715829  0.08332365  1
  Si  Si19  1  0.38493112  0.34062841  0.08387316  1
  Si  Si20  1  0.62236428  0.67396241  0.91720716  1
  Si  Si21  1  0.33434723  0.95049229  0.91665765  1
  Si  Si22  1  0.61614406  0.95049229  0.41665765  1
  Si  Si23  1  0.05159712  0.67396241  0.41720716  1
  S  S24  1  0.71312394  0.71642009  0.25025966  1
  S  S25  1  0.00329615  0.71642009  0.75025966  1
  S  S26  1  0.37979094  0.04975309  0.58359266  1
  S  S27  1  0.66996315  0.04975309  0.08359266  1
  S  S28  1  0.04645694  0.38308709  0.91692666  1
  S  S29  1  0.33662915  0.38308709  0.41692666  1
  O  O30  1  0.19130320  0.02919252  0.30671554  1
  O  O31  1  0.82280951  0.79276726  0.30284451  1
  O  O32  1  0.97069478  0.16292708  0.30692697  1
  O  O33  1  0.19223230  0.16292708  0.80692697  1
  O  O34  1  0.96995774  0.79276726  0.80284451  1
  O  O35  1  0.83788932  0.02919252  0.80671554  1
  O  O36  1  0.80421179  0.96883332  0.69290431  1
  O  O37  1  0.16278154  0.18553868  0.69296101  1
  O  O38  1  0.03056760  0.81933500  0.69800521  1
  O  O39  1  0.78876740  0.81933500  0.19800521  1
  O  O40  1  0.02275714  0.18553868  0.19296101  1
  O  O41  1  0.16462153  0.96883332  0.19290431  1
  O  O42  1  0.85797020  0.36252552  0.64004854  1
  O  O43  1  0.48947651  0.12610026  0.63617751  1
  O  O44  1  0.63736178  0.49626008  0.64025997  1
  O  O45  1  0.85889930  0.49626008  0.14025997  1
  O  O46  1  0.63662474  0.12610026  0.13617751  1
  O  O47  1  0.50455632  0.36252552  0.14004854  1
  O  O48  1  0.47087879  0.30216632  0.02623731  1
  O  O49  1  0.82944854  0.51887168  0.02629401  1
  O  O50  1  0.69723460  0.15266800  0.03133821  1
  O  O51  1  0.45543440  0.15266800  0.53133821  1
  O  O52  1  0.68942414  0.51887168  0.52629401  1
  O  O53  1  0.83128853  0.30216632  0.52623731  1
  O  O54  1  0.52463620  0.69585952  0.97338254  1
  O  O55  1  0.15614251  0.45943426  0.96951151  1
  O  O56  1  0.30402778  0.82959408  0.97359397  1
  O  O57  1  0.52556530  0.82959408  0.47359397  1
  O  O58  1  0.30329074  0.45943426  0.46951151  1
  O  O59  1  0.17122232  0.69585952  0.47338254  1
  O  O60  1  0.13754479  0.63550032  0.35957131  1
  O  O61  1  0.49611454  0.85220568  0.35962801  1
  O  O62  1  0.36390060  0.48600200  0.36467221  1
  O  O63  1  0.12210040  0.48600200  0.86467221  1
  O  O64  1  0.35609014  0.85220568  0.85962801  1
  O  O65  1  0.49795453  0.63550032  0.85957131  1
  O  O66  1  0.02562071  0.83772338  0.40428913  1
  O  O67  1  0.80845353  0.97558617  0.40471468  1
  O  O68  1  0.17783007  0.20748421  0.40962661  1
  O  O69  1  0.02965414  0.20748421  0.90962661  1
  O  O70  1  0.16713264  0.97558617  0.90471468  1
  O  O71  1  0.81210267  0.83772338  0.90428913  1
  O  O72  1  0.97525141  0.16805505  0.59232208  1
  O  O73  1  0.20443448  0.02280231  0.59250829  1
  O  O74  1  0.84042566  0.80481105  0.59528822  1
  O  O75  1  0.96438539  0.80481105  0.09528822  1
  O  O76  1  0.81836784  0.02280231  0.09250829  1
  O  O77  1  0.19280364  0.16805505  0.09232208  1
  O  O78  1  0.69228771  0.17105638  0.73762213  1
  O  O79  1  0.47512053  0.30891917  0.73804768  1
  O  O80  1  0.84449707  0.54081721  0.74295961  1
  O  O81  1  0.69632114  0.54081721  0.24295961  1
  O  O82  1  0.83379964  0.30891917  0.23804768  1
  O  O83  1  0.47876967  0.17105638  0.23762213  1
  O  O84  1  0.64191841  0.50138805  0.92565508  1
  O  O85  1  0.87110148  0.35613531  0.92584129  1
  O  O86  1  0.50709266  0.13814405  0.92862122  1
  O  O87  1  0.63105239  0.13814405  0.42862122  1
  O  O88  1  0.48503484  0.35613531  0.42584129  1
  O  O89  1  0.85947064  0.50138805  0.42565508  1
  O  O90  1  0.35895371  0.50439038  0.07095613  1
  O  O91  1  0.14178653  0.64225317  0.07138168  1
  O  O92  1  0.51116307  0.87415121  0.07629361  1
  O  O93  1  0.36298714  0.87415121  0.57629361  1
  O  O94  1  0.50046564  0.64225317  0.57138168  1
  O  O95  1  0.14543567  0.50439038  0.57095613  1
  O  O96  1  0.30858441  0.83472205  0.25898908  1
  O  O97  1  0.53776748  0.68946931  0.25917529  1
  O  O98  1  0.17375866  0.47147805  0.26195522  1
  O  O99  1  0.29771839  0.47147805  0.76195522  1
  O  O100  1  0.15170084  0.68946931  0.75917529  1
  O  O101  1  0.52613664  0.83472205  0.75898908  1
