# generated using pymatgen
data_Na6CaSi2Ge3(PO6)4
_symmetry_space_group_name_H-M   'P 1'
_cell_length_a   8.85029484
_cell_length_b   8.86032697
_cell_length_c   21.85593939
_cell_angle_alpha   90.44092289
_cell_angle_beta   90.05390671
_cell_angle_gamma   120.31863346
_symmetry_Int_Tables_number   1
_chemical_formula_structural   Na6CaSi2Ge3(PO6)4
_chemical_formula_sum   'Na18 Ca3 Si6 Ge9 P12 O72'
_cell_volume   1479.39641209
_cell_formula_units_Z   3
loop_
 _symmetry_equiv_pos_site_id
 _symmetry_equiv_pos_as_xyz
  1  'x, y, z'
loop_
 _atom_site_type_symbol
 _atom_site_label
 _atom_site_symmetry_multiplicity
 _atom_site_fract_x
 _atom_site_fract_y
 _atom_site_fract_z
 _atom_site_occupancy
  Na  Na0  1  0.00505233  0.00140730  0.50311159  1
  Na  Na1  1  0.99974706  0.00045616  0.99864221  1
  Na  Na2  1  0.65421247  0.30855092  0.83377733  1
  Na  Na3  1  0.65374925  0.33425717  0.32686906  1
  Na  Na4  1  0.32779170  0.66702310  0.16147073  1
  Na  Na5  1  0.32756282  0.66563862  0.66553233  1
  Na  Na6  1  0.64712593  0.01126756  0.24534894  1
  Na  Na7  1  0.98903554  0.63015995  0.24285130  1
  Na  Na8  1  0.62696384  0.61685590  0.74603412  1
  Na  Na9  1  0.99297987  0.37318320  0.74855624  1
  Na  Na10  1  0.66561903  0.97397903  0.58599220  1
  Na  Na11  1  0.66212549  0.68730272  0.08078010  1
  Na  Na12  1  0.02449471  0.33962075  0.08418337  1
  Na  Na13  1  0.96774871  0.66958867  0.91778393  1
  Na  Na14  1  0.33503835  0.30136730  0.91794869  1
  Na  Na15  1  0.96083898  0.28481941  0.41550380  1
  Na  Na16  1  0.32734817  0.03780677  0.41380476  1
  Na  Na17  1  0.71445474  0.68046837  0.41736058  1
  Ca  Ca18  1  0.00054910  0.00032882  0.35511023  1
  Ca  Ca19  1  0.65881438  0.32833417  0.68471348  1
  Ca  Ca20  1  0.66445293  0.33205806  0.17442368  1
  Si  Si21  1  0.66412766  0.63094136  0.58463779  1
  Si  Si22  1  0.97862540  0.63990208  0.08166262  1
  Si  Si23  1  0.62037283  0.66950429  0.91530233  1
  Si  Si24  1  0.04125536  0.37594029  0.91474021  1
  Si  Si25  1  0.34075078  0.95980140  0.91557864  1
  Si  Si26  1  0.61134300  0.95952959  0.42071781  1
  Ge  Ge27  1  0.99878797  0.00076893  0.85859816  1
  Ge  Ge28  1  0.00157430  0.98994291  0.64672057  1
  Ge  Ge29  1  0.01003000  0.99958173  0.14710066  1
  Ge  Ge30  1  0.67124737  0.33769851  0.97732444  1
  Ge  Ge31  1  0.66602102  0.33179501  0.48619682  1
  Ge  Ge32  1  0.32958656  0.67070308  0.01147391  1
  Ge  Ge33  1  0.33684759  0.66583796  0.52077285  1
  Ge  Ge34  1  0.33769433  0.66961434  0.31351747  1
  Ge  Ge35  1  0.33377049  0.67433038  0.81836271  1
  P  P36  1  0.29495811  0.99025594  0.25282110  1
  P  P37  1  0.69331051  0.70448246  0.25130009  1
  P  P38  1  0.01548425  0.30398118  0.25120795  1
  P  P39  1  0.27251535  0.28182015  0.75374961  1
  P  P40  1  0.01888539  0.72851201  0.75389990  1
  P  P41  1  0.71392003  0.98758845  0.75355574  1
  P  P42  1  0.97410821  0.33811532  0.58296765  1
  P  P43  1  0.36089760  0.02851708  0.58052539  1
  P  P44  1  0.66241649  0.02856816  0.08113280  1
  P  P45  1  0.36329790  0.33536941  0.07905239  1
  P  P46  1  0.34725302  0.39450741  0.41917190  1
  P  P47  1  0.04750439  0.65186757  0.41937127  1
  O  O48  1  0.22546186  0.00929170  0.31357023  1
  O  O49  1  0.78939001  0.77831566  0.31137297  1
  O  O50  1  0.98613239  0.20474091  0.30995677  1
  O  O51  1  0.18445716  0.17510523  0.81190318  1
  O  O52  1  0.99030933  0.81511066  0.81120847  1
  O  O53  1  0.83390096  0.01151591  0.80849273  1
  O  O54  1  0.79343271  0.96037316  0.69206214  1
  O  O55  1  0.15610421  0.19240010  0.69495398  1
  O  O56  1  0.03994566  0.83496318  0.69458632  1
  O  O57  1  0.78777219  0.82908674  0.19402148  1
  O  O58  1  0.03510393  0.20849484  0.19181252  1
  O  O59  1  0.16726027  0.96210879  0.19673689  1
  O  O60  1  0.91093218  0.37337794  0.64224584  1
  O  O61  1  0.48182574  0.09171622  0.63472481  1
  O  O62  1  0.62422458  0.53465265  0.64782825  1
  O  O63  1  0.92672731  0.53344292  0.14399886  1
  O  O64  1  0.62801298  0.07888629  0.14328222  1
  O  O65  1  0.47136928  0.38366348  0.13629484  1
  O  O66  1  0.44669094  0.29775697  0.02216663  1
  O  O67  1  0.82983498  0.54008120  0.02478570  1
  O  O68  1  0.70199712  0.16668496  0.02984848  1
  O  O69  1  0.44657631  0.14911448  0.52234643  1
  O  O70  1  0.69967332  0.53261403  0.52399919  1
  O  O71  1  0.83888256  0.29368464  0.52689858  1
  O  O72  1  0.53200226  0.69959376  0.97549819  1
  O  O73  1  0.17230600  0.46076130  0.97316102  1
  O  O74  1  0.28505433  0.82336038  0.97145224  1
  O  O75  1  0.51386098  0.83342258  0.47752697  1
  O  O76  1  0.31257631  0.47925599  0.47454134  1
  O  O77  1  0.16632987  0.67594411  0.47339713  1
  O  O78  1  0.12413849  0.62143803  0.35825360  1
  O  O79  1  0.49125365  0.87461037  0.35689858  1
  O  O80  1  0.37722155  0.50765067  0.36056273  1
  O  O81  1  0.12383535  0.50643373  0.85472946  1
  O  O82  1  0.38147962  0.87633124  0.85534095  1
  O  O83  1  0.48912747  0.61977404  0.85528294  1
  O  O84  1  0.02658510  0.81245104  0.42020853  1
  O  O85  1  0.80447914  0.98594924  0.42388226  1
  O  O86  1  0.19014439  0.20982797  0.41903159  1
  O  O87  1  0.02659897  0.18392830  0.90971369  1
  O  O88  1  0.16552356  0.98272356  0.90952007  1
  O  O89  1  0.82156242  0.83614758  0.90993058  1
  O  O90  1  0.98527364  0.16741577  0.58580050  1
  O  O91  1  0.18248986  0.02129271  0.58860935  1
  O  O92  1  0.84323220  0.83284997  0.58815091  1
  O  O93  1  0.97810007  0.82833201  0.08931694  1
  O  O94  1  0.83717862  0.01836623  0.08463735  1
  O  O95  1  0.17437832  0.16839134  0.08685638  1
  O  O96  1  0.70086306  0.15173844  0.75289691  1
  O  O97  1  0.45637869  0.31031903  0.75440444  1
  O  O98  1  0.85657221  0.54481141  0.75305796  1
  O  O99  1  0.67172891  0.52477282  0.24420356  1
  O  O100  1  0.85736460  0.32913920  0.24502897  1
  O  O101  1  0.48116261  0.13857498  0.24576317  1
  O  O102  1  0.63973321  0.49278633  0.92257626  1
  O  O103  1  0.85122544  0.36393848  0.92398083  1
  O  O104  1  0.50929999  0.15725243  0.92580518  1
  O  O105  1  0.62610396  0.15640120  0.42638998  1
  O  O106  1  0.51806665  0.38290008  0.42303380  1
  O  O107  1  0.86239808  0.48245413  0.42362375  1
  O  O108  1  0.33982953  0.49719213  0.06968887  1
  O  O109  1  0.16713840  0.65361062  0.06851615  1
  O  O110  1  0.50621530  0.84140181  0.06918456  1
  O  O111  1  0.32817114  0.83997090  0.57003713  1
  O  O112  1  0.49912260  0.66715794  0.57353911  1
  O  O113  1  0.15495560  0.50012015  0.57031584  1
  O  O114  1  0.29286376  0.80893909  0.25233511  1
  O  O115  1  0.51440715  0.70418569  0.25356280  1
  O  O116  1  0.18810551  0.48792730  0.25458309  1
  O  O117  1  0.28263476  0.46569788  0.75493505  1
  O  O118  1  0.18670338  0.71050937  0.75618083  1
  O  O119  1  0.53198006  0.81354708  0.75702840  1
