# generated using pymatgen
data_SrMgFe2(SeO3)4
_symmetry_space_group_name_H-M   'P 1'
_cell_length_a   5.94864900
_cell_length_b   7.31383145
_cell_length_c   6.82265528
_cell_angle_alpha   92.36690719
_cell_angle_beta   90.00000000
_cell_angle_gamma   90.00000000
_symmetry_Int_Tables_number   1
_chemical_formula_structural   SrMgFe2(SeO3)4
_chemical_formula_sum   'Sr1 Mg1 Fe2 Se4 O12'
_cell_volume   296.58285678
_cell_formula_units_Z   1
loop_
 _symmetry_equiv_pos_site_id
 _symmetry_equiv_pos_as_xyz
  1  'x, y, z'
loop_
 _atom_site_type_symbol
 _atom_site_label
 _atom_site_symmetry_multiplicity
 _atom_site_fract_x
 _atom_site_fract_y
 _atom_site_fract_z
 _atom_site_occupancy
  Sr  Sr0  1  0.50000000  0.50000000  0.50000000  1
  Mg  Mg1  1  0.00000000  0.50000000  0.50000000  1
  Fe  Fe2  1  0.00000000  0.00000000  0.50000000  1
  Fe  Fe3  1  0.50000000  0.50000000  0.00000000  1
  Se  Se4  1  0.50000000  0.89578500  0.27875400  1
  Se  Se5  1  0.00000000  0.29976500  0.12054800  1
  Se  Se6  1  0.00000000  0.70023500  0.87945200  1
  Se  Se7  1  0.50000000  0.10421500  0.72124600  1
  O  O8  1  0.78935100  0.57255600  0.75011900  1
  O  O9  1  0.50000000  0.23799900  0.93696600  1
  O  O10  1  0.72395100  0.19657700  0.59208900  1
  O  O11  1  0.21064900  0.57255600  0.75011900  1
  O  O12  1  0.00000000  0.09274400  0.21757900  1
  O  O13  1  0.50000000  0.76200100  0.06303400  1
  O  O14  1  0.27604900  0.19657700  0.59208900  1
  O  O15  1  0.72395100  0.80342300  0.40791100  1
  O  O16  1  0.00000000  0.90725600  0.78242100  1
  O  O17  1  0.27604900  0.80342300  0.40791100  1
  O  O18  1  0.78935100  0.42744400  0.24988100  1
  O  O19  1  0.21064900  0.42744400  0.24988100  1
