# generated using pymatgen
data_MgMn2(PO4)2
_symmetry_space_group_name_H-M   'P 1'
_cell_length_a   5.05823778
_cell_length_b   5.05823717
_cell_length_c   6.83745388
_cell_angle_alpha   88.19533135
_cell_angle_beta   88.19533193
_cell_angle_gamma   69.11260698
_symmetry_Int_Tables_number   1
_chemical_formula_structural   MgMn2(PO4)2
_chemical_formula_sum   'Mg1 Mn2 P2 O8'
_cell_volume   163.32531988
_cell_formula_units_Z   1
loop_
 _symmetry_equiv_pos_site_id
 _symmetry_equiv_pos_as_xyz
  1  'x, y, z'
loop_
 _atom_site_type_symbol
 _atom_site_label
 _atom_site_symmetry_multiplicity
 _atom_site_fract_x
 _atom_site_fract_y
 _atom_site_fract_z
 _atom_site_occupancy
  Mg  Mg0  1  0.50000400  0.50000400  0.49999400  1
  Mn  Mn1  1  0.00000300  0.00000300  0.50004200  1
  Mn  Mn2  1  0.99998400  0.99998400  0.99999500  1
  P  P3  1  0.33786200  0.33786200  0.22360700  1
  P  P4  1  0.66214000  0.66214200  0.77639000  1
  O  O5  1  0.67236200  0.23954300  0.25255400  1
  O  O6  1  0.76029400  0.76029600  0.57661400  1
  O  O7  1  0.24548700  0.24548700  0.04033000  1
  O  O8  1  0.23970700  0.23970700  0.42338700  1
  O  O9  1  0.76046400  0.32764400  0.74744000  1
  O  O10  1  0.32764400  0.76046400  0.74744000  1
  O  O11  1  0.75450200  0.75450400  0.95966000  1
  O  O12  1  0.23954400  0.67236100  0.25255400  1
