# generated using pymatgen
data_TlCl2
_symmetry_space_group_name_H-M   'P 1'
_cell_length_a   7.04347898
_cell_length_b   7.04348011
_cell_length_c   9.16401892
_cell_angle_alpha   112.60034971
_cell_angle_beta   112.60035399
_cell_angle_gamma   89.99999996
_symmetry_Int_Tables_number   1
_chemical_formula_structural   TlCl2
_chemical_formula_sum   'Tl4 Cl8'
_cell_volume   381.62750605
_cell_formula_units_Z   4
loop_
 _symmetry_equiv_pos_site_id
 _symmetry_equiv_pos_as_xyz
  1  'x, y, z'
loop_
 _atom_site_type_symbol
 _atom_site_label
 _atom_site_symmetry_multiplicity
 _atom_site_fract_x
 _atom_site_fract_y
 _atom_site_fract_z
 _atom_site_occupancy
  Tl  Tl0  1  0.62500000  0.87500000  0.25000000  1
  Tl  Tl1  1  0.37500000  0.12500000  0.75000000  1
  Tl  Tl2  1  0.12500000  0.37500000  0.25000000  1
  Tl  Tl3  1  0.87500000  0.62500000  0.75000000  1
  Cl  Cl4  1  0.27979275  0.45322899  0.07542466  1
  Cl  Cl5  1  0.62219666  0.77979275  0.57542466  1
  Cl  Cl6  1  0.95322899  0.29563391  0.57542466  1
  Cl  Cl7  1  0.79563391  0.12219666  0.07542466  1
  Cl  Cl8  1  0.20436609  0.87780334  0.92457534  1
  Cl  Cl9  1  0.04677101  0.70436609  0.42457534  1
  Cl  Cl10  1  0.37780334  0.22020725  0.42457534  1
  Cl  Cl11  1  0.72020725  0.54677101  0.92457534  1
