# generated using pymatgen
data_MgVCrP2(O4F)2
_symmetry_space_group_name_H-M   'P 1'
_cell_length_a   5.22305152
_cell_length_b   5.40801991
_cell_length_c   7.39841105
_cell_angle_alpha   109.92950141
_cell_angle_beta   106.68708574
_cell_angle_gamma   97.21848100
_symmetry_Int_Tables_number   1
_chemical_formula_structural   MgVCrP2(O4F)2
_chemical_formula_sum   'Mg1 V1 Cr1 P2 O8 F2'
_cell_volume   182.29970505
_cell_formula_units_Z   1
loop_
 _symmetry_equiv_pos_site_id
 _symmetry_equiv_pos_as_xyz
  1  'x, y, z'
loop_
 _atom_site_type_symbol
 _atom_site_label
 _atom_site_symmetry_multiplicity
 _atom_site_fract_x
 _atom_site_fract_y
 _atom_site_fract_z
 _atom_site_occupancy
  Mg  Mg0  1  0.07906300  0.43105800  0.82272600  1
  V  V1  1  0.00047600  0.00398000  0.00962600  1
  Cr  Cr2  1  0.48314800  0.49401200  0.48971200  1
  P  P3  1  0.43775200  0.11222100  0.75614000  1
  P  P4  1  0.56561600  0.87568200  0.23830600  1
  O  O5  1  0.29108500  0.17227500  0.91871600  1
  O  O6  1  0.34367400  0.81242400  0.61611400  1
  O  O7  1  0.33421500  0.31060900  0.65425000  1
  O  O8  1  0.25127900  0.77838100  0.08824500  1
  O  O9  1  0.76045400  0.20484500  0.85970900  1
  O  O10  1  0.63058600  0.67856100  0.34131400  1
  O  O11  1  0.62946100  0.16809900  0.39644200  1
  O  O12  1  0.72562100  0.84884000  0.08939700  1
  F  F13  1  0.13366400  0.33398300  0.26731500  1
  F  F14  1  0.84953200  0.65628000  0.73100500  1
