# generated using pymatgen
data_Na7Ta2Ga2Si5PO24
_symmetry_space_group_name_H-M   'P 1'
_cell_length_a   8.97099232
_cell_length_b   8.97541723
_cell_length_c   22.22580866
_cell_angle_alpha   89.68427050
_cell_angle_beta   90.11245522
_cell_angle_gamma   119.85960616
_symmetry_Int_Tables_number   1
_chemical_formula_structural   Na7Ta2Ga2Si5PO24
_chemical_formula_sum   'Na21 Ta6 Ga6 Si15 P3 O72'
_cell_volume   1551.99109404
_cell_formula_units_Z   3
loop_
 _symmetry_equiv_pos_site_id
 _symmetry_equiv_pos_as_xyz
  1  'x, y, z'
loop_
 _atom_site_type_symbol
 _atom_site_label
 _atom_site_symmetry_multiplicity
 _atom_site_fract_x
 _atom_site_fract_y
 _atom_site_fract_z
 _atom_site_occupancy
  Na  Na0  1  0.64045542  0.01028888  0.24913841  1
  Na  Na1  1  0.37201719  0.36208605  0.24701499  1
  Na  Na2  1  0.98909025  0.62651579  0.24781245  1
  Na  Na3  1  0.63730991  0.62665862  0.74754603  1
  Na  Na4  1  0.98891653  0.36076620  0.74817747  1
  Na  Na5  1  0.37374997  0.01205879  0.74778971  1
  Na  Na6  1  0.30538258  0.34245002  0.58174280  1
  Na  Na7  1  0.03921591  0.69660252  0.58094895  1
  Na  Na8  1  0.65700901  0.96064436  0.58120181  1
  Na  Na9  1  0.30102031  0.96220592  0.07984066  1
  Na  Na10  1  0.04107466  0.34552103  0.08194259  1
  Na  Na11  1  0.97318392  0.67710857  0.91486996  1
  Na  Na12  1  0.32203988  0.29204192  0.91511309  1
  Na  Na13  1  0.32294715  0.02761270  0.41483890  1
  Na  Na14  1  0.70681833  0.67656151  0.41504195  1
  Na  Na15  1  0.99734687  0.00484450  0.49383264  1
  Na  Na16  1  0.98914388  0.99657513  0.99459828  1
  Na  Na17  1  0.66726073  0.32492487  0.82893028  1
  Na  Na18  1  0.67463202  0.33254817  0.32933454  1
  Na  Na19  1  0.33933045  0.66350934  0.16044468  1
  Na  Na20  1  0.33434341  0.66682999  0.66165621  1
  Ta  Ta21  1  0.99940840  0.99954012  0.64649425  1
  Ta  Ta22  1  0.99968466  0.99738123  0.14597510  1
  Ta  Ta23  1  0.66620392  0.33130158  0.97957199  1
  Ta  Ta24  1  0.67291764  0.33219861  0.47942429  1
  Ta  Ta25  1  0.32979756  0.66800931  0.31303750  1
  Ta  Ta26  1  0.33148603  0.66936639  0.81337475  1
  Ga  Ga27  1  0.99301711  0.99742124  0.35057548  1
  Ga  Ga28  1  0.00259474  0.00631411  0.85088026  1
  Ga  Ga29  1  0.66672293  0.33317826  0.68465917  1
  Ga  Ga30  1  0.66815077  0.34086835  0.18539060  1
  Ga  Ga31  1  0.32655521  0.65818343  0.01766265  1
  Ga  Ga32  1  0.33554165  0.67259639  0.51847126  1
  Si  Si33  1  0.29204607  0.00539920  0.25219402  1
  Si  Si34  1  0.71144674  0.70769588  0.25188832  1
  Si  Si35  1  0.99554870  0.28587515  0.25083793  1
  Si  Si36  1  0.29373795  0.28922272  0.75159404  1
  Si  Si37  1  0.99503305  0.70843440  0.75273998  1
  Si  Si38  1  0.71305865  0.00397522  0.75188316  1
  Si  Si39  1  0.96076162  0.33814812  0.58553418  1
  Si  Si40  1  0.37913890  0.04290268  0.58465461  1
  Si  Si41  1  0.66240248  0.62069059  0.58429087  1
  Si  Si42  1  0.95645988  0.62276397  0.08458587  1
  Si  Si43  1  0.38141831  0.34365850  0.08489512  1
  Si  Si44  1  0.04037780  0.36790431  0.91807978  1
  Si  Si45  1  0.33171475  0.95545104  0.91914089  1
  Si  Si46  1  0.62956194  0.95763651  0.41810104  1
  Si  Si47  1  0.04353840  0.66944129  0.41851899  1
  P  P48  1  0.66356653  0.04081290  0.08488498  1
  P  P49  1  0.62279206  0.67216589  0.91879014  1
  P  P50  1  0.32820552  0.37512095  0.41860218  1
  O  O51  1  0.20695675  0.03815740  0.31058658  1
  O  O52  1  0.82922717  0.78847528  0.31064939  1
  O  O53  1  0.96086046  0.16157503  0.30728420  1
  O  O54  1  0.21046005  0.16999282  0.81006303  1
  O  O55  1  0.96408962  0.79492709  0.81102887  1
  O  O56  1  0.83843622  0.03820291  0.80755888  1
  O  O57  1  0.79733957  0.96398979  0.69096995  1
  O  O58  1  0.16551724  0.20167545  0.69202817  1
  O  O59  1  0.03570300  0.83455875  0.69248374  1
  O  O60  1  0.80259445  0.83988625  0.19378145  1
  O  O61  1  0.03525541  0.20235524  0.19013379  1
  O  O62  1  0.16456193  0.96464837  0.19244200  1
  O  O63  1  0.87685742  0.37285823  0.64395636  1
  O  O64  1  0.49732843  0.12727789  0.64319938  1
  O  O65  1  0.62982783  0.50358369  0.64341221  1
  O  O66  1  0.87321223  0.50115864  0.14294427  1
  O  O67  1  0.63375405  0.12067157  0.14108512  1
  O  O68  1  0.48947812  0.35916306  0.14463091  1
  O  O69  1  0.46825991  0.30102990  0.02571139  1
  O  O70  1  0.83489381  0.52917646  0.02464028  1
  O  O71  1  0.69715460  0.16452595  0.02927049  1
  O  O72  1  0.46559911  0.16886560  0.52479526  1
  O  O73  1  0.70028664  0.53253761  0.52488765  1
  O  O74  1  0.82861359  0.29813600  0.52724630  1
  O  O75  1  0.53441780  0.69365193  0.97307712  1
  O  O76  1  0.15973946  0.45584267  0.97629440  1
  O  O77  1  0.30119991  0.83541644  0.97727029  1
  O  O78  1  0.54105090  0.83771275  0.47662464  1
  O  O79  1  0.30709141  0.45934982  0.47484140  1
  O  O80  1  0.16290537  0.70059492  0.47672581  1
  O  O81  1  0.13376309  0.63644225  0.35834078  1
  O  O82  1  0.49974952  0.86386579  0.35879007  1
  O  O83  1  0.36191055  0.49321373  0.36169267  1
  O  O84  1  0.13444871  0.49931610  0.85886753  1
  O  O85  1  0.36415028  0.86530897  0.85864993  1
  O  O86  1  0.50759481  0.63542037  0.86092632  1
  O  O87  1  0.02501447  0.84006735  0.41166162  1
  O  O88  1  0.81573454  0.97377245  0.41089845  1
  O  O89  1  0.17662832  0.19342353  0.41194208  1
  O  O90  1  0.02541550  0.18240359  0.91073726  1
  O  O91  1  0.16118173  0.97444401  0.91211626  1
  O  O92  1  0.80571654  0.82154265  0.91195075  1
  O  O93  1  0.97232838  0.15981943  0.58885260  1
  O  O94  1  0.18727739  0.02829467  0.58913013  1
  O  O95  1  0.83993818  0.81216574  0.58896594  1
  O  O96  1  0.97638251  0.81663227  0.08895237  1
  O  O97  1  0.83404392  0.03461694  0.08835531  1
  O  O98  1  0.18673876  0.16319042  0.08902197  1
  O  O99  1  0.68660093  0.16877109  0.74444249  1
  O  O100  1  0.48396063  0.31342339  0.74428797  1
  O  O101  1  0.83133677  0.51783569  0.74537371  1
  O  O102  1  0.68678752  0.51706597  0.24476868  1
  O  O103  1  0.82946377  0.31130028  0.24337578  1
  O  O104  1  0.48413799  0.16678465  0.24372411  1
  O  O105  1  0.63489598  0.50077537  0.92324236  1
  O  O106  1  0.85399034  0.36489692  0.92273605  1
  O  O107  1  0.50295565  0.15079417  0.92334295  1
  O  O108  1  0.63120206  0.14357789  0.42215861  1
  O  O109  1  0.49868700  0.36437618  0.42177607  1
  O  O110  1  0.84825924  0.49787749  0.42216906  1
  O  O111  1  0.35044977  0.50550179  0.07744444  1
  O  O112  1  0.14990420  0.64964956  0.07840163  1
  O  O113  1  0.50518510  0.86480114  0.07615175  1
  O  O114  1  0.35393891  0.85156452  0.57837581  1
  O  O115  1  0.49542506  0.64451522  0.57712887  1
  O  O116  1  0.15112562  0.50193905  0.57655973  1
  O  O117  1  0.30490753  0.82608478  0.25608149  1
  O  O118  1  0.51898981  0.69127013  0.25704544  1
  O  O119  1  0.17341646  0.47750791  0.25669837  1
  O  O120  1  0.30867542  0.48100496  0.75691199  1
  O  O121  1  0.17443810  0.69522171  0.75636917  1
  O  O122  1  0.52206513  0.82554219  0.75674127  1
