# generated using pymatgen
data_Na7Ca3GeP5SO24
_symmetry_space_group_name_H-M   'P 1'
_cell_length_a   9.27441150
_cell_length_b   9.26946241
_cell_length_c   22.53469228
_cell_angle_alpha   90.29253822
_cell_angle_beta   90.14407588
_cell_angle_gamma   120.00026673
_symmetry_Int_Tables_number   1
_chemical_formula_structural   Na7Ca3GeP5SO24
_chemical_formula_sum   'Na21 Ca9 Ge3 P15 S3 O72'
_cell_volume   1677.67915814
_cell_formula_units_Z   3
loop_
 _symmetry_equiv_pos_site_id
 _symmetry_equiv_pos_as_xyz
  1  'x, y, z'
loop_
 _atom_site_type_symbol
 _atom_site_label
 _atom_site_symmetry_multiplicity
 _atom_site_fract_x
 _atom_site_fract_y
 _atom_site_fract_z
 _atom_site_occupancy
  Na  Na0  1  0.62353672  0.00007439  0.25129675  1
  Na  Na1  1  0.36515001  0.35161490  0.25337174  1
  Na  Na2  1  0.01194043  0.64756277  0.25043981  1
  Na  Na3  1  0.65005247  0.64759087  0.75302940  1
  Na  Na4  1  0.99629418  0.35359899  0.75319662  1
  Na  Na5  1  0.29586520  0.34356558  0.58493034  1
  Na  Na6  1  0.02909941  0.69353160  0.58696984  1
  Na  Na7  1  0.67042541  0.95806614  0.58364034  1
  Na  Na8  1  0.29696570  0.96073371  0.07808427  1
  Na  Na9  1  0.66201460  0.70054429  0.07305172  1
  Na  Na10  1  0.03998680  0.33799224  0.07387450  1
  Na  Na11  1  0.97376767  0.67018983  0.90989297  1
  Na  Na12  1  0.32768175  0.29892490  0.91010373  1
  Na  Na13  1  0.33536795  0.02039252  0.41512565  1
  Na  Na14  1  0.69003357  0.67123918  0.42148703  1
  Na  Na15  1  0.99353136  0.01282607  0.49709746  1
  Na  Na16  1  0.98436181  0.00087116  0.99325629  1
  Na  Na17  1  0.65446745  0.30764753  0.83155302  1
  Na  Na18  1  0.66719418  0.32140751  0.33986180  1
  Na  Na19  1  0.33168174  0.67641117  0.16069007  1
  Na  Na20  1  0.33328461  0.67285887  0.67496877  1
  Ca  Ca21  1  0.00631747  0.00954047  0.35361648  1
  Ca  Ca22  1  0.99744838  0.00107802  0.84944338  1
  Ca  Ca23  1  0.99723335  0.99774164  0.65806859  1
  Ca  Ca24  1  0.00506301  0.99915670  0.14416434  1
  Ca  Ca25  1  0.66187399  0.33054960  0.68839696  1
  Ca  Ca26  1  0.66337109  0.33055702  0.18058042  1
  Ca  Ca27  1  0.33693979  0.66953532  0.01110257  1
  Ca  Ca28  1  0.32860828  0.66087908  0.51204851  1
  Ca  Ca29  1  0.33080899  0.66730138  0.32850107  1
  Ge  Ge30  1  0.66688758  0.32728511  0.98063242  1
  Ge  Ge31  1  0.68681402  0.34672859  0.48086466  1
  Ge  Ge32  1  0.33723753  0.68057292  0.81849042  1
  P  P33  1  0.30510594  0.99565280  0.25029760  1
  P  P34  1  0.30625862  0.32644896  0.75652889  1
  P  P35  1  0.01682202  0.69527727  0.75474870  1
  P  P36  1  0.67875030  0.98379533  0.75254942  1
  P  P37  1  0.95227821  0.33022461  0.58110142  1
  P  P38  1  0.67079125  0.62342693  0.57999406  1
  P  P39  1  0.95280537  0.62091153  0.07941972  1
  P  P40  1  0.66985455  0.04629713  0.07986185  1
  P  P41  1  0.37752014  0.33246540  0.07868549  1
  P  P42  1  0.62971320  0.65056194  0.91886848  1
  P  P43  1  0.02307662  0.37195636  0.91940137  1
  P  P44  1  0.34911085  0.97326416  0.91884725  1
  P  P45  1  0.64241871  0.99147176  0.42222578  1
  P  P46  1  0.35375588  0.35773716  0.42185896  1
  P  P47  1  0.01267040  0.65692000  0.41919034  1
  S  S48  1  0.69462109  0.69903294  0.25055384  1
  S  S49  1  0.00340529  0.30588132  0.24829929  1
  S  S50  1  0.37305108  0.04394016  0.57907956  1
  O  O51  1  0.21547620  0.00945166  0.30532368  1
  O  O52  1  0.79147035  0.78601021  0.30360194  1
  O  O53  1  0.98388624  0.19963913  0.29896946  1
  O  O54  1  0.22149189  0.21951087  0.80995268  1
  O  O55  1  0.98763418  0.77882913  0.80738038  1
  O  O56  1  0.80111740  0.01063650  0.80132896  1
  O  O57  1  0.73537416  0.94092818  0.69316120  1
  O  O58  1  0.20235704  0.25558145  0.69863594  1
  O  O59  1  0.04229786  0.79001454  0.69591144  1
  O  O60  1  0.77466926  0.79582379  0.19627676  1
  O  O61  1  0.01545613  0.22802381  0.19253561  1
  O  O62  1  0.20503908  0.98038778  0.19333171  1
  O  O63  1  0.87555134  0.34656037  0.63789269  1
  O  O64  1  0.47256468  0.12367792  0.63117479  1
  O  O65  1  0.64945678  0.52412275  0.63541352  1
  O  O66  1  0.88184108  0.53293161  0.13800141  1
  O  O67  1  0.65365252  0.11471339  0.13943288  1
  O  O68  1  0.46652684  0.35136380  0.13749721  1
  O  O69  1  0.47679212  0.31225662  0.02429781  1
  O  O70  1  0.83454976  0.52023832  0.02457134  1
  O  O71  1  0.68872408  0.16880347  0.02735540  1
  O  O72  1  0.45395881  0.14239478  0.52400424  1
  O  O73  1  0.68873021  0.52651201  0.52326667  1
  O  O74  1  0.83296388  0.31047793  0.52616479  1
  O  O75  1  0.55913735  0.67307246  0.97642469  1
  O  O76  1  0.11945112  0.44640929  0.97670819  1
  O  O77  1  0.31915925  0.87898238  0.97630789  1
  O  O78  1  0.55535454  0.88133482  0.47560529  1
  O  O79  1  0.33353622  0.44278656  0.47593902  1
  O  O80  1  0.12353643  0.68710177  0.47297041  1
  O  O81  1  0.08476886  0.63095898  0.36150071  1
  O  O82  1  0.53416013  0.92101310  0.36525143  1
  O  O83  1  0.38393800  0.46151539  0.36471601  1
  O  O84  1  0.11121731  0.49450535  0.86528712  1
  O  O85  1  0.37089479  0.87372765  0.86493772  1
  O  O86  1  0.51034439  0.62628632  0.86428220  1
  O  O87  1  0.97931984  0.80353436  0.41545274  1
  O  O88  1  0.81291243  0.00647251  0.41619689  1
  O  O89  1  0.20860587  0.17841455  0.41748336  1
  O  O90  1  0.00742733  0.20210892  0.91135400  1
  O  O91  1  0.20063792  -0.00006456  0.90891977  1
  O  O92  1  0.80858506  0.79183807  0.91166065  1
  O  O93  1  0.96764886  0.17113660  0.57884989  1
  O  O94  1  0.20537356  0.03050656  0.58221820  1
  O  O95  1  0.83319094  0.79525028  0.57930651  1
  O  O96  1  0.96183230  0.79235629  0.07649992  1
  O  O97  1  0.83031718  0.03397011  0.07662110  1
  O  O98  1  0.20447703  0.17184046  0.07592064  1
  O  O99  1  0.65665677  0.13573271  0.74915437  1
  O  O100  1  0.48624714  0.36338758  0.75167095  1
  O  O101  1  0.86803013  0.51556368  0.75086963  1
  O  O102  1  0.68192359  0.53258928  0.24911212  1
  O  O103  1  0.85708500  0.33126160  0.24844895  1
  O  O104  1  0.48094924  0.15472472  0.25112745  1
  O  O105  1  0.63289898  0.47765520  0.92081406  1
  O  O106  1  0.84550725  0.36299218  0.92281128  1
  O  O107  1  0.51199916  0.15289157  0.92199168  1
  O  O108  1  0.65113958  0.16692888  0.42905326  1
  O  O109  1  0.52125755  0.34780316  0.42710246  1
  O  O110  1  0.83560134  0.49260114  0.42504643  1
  O  O111  1  0.35633743  0.48672671  0.07462471  1
  O  O112  1  0.12912984  0.64404182  0.07564381  1
  O  O113  1  0.51504304  0.87150406  0.07506566  1
  O  O114  1  0.34961772  0.87312861  0.57575749  1
  O  O115  1  0.51850392  0.64733221  0.57432054  1
  O  O116  1  0.12590810  0.48684085  0.57552270  1
  O  O117  1  0.32298904  0.83694250  0.25183728  1
  O  O118  1  0.52381227  0.67669790  0.25293947  1
  O  O119  1  0.15873349  0.47126564  0.25316701  1
  O  O120  1  0.31152612  0.50266104  0.76415545  1
  O  O121  1  0.18120503  0.68209788  0.76335703  1
  O  O122  1  0.50520763  0.81551101  0.76383136  1
