# generated using pymatgen
data_Na7Hf4Si5PO24
_symmetry_space_group_name_H-M   'P 1'
_cell_length_a   9.16911230
_cell_length_b   9.17200111
_cell_length_c   22.79479225
_cell_angle_alpha   89.93323482
_cell_angle_beta   90.02722393
_cell_angle_gamma   120.00720428
_symmetry_Int_Tables_number   1
_chemical_formula_structural   Na7Hf4Si5PO24
_chemical_formula_sum   'Na21 Hf12 Si15 P3 O72'
_cell_volume   1660.06781591
_cell_formula_units_Z   3
loop_
 _symmetry_equiv_pos_site_id
 _symmetry_equiv_pos_as_xyz
  1  'x, y, z'
loop_
 _atom_site_type_symbol
 _atom_site_label
 _atom_site_symmetry_multiplicity
 _atom_site_fract_x
 _atom_site_fract_y
 _atom_site_fract_z
 _atom_site_occupancy
  Na  Na0  1  0.63696993  0.00088252  0.25124143  1
  Na  Na1  1  0.36358474  0.36402800  0.24824958  1
  Na  Na2  1  0.00028181  0.63384969  0.25043635  1
  Na  Na3  1  0.63481676  0.63407887  0.74897016  1
  Na  Na4  1  0.99896936  0.36447574  0.75029411  1
  Na  Na5  1  0.36665396  0.00161564  0.75048940  1
  Na  Na6  1  0.30143074  0.33241012  0.58412075  1
  Na  Na7  1  0.03142015  0.69961319  0.58311737  1
  Na  Na8  1  0.66831286  0.96801873  0.58344033  1
  Na  Na9  1  0.29567536  0.96862783  0.08162632  1
  Na  Na10  1  0.03709768  0.33685315  0.08493235  1
  Na  Na11  1  0.97287699  0.66913983  0.91722813  1
  Na  Na12  1  0.32997967  0.29575849  0.91806948  1
  Na  Na13  1  0.33105634  0.02870946  0.41672031  1
  Na  Na14  1  0.70296502  0.66863605  0.41804472  1
  Na  Na15  1  0.99628992  0.00441304  0.49923101  1
  Na  Na16  1  0.98953188  0.99421872  0.00004253  1
  Na  Na17  1  0.66775818  0.32037273  0.83402007  1
  Na  Na18  1  0.67927022  0.33132184  0.33460035  1
  Na  Na19  1  0.33975161  0.66232663  0.16584946  1
  Na  Na20  1  0.33429892  0.66632472  0.66676846  1
  Hf  Hf21  1  0.99685042  0.00118195  0.35211612  1
  Hf  Hf22  1  0.99930667  0.00322441  0.85253471  1
  Hf  Hf23  1  -0.00007098  0.99922095  0.64827246  1
  Hf  Hf24  1  0.99869843  0.99531329  0.14769631  1
  Hf  Hf25  1  0.66700351  0.33336925  0.68521720  1
  Hf  Hf26  1  0.66782924  0.33927259  0.18528279  1
  Hf  Hf27  1  0.66633054  0.33068344  0.98103616  1
  Hf  Hf28  1  0.67436591  0.33228155  0.48106053  1
  Hf  Hf29  1  0.33211673  0.66355511  0.01881269  1
  Hf  Hf30  1  0.33351021  0.66968547  0.51837424  1
  Hf  Hf31  1  0.32922569  0.66798936  0.31458393  1
  Hf  Hf32  1  0.33122287  0.67000528  0.81500696  1
  Si  Si33  1  0.29362651  0.00075075  0.25048495  1
  Si  Si34  1  0.70751412  0.70804419  0.25088644  1
  Si  Si35  1  0.99978816  0.29132881  0.24841884  1
  Si  Si36  1  0.29381123  0.29366518  0.75035324  1
  Si  Si37  1  0.99914903  0.70656435  0.75084011  1
  Si  Si38  1  0.70709911  0.99954273  0.74947090  1
  Si  Si39  1  0.96137198  0.33286339  0.58443395  1
  Si  Si40  1  0.37402826  0.04143941  0.58248097  1
  Si  Si41  1  0.66598970  0.62570917  0.58270725  1
  Si  Si42  1  0.96015095  0.62876638  0.08212034  1
  Si  Si43  1  0.37267269  0.33512607  0.08328221  1
  Si  Si44  1  0.03774979  0.37125310  0.91671973  1
  Si  Si45  1  0.33468886  0.96238377  0.91699573  1
  Si  Si46  1  0.62830682  0.96191864  0.41643409  1
  Si  Si47  1  0.03662680  0.66629902  0.41627743  1
  P  P48  1  0.66682137  0.04244251  0.08400481  1
  P  P49  1  0.62483761  0.66716941  0.91677485  1
  P  P50  1  0.33247318  0.37401052  0.41697011  1
  O  O51  1  0.20820157  0.03468332  0.30801699  1
  O  O52  1  0.82642321  0.79099063  0.30906759  1
  O  O53  1  0.96588706  0.16604452  0.30403025  1
  O  O54  1  0.20543531  0.17243322  0.80758874  1
  O  O55  1  0.96751436  0.79401826  0.80813366  1
  O  O56  1  0.83341602  0.03331890  0.80452334  1
  O  O57  1  0.79005480  0.96606087  0.69072081  1
  O  O58  1  0.17410702  0.20811577  0.69245658  1
  O  O59  1  0.03303862  0.82575745  0.69280507  1
  O  O60  1  0.79756884  0.83423823  0.19550170  1
  O  O61  1  0.03326029  0.20864209  0.18991249  1
  O  O62  1  0.17258007  0.96722660  0.19308136  1
  O  O63  1  0.87851837  0.36875702  0.64261696  1
  O  O64  1  0.49335086  0.12678470  0.64043103  1
  O  O65  1  0.63395164  0.50735791  0.64091105  1
  O  O66  1  0.87415746  0.50730213  0.13995267  1
  O  O67  1  0.63703628  0.12212570  0.13987583  1
  O  O68  1  0.48577573  0.35484934  0.14177768  1
  O  O69  1  0.46217620  0.30268401  0.02625573  1
  O  O70  1  0.84576745  0.53431380  0.02448945  1
  O  O71  1  0.69438854  0.15910974  0.03070653  1
  O  O72  1  0.46071352  0.16132700  0.52506386  1
  O  O73  1  0.69707503  0.53733550  0.52542043  1
  O  O74  1  0.83442583  0.29868730  0.52912955  1
  O  O75  1  0.53527502  0.68978152  0.96996659  1
  O  O76  1  0.16003436  0.46281070  0.97394049  1
  O  O77  1  0.30763846  0.84306010  0.97435700  1
  O  O78  1  0.53918492  0.84164648  0.47429360  1
  O  O79  1  0.31036786  0.45948917  0.47216170  1
  O  O80  1  0.15641149  0.69380128  0.47375181  1
  O  O81  1  0.12692044  0.64132912  0.35810998  1
  O  O82  1  0.50902809  0.86898566  0.35877459  1
  O  O83  1  0.35825806  0.48547350  0.36208914  1
  O  O84  1  0.12902351  0.49087616  0.85890532  1
  O  O85  1  0.35948862  0.87263145  0.85847209  1
  O  O86  1  0.51607553  0.63856362  0.86071832  1
  O  O87  1  0.02759308  0.84140592  0.41223062  1
  O  O88  1  0.81123487  0.97213716  0.41182934  1
  O  O89  1  0.17842081  0.19516792  0.41160071  1
  O  O90  1  0.02864831  0.18887782  0.91219826  1
  O  O91  1  0.15993776  0.97258962  0.91246072  1
  O  O92  1  0.80447127  0.81991319  0.91156901  1
  O  O93  1  0.97930186  0.16423619  0.58867687  1
  O  O94  1  0.18650589  0.02142833  0.58830610  1
  O  O95  1  0.83483724  0.81267364  0.58819694  1
  O  O96  1  0.98686326  0.81856768  0.08719212  1
  O  O97  1  0.82907615  0.03176598  0.08901354  1
  O  O98  1  0.18373505  0.16545338  0.08778263  1
  O  O99  1  0.68711503  0.16725936  0.74477014  1
  O  O100  1  0.48008964  0.31033292  0.74496416  1
  O  O101  1  0.83110373  0.51949348  0.74517519  1
  O  O102  1  0.69055195  0.52123313  0.24406716  1
  O  O103  1  0.83124379  0.31035055  0.24353122  1
  O  O104  1  0.48223360  0.16632376  0.24369013  1
  O  O105  1  0.63907186  0.50469813  0.92299815  1
  O  O106  1  0.85657648  0.36505601  0.92229892  1
  O  O107  1  0.49518660  0.15446858  0.92166287  1
  O  O108  1  0.63123328  0.14182671  0.42122493  1
  O  O109  1  0.49469442  0.36004009  0.42172183  1
  O  O110  1  0.84462370  0.50573302  0.42067279  1
  O  O111  1  0.34889528  0.50033100  0.07862441  1
  O  O112  1  0.14971148  0.64782880  0.07723492  1
  O  O113  1  0.50586546  0.86903454  0.07644816  1
  O  O114  1  0.35593512  0.85387496  0.57701170  1
  O  O115  1  0.49627643  0.64246413  0.57739987  1
  O  O116  1  0.14833512  0.50004750  0.57697496  1
  O  O117  1  0.31106258  0.83077589  0.25545475  1
  O  O118  1  0.51822949  0.68362286  0.25697673  1
  O  O119  1  0.16897499  0.47783507  0.25566722  1
  O  O120  1  0.31468684  0.48144517  0.75683338  1
  O  O121  1  0.16883223  0.68845844  0.75572761  1
  O  O122  1  0.52089441  0.82993425  0.75599219  1
