# generated using pymatgen
data_Na9Mg10Ta2P3(S5O24)3
_symmetry_space_group_name_H-M   'P 1'
_cell_length_a   8.73237889
_cell_length_b   8.72456327
_cell_length_c   22.57018187
_cell_angle_alpha   89.84750756
_cell_angle_beta   90.15715089
_cell_angle_gamma   119.95037418
_symmetry_Int_Tables_number   1
_chemical_formula_structural   Na9Mg10Ta2P3(S5O24)3
_chemical_formula_sum   'Na9 Mg10 Ta2 P3 S15 O72'
_cell_volume   1489.89889648
_cell_formula_units_Z   1
loop_
 _symmetry_equiv_pos_site_id
 _symmetry_equiv_pos_as_xyz
  1  'x, y, z'
loop_
 _atom_site_type_symbol
 _atom_site_label
 _atom_site_symmetry_multiplicity
 _atom_site_fract_x
 _atom_site_fract_y
 _atom_site_fract_z
 _atom_site_occupancy
  Na  Na0  1  0.66801393  0.97057393  0.58686026  1
  Na  Na1  1  0.30264531  0.97059171  0.08685506  1
  Na  Na2  1  0.33233139  0.04037022  0.41487360  1
  Na  Na3  1  0.00586826  0.00803450  0.50085931  1
  Na  Na4  1  0.99076721  0.00174731  0.00068775  1
  Na  Na5  1  0.66911686  0.32722134  0.83117696  1
  Na  Na6  1  0.66300955  0.33626741  0.33060954  1
  Na  Na7  1  0.33324095  0.66134990  0.16220545  1
  Na  Na8  1  0.32654485  0.65915161  0.66194011  1
  Mg  Mg9  1  0.00612538  0.00701381  0.34981904  1
  Mg  Mg10  1  0.99528155  0.00208266  0.85045771  1
  Mg  Mg11  1  0.99912753  0.99861002  0.65020687  1
  Mg  Mg12  1  0.99953847  0.99830772  0.15001991  1
  Mg  Mg13  1  0.66769832  0.33032801  0.68462112  1
  Mg  Mg14  1  0.66145570  0.32879409  0.18458063  1
  Mg  Mg15  1  0.67033482  0.33575201  0.98289661  1
  Mg  Mg16  1  0.66757672  0.34401419  0.48273131  1
  Mg  Mg17  1  0.33283516  0.65951461  0.01888489  1
  Mg  Mg18  1  0.32534601  0.65190257  0.51916228  1
  Ta  Ta19  1  0.33358378  0.66212519  0.31216200  1
  Ta  Ta20  1  0.33842654  0.67074368  0.81227467  1
  P  P21  1  0.29552129  0.00705448  0.25047660  1
  P  P22  1  0.71641398  0.01064375  0.74949099  1
  P  P23  1  0.33173917  0.37102173  0.41895250  1
  S  S24  1  0.71413835  0.70918255  0.25083997  1
  S  S25  1  0.99388045  0.28748531  0.25013667  1
  S  S26  1  0.29221314  0.28751774  0.75093562  1
  S  S27  1  0.99566602  0.70834185  0.75114074  1
  S  S28  1  0.95890629  0.33504599  0.58340884  1
  S  S29  1  0.37069718  0.03960823  0.58234070  1
  S  S30  1  0.66847262  0.62641502  0.58397712  1
  S  S31  1  0.95728109  0.62471969  0.08327515  1
  S  S32  1  0.66951783  0.04146171  0.08277918  1
  S  S33  1  0.37503980  0.33500706  0.08310526  1
  S  S34  1  0.62683815  0.66708878  0.91810960  1
  S  S35  1  0.04194895  0.37420048  0.91755115  1
  S  S36  1  0.33149658  0.95945450  0.91809991  1
  S  S37  1  0.62854532  0.95706911  0.41809246  1
  S  S38  1  0.04089327  0.66465894  0.41743461  1
  O  O39  1  0.21103423  0.02367881  0.30726529  1
  O  O40  1  0.81349437  0.79053830  0.30460983  1
  O  O41  1  0.97096365  0.18585656  0.30380158  1
  O  O42  1  0.21324002  0.18491308  0.80445096  1
  O  O43  1  0.97708380  0.78991410  0.80469966  1
  O  O44  1  0.82032244  0.02647934  0.80473644  1
  O  O45  1  0.77690246  0.96281884  0.69242286  1
  O  O46  1  0.18405812  0.21822074  0.69755436  1
  O  O47  1  0.03743793  0.81719712  0.69773068  1
  O  O48  1  0.78206778  0.81772686  0.19743027  1
  O  O49  1  0.03256524  0.21716511  0.19707840  1
  O  O50  1  0.18436567  0.96387968  0.19388593  1
  O  O51  1  0.87691222  0.35899852  0.63675315  1
  O  O52  1  0.48540950  0.12261969  0.63438561  1
  O  O53  1  0.64208336  0.51878552  0.63706371  1
  O  O54  1  0.87720191  0.51829933  0.13662395  1
  O  O55  1  0.63668283  0.12078237  0.13563327  1
  O  O56  1  0.48185531  0.36093120  0.13655304  1
  O  O57  1  0.45457118  0.30246570  0.02992920  1
  O  O58  1  0.85234246  0.54444948  0.02948099  1
  O  O59  1  0.69414057  0.14758417  0.02891287  1
  O  O60  1  0.44950043  0.14243375  0.52701234  1
  O  O61  1  0.69309764  0.54674757  0.53019282  1
  O  O62  1  0.84689825  0.30298034  0.52998454  1
  O  O63  1  0.54153136  0.69332668  0.96955891  1
  O  O64  1  0.15107482  0.45925276  0.96971022  1
  O  O65  1  0.30707803  0.85185874  0.97123195  1
  O  O66  1  0.54583378  0.85283099  0.47164710  1
  O  O67  1  0.30642459  0.46145481  0.47138210  1
  O  O68  1  0.15632137  0.70010500  0.46899921  1
  O  O69  1  0.13289381  0.64310030  0.36284723  1
  O  O70  1  0.50721054  0.86723337  0.36426020  1
  O  O71  1  0.35351543  0.49377880  0.36188260  1
  O  O72  1  0.13486413  0.48974857  0.86309746  1
  O  O73  1  0.35434068  0.86340613  0.86411341  1
  O  O74  1  0.50940822  0.64415253  0.86330656  1
  O  O75  1  0.02399963  0.82340700  0.40872767  1
  O  O76  1  0.79999931  0.97156373  0.40827497  1
  O  O77  1  0.16883972  0.18644864  0.41047618  1
  O  O78  1  0.02762384  0.20045762  0.90977248  1
  O  O79  1  0.17329755  0.97364019  0.90829066  1
  O  O80  1  0.80040688  0.82426104  0.90935740  1
  O  O81  1  0.97530946  0.17203831  0.58900163  1
  O  O82  1  0.19391258  0.02018977  0.58968892  1
  O  O83  1  0.82737374  0.80818313  0.58873841  1
  O  O84  1  0.98106439  0.80716323  0.08815438  1
  O  O85  1  0.82622145  0.02021959  0.08995934  1
  O  O86  1  0.19635934  0.17194603  0.08892870  1
  O  O87  1  0.67809886  0.16204254  0.74402463  1
  O  O88  1  0.47272683  0.32051251  0.74413170  1
  O  O89  1  0.84481448  0.52971912  0.74433008  1
  O  O90  1  0.68581503  0.53018325  0.24432867  1
  O  O91  1  0.84633279  0.32032410  0.24353619  1
  O  O92  1  0.48320968  0.16218496  0.24457740  1
  O  O93  1  0.63567523  0.50353762  0.92022203  1
  O  O94  1  0.86803338  0.36250345  0.92011167  1
  O  O95  1  0.49422418  0.13226374  0.92015215  1
  O  O96  1  0.63789093  0.13133787  0.42046896  1
  O  O97  1  0.49926545  0.35363685  0.41939247  1
  O  O98  1  0.86950043  0.50272657  0.42089811  1
  O  O99  1  0.35466936  0.49279064  0.07658021  1
  O  O100  1  0.14082164  0.65042590  0.07753840  1
  O  O101  1  0.50438136  0.86323075  0.07656761  1
  O  O102  1  0.35809948  0.86176659  0.57664094  1
  O  O103  1  0.51124785  0.65276068  0.57856682  1
  O  O104  1  0.13599218  0.49358553  0.57777656  1
  O  O105  1  0.31384094  0.83070105  0.26161094  1
  O  O106  1  0.52693432  0.68986438  0.25868242  1
  O  O107  1  0.16265650  0.47352679  0.25823816  1
  O  O108  1  0.30877947  0.47347651  0.75970065  1
  O  O109  1  0.16201655  0.68692157  0.75998329  1
  O  O110  1  0.51912626  0.83230350  0.76164136  1
