# generated using pymatgen
data_Na24Ca10Nb2Si9(SO8)9
_symmetry_space_group_name_H-M   'P 1'
_cell_length_a   9.53756690
_cell_length_b   9.50376624
_cell_length_c   22.95001496
_cell_angle_alpha   89.69488266
_cell_angle_beta   89.95122786
_cell_angle_gamma   120.02898437
_symmetry_Int_Tables_number   1
_chemical_formula_structural   Na24Ca10Nb2Si9(SO8)9
_chemical_formula_sum   'Na24 Ca10 Nb2 Si9 S9 O72'
_cell_volume   1800.98580936
_cell_formula_units_Z   1
loop_
 _symmetry_equiv_pos_site_id
 _symmetry_equiv_pos_as_xyz
  1  'x, y, z'
loop_
 _atom_site_type_symbol
 _atom_site_label
 _atom_site_symmetry_multiplicity
 _atom_site_fract_x
 _atom_site_fract_y
 _atom_site_fract_z
 _atom_site_occupancy
  Na  Na0  1  0.64549601  0.00246949  0.24655849  1
  Na  Na1  1  0.37560194  0.34264963  0.25856193  1
  Na  Na2  1  0.99579855  0.65889937  0.25195501  1
  Na  Na3  1  0.64801221  0.63962073  0.75528538  1
  Na  Na4  1  0.97830024  0.33688253  0.75584412  1
  Na  Na5  1  0.36291411  0.02639655  0.75765746  1
  Na  Na6  1  0.28925501  0.32920548  0.59185947  1
  Na  Na7  1  0.03232055  0.70786556  0.60032786  1
  Na  Na8  1  0.67136624  0.96082553  0.59284220  1
  Na  Na9  1  0.29381805  0.95919013  0.07534522  1
  Na  Na10  1  0.67028639  0.70648671  0.08761271  1
  Na  Na11  1  0.03571246  0.33200834  0.06823717  1
  Na  Na12  1  0.98405631  0.67719238  0.89968588  1
  Na  Na13  1  0.71765865  0.05565129  0.89641259  1
  Na  Na14  1  0.30825073  0.27075017  0.89999340  1
  Na  Na15  1  0.97092811  0.28201855  0.41957999  1
  Na  Na16  1  0.33931521  0.05880359  0.40494531  1
  Na  Na17  1  0.69356179  0.67734783  0.41043129  1
  Na  Na18  1  0.00035947  0.01764316  0.49264133  1
  Na  Na19  1  0.01302302  0.01159417  0.98181108  1
  Na  Na20  1  0.66801094  0.32298487  0.82434733  1
  Na  Na21  1  0.63925491  0.32141706  0.33261851  1
  Na  Na22  1  0.33781955  0.68021573  0.17024075  1
  Na  Na23  1  0.34042720  0.66508301  0.68013606  1
  Ca  Ca24  1  0.00261071  0.99900617  0.34662097  1
  Ca  Ca25  1  0.00247851  0.00110480  0.84374238  1
  Ca  Ca26  1  0.99978663  0.00652312  0.66819873  1
  Ca  Ca27  1  0.00121533  0.98739413  0.15945227  1
  Ca  Ca28  1  0.66436537  0.33143685  0.68553030  1
  Ca  Ca29  1  0.66054690  0.32939352  0.18420455  1
  Ca  Ca30  1  0.66723412  0.32482631  0.97378933  1
  Ca  Ca31  1  0.65727328  0.32967708  0.47719467  1
  Ca  Ca32  1  0.32818831  0.66726035  0.00915814  1
  Ca  Ca33  1  0.34144900  0.66736988  0.51423242  1
  Nb  Nb34  1  0.35631507  0.67780987  0.31910301  1
  Nb  Nb35  1  0.31780535  0.66719201  0.81650903  1
  Si  Si36  1  0.30818056  0.98947579  0.25129737  1
  Si  Si37  1  0.68922271  0.69016293  0.25123278  1
  Si  Si38  1  0.30956466  0.32045968  0.75036037  1
  Si  Si39  1  -0.00032905  0.69074200  0.75017019  1
  Si  Si40  1  0.68056140  0.98869027  0.75097402  1
  Si  Si41  1  0.03524328  0.36719683  0.91975213  1
  Si  Si42  1  0.33276236  0.96565058  0.92015699  1
  Si  Si43  1  0.64082292  0.97459640  0.41990621  1
  Si  Si44  1  0.32877453  0.36755856  0.41890405  1
  S  S45  1  0.01013296  0.31490134  0.24962816  1
  S  S46  1  0.96757689  0.33201729  0.58013974  1
  S  S47  1  0.35668462  0.02880097  0.58114640  1
  S  S48  1  0.67254739  0.64011958  0.58079246  1
  S  S49  1  0.96773812  0.63433762  0.08496777  1
  S  S50  1  0.67268378  0.02959199  0.08494535  1
  S  S51  1  0.36255690  0.33574779  0.08516017  1
  S  S52  1  0.62895074  0.66740634  0.91835721  1
  S  S53  1  0.04196616  0.66507001  0.41578400  1
  O  O54  1  0.22911831  0.02963361  0.30658656  1
  O  O55  1  0.79961159  0.77721852  0.30726569  1
  O  O56  1  0.98526684  0.21429869  0.30201411  1
  O  O57  1  0.22412944  0.19455979  0.80391366  1
  O  O58  1  0.96650540  0.77232351  0.80573115  1
  O  O59  1  0.80268917  0.02416126  0.80471031  1
  O  O60  1  0.74424975  0.94458509  0.69086443  1
  O  O61  1  0.19935688  0.25988036  0.69073312  1
  O  O62  1  0.04599998  0.80349386  0.69156733  1
  O  O63  1  0.75203109  0.80148575  0.19218692  1
  O  O64  1  0.03385864  0.23802699  0.19736634  1
  O  O65  1  0.19796772  0.94714978  0.19235713  1
  O  O66  1  0.87806153  0.33676210  0.63186343  1
  O  O67  1  0.45458891  0.11247542  0.63282301  1
  O  O68  1  0.66497579  0.54354682  0.63239815  1
  O  O69  1  0.88678421  0.54396195  0.13935192  1
  O  O70  1  0.65935955  0.10804555  0.13896542  1
  O  O71  1  0.45303971  0.34270940  0.13885916  1
  O  O72  1  0.44671936  0.32263339  0.03317531  1
  O  O73  1  0.87096717  0.54683760  0.03365199  1
  O  O74  1  0.68056949  0.12702509  0.03355325  1
  O  O75  1  0.44138986  0.12060391  0.52730111  1
  O  O76  1  0.67920583  0.55734298  0.52671347  1
  O  O77  1  0.87790080  0.32524040  0.52591507  1
  O  O78  1  0.55922815  0.68220800  0.97448100  1
  O  O79  1  0.12781396  0.43896453  0.98110755  1
  O  O80  1  0.32691685  0.88405368  0.98326285  1
  O  O81  1  0.55287677  0.87311158  0.47740742  1
  O  O82  1  0.30568220  0.44198225  0.47836596  1
  O  O83  1  0.13166605  0.68022930  0.46953363  1
  O  O84  1  0.13474637  0.65660369  0.36347692  1
  O  O85  1  0.51423693  0.84929296  0.36234283  1
  O  O86  1  0.32760357  0.49285261  0.36349520  1
  O  O87  1  0.16265462  0.49374364  0.86715945  1
  O  O88  1  0.33281929  0.83866276  0.86784609  1
  O  O89  1  0.52522184  0.65806118  0.86850873  1
  O  O90  1  0.02114329  0.80933619  0.41096043  1
  O  O91  1  0.81742878  0.99025434  0.41315154  1
  O  O92  1  0.17512044  0.18525409  0.41143236  1
  O  O93  1  0.00478699  0.18392600  0.91299477  1
  O  O94  1  0.16851648  0.97687744  0.91397647  1
  O  O95  1  0.79434717  0.81208609  0.91351239  1
  O  O96  1  0.98502739  0.18363382  0.58125459  1
  O  O97  1  0.19436106  0.01767136  0.58291939  1
  O  O98  1  0.82073109  0.80542331  0.58171522  1
  O  O99  1  0.98295940  0.79977107  0.08551475  1
  O  O100  1  0.82446142  0.01876497  0.08580450  1
  O  O101  1  0.19474275  0.19045065  0.08749461  1
  O  O102  1  0.64251724  0.13742197  0.74601699  1
  O  O103  1  0.49517950  0.35724598  0.74451854  1
  O  O104  1  0.85988692  0.50191803  0.74472389  1
  O  O105  1  0.65637796  0.50503404  0.24717450  1
  O  O106  1  0.86828518  0.33852356  0.24362869  1
  O  O107  1  0.49748649  0.13460538  0.24633987  1
  O  O108  1  0.63943759  0.51641592  0.91816329  1
  O  O109  1  0.86855596  0.37576521  0.91181462  1
  O  O110  1  0.49926313  0.14124852  0.90959504  1
  O  O111  1  0.64293333  0.14552731  0.40958059  1
  O  O112  1  0.50365654  0.37533916  0.40967383  1
  O  O113  1  0.88140941  0.51361509  0.41519098  1
  O  O114  1  0.35214098  0.48838374  0.08432278  1
  O  O115  1  0.13341671  0.65271814  0.08418571  1
  O  O116  1  0.52781192  0.86097687  0.08388282  1
  O  O117  1  0.33340554  0.86032570  0.58074588  1
  O  O118  1  0.52343584  0.65592733  0.58214532  1
  O  O119  1  0.13108122  0.48276350  0.58108100  1
  O  O120  1  0.31129556  0.81250424  0.26326903  1
  O  O121  1  0.49822803  0.66848767  0.26162847  1
  O  O122  1  0.15954254  0.48112445  0.25528942  1
  O  O123  1  0.32573063  0.50168903  0.76506262  1
  O  O124  1  0.17199694  0.67908090  0.76219069  1
  O  O125  1  0.50102783  0.82141910  0.76584709  1
