# generated using pymatgen
data_Ga2TeSe2
_symmetry_space_group_name_H-M   'P 1'
_cell_length_a   7.34101700
_cell_length_b   7.34101756
_cell_length_c   7.48985871
_cell_angle_alpha   119.34476037
_cell_angle_beta   119.34476666
_cell_angle_gamma   90.00000693
_symmetry_Int_Tables_number   1
_chemical_formula_structural   Ga2TeSe2
_chemical_formula_sum   'Ga4 Te2 Se4'
_cell_volume   290.97262097
_cell_formula_units_Z   2
loop_
 _symmetry_equiv_pos_site_id
 _symmetry_equiv_pos_as_xyz
  1  'x, y, z'
loop_
 _atom_site_type_symbol
 _atom_site_label
 _atom_site_symmetry_multiplicity
 _atom_site_fract_x
 _atom_site_fract_y
 _atom_site_fract_z
 _atom_site_occupancy
  Ga  Ga0  1  0.42610494  0.65120117  0.85220989  1
  Ga  Ga1  1  0.45100871  0.17610494  0.35220989  1
  Ga  Ga2  1  0.90120117  0.17610494  0.35220989  1
  Ga  Ga3  1  0.42610494  0.20100871  0.85220989  1
  Te  Te4  1  0.02871218  0.02871218  0.05742436  1
  Te  Te5  1  0.27871218  0.77871218  0.55742436  1
  Se  Se6  1  0.65003847  0.90195904  0.30007893  1
  Se  Se7  1  0.64811989  0.40003847  0.80007893  1
  Se  Se8  1  0.15195904  0.40003847  0.80007893  1
  Se  Se9  1  0.65003847  0.39811989  0.30007893  1
