# generated using pymatgen
data_Zr2P2O9
_symmetry_space_group_name_H-M   'P 1'
_cell_length_a   5.47496606
_cell_length_b   5.47496606
_cell_length_c   11.91201341
_cell_angle_alpha   90.00000000
_cell_angle_beta   90.00000000
_cell_angle_gamma   105.15712265
_symmetry_Int_Tables_number   1
_chemical_formula_structural   Zr2P2O9
_chemical_formula_sum   'Zr4 P4 O18'
_cell_volume   344.64417577
_cell_formula_units_Z   2
loop_
 _symmetry_equiv_pos_site_id
 _symmetry_equiv_pos_as_xyz
  1  'x, y, z'
loop_
 _atom_site_type_symbol
 _atom_site_label
 _atom_site_symmetry_multiplicity
 _atom_site_fract_x
 _atom_site_fract_y
 _atom_site_fract_z
 _atom_site_occupancy
  Zr  Zr0  1  0.70601463  0.29398537  0.93713693  1
  Zr  Zr1  1  0.79398537  0.20601463  0.43713693  1
  Zr  Zr2  1  0.29398537  0.70601463  0.06286307  1
  Zr  Zr3  1  0.20601463  0.79398537  0.56286307  1
  P  P4  1  0.60676137  0.39323863  0.64677451  1
  P  P5  1  0.89323863  0.10676137  0.14677451  1
  P  P6  1  0.39323863  0.60676137  0.35322549  1
  P  P7  1  0.10676137  0.89323863  0.85322549  1
  O  O8  1  0.43700663  0.56299337  0.62315257  1
  O  O9  1  0.06299337  0.93700663  0.12315257  1
  O  O10  1  0.56299337  0.43700663  0.37684743  1
  O  O11  1  0.93700663  0.06299337  0.87684743  1
  O  O12  1  0.00000000  0.00000000  0.50000000  1
  O  O13  1  0.50000000  0.50000000  -0.00000000  1
  O  O14  1  0.13872015  0.86127985  0.72919168  1
  O  O15  1  0.36127985  0.63872015  0.22919168  1
  O  O16  1  0.36532078  0.98538963  0.91486549  1
  O  O17  1  0.13467922  0.51461037  0.41486549  1
  O  O18  1  0.98538963  0.36532078  0.08513451  1
  O  O19  1  0.51461037  0.13467922  0.58513451  1
  O  O20  1  0.63467922  0.01461037  0.08513451  1
  O  O21  1  0.86532078  0.48538963  0.58513451  1
  O  O22  1  0.01461037  0.63467922  0.91486549  1
  O  O23  1  0.48538963  0.86532078  0.41486549  1
  O  O24  1  0.63872015  0.36127985  0.77080832  1
  O  O25  1  0.86127985  0.13872015  0.27080832  1
