# generated using pymatgen
data_RbMgIn(MoO4)2
_symmetry_space_group_name_H-M   'P 1'
_cell_length_a   6.06875000
_cell_length_b   6.06875029
_cell_length_c   7.96046300
_cell_angle_alpha   90.00000000
_cell_angle_beta   90.00000000
_cell_angle_gamma   119.99999844
_symmetry_Int_Tables_number   1
_chemical_formula_structural   RbMgIn(MoO4)2
_chemical_formula_sum   'Rb1 Mg1 In1 Mo2 O8'
_cell_volume   253.90279497
_cell_formula_units_Z   1
loop_
 _symmetry_equiv_pos_site_id
 _symmetry_equiv_pos_as_xyz
  1  'x, y, z'
loop_
 _atom_site_type_symbol
 _atom_site_label
 _atom_site_symmetry_multiplicity
 _atom_site_fract_x
 _atom_site_fract_y
 _atom_site_fract_z
 _atom_site_occupancy
  Rb  Rb0  1  0.00000000  0.00000000  0.50667600  1
  Mg  Mg1  1  0.66666700  0.33333300  0.22566800  1
  In  In2  1  0.00000000  0.00000000  0.98753600  1
  Mo  Mo3  1  0.66666700  0.33333300  0.69996900  1
  Mo  Mo4  1  0.33333300  0.66666700  0.29261600  1
  O  O5  1  0.35291200  0.17645600  0.78400200  1
  O  O6  1  0.82354400  0.17645600  0.78400200  1
  O  O7  1  0.82354400  0.64708800  0.78400200  1
  O  O8  1  0.16995700  0.83004300  0.21632000  1
  O  O9  1  0.33333300  0.66666700  0.51328500  1
  O  O10  1  0.66666700  0.33333300  0.46495200  1
  O  O11  1  0.16995700  0.33991300  0.21632000  1
  O  O12  1  0.66008700  0.83004300  0.21632000  1
