# generated using pymatgen
data_Na12Nb2Zn4Si3(PO6)6
_symmetry_space_group_name_H-M   'P 1'
_cell_length_a   9.15011478
_cell_length_b   9.15011446
_cell_length_c   21.93372983
_cell_angle_alpha   90.00000000
_cell_angle_beta   90.00000000
_cell_angle_gamma   120.00000115
_symmetry_Int_Tables_number   1
_chemical_formula_structural   Na12Nb2Zn4Si3(PO6)6
_chemical_formula_sum   'Na24 Nb4 Zn8 Si6 P12 O72'
_cell_volume   1590.36271407
_cell_formula_units_Z   2
loop_
 _symmetry_equiv_pos_site_id
 _symmetry_equiv_pos_as_xyz
  1  'x, y, z'
loop_
 _atom_site_type_symbol
 _atom_site_label
 _atom_site_symmetry_multiplicity
 _atom_site_fract_x
 _atom_site_fract_y
 _atom_site_fract_z
 _atom_site_occupancy
  Na  Na0  1  0.64684924  0.01416494  0.24442156  1
  Na  Na1  1  0.36731571  0.35315076  0.24442156  1
  Na  Na2  1  0.98583506  0.63268429  0.24442156  1
  Na  Na3  1  0.64684924  0.63268429  0.74442156  1
  Na  Na4  1  0.98583506  0.35315076  0.74442156  1
  Na  Na5  1  0.36731571  0.01416494  0.74442156  1
  Na  Na6  1  0.29167131  0.33784083  0.58173925  1
  Na  Na7  1  0.04617051  0.70832869  0.58173925  1
  Na  Na8  1  0.66215917  0.95382949  0.58173925  1
  Na  Na9  1  0.29167131  0.95382949  0.08173925  1
  Na  Na10  1  0.66215917  0.70832869  0.08173925  1
  Na  Na11  1  0.04617051  0.33784083  0.08173925  1
  Na  Na12  1  0.97858626  0.69250223  0.91439322  1
  Na  Na13  1  0.71391497  0.02141374  0.91439322  1
  Na  Na14  1  0.30749777  0.28608503  0.91439322  1
  Na  Na15  1  0.97858626  0.28608503  0.41439322  1
  Na  Na16  1  0.30749777  0.02141374  0.41439322  1
  Na  Na17  1  0.71391497  0.69250223  0.41439322  1
  Na  Na18  1  -0.00000000  0.00000000  0.49592226  1
  Na  Na19  1  -0.00000000  0.00000000  0.99592226  1
  Na  Na20  1  0.66666700  0.33333300  0.82652968  1
  Na  Na21  1  0.66666700  0.33333300  0.32652968  1
  Na  Na22  1  0.33333300  0.66666700  0.15816469  1
  Na  Na23  1  0.33333300  0.66666700  0.65816469  1
  Nb  Nb24  1  0.66666700  0.33333300  0.97890869  1
  Nb  Nb25  1  0.66666700  0.33333300  0.47890869  1
  Nb  Nb26  1  0.33333300  0.66666700  0.31762693  1
  Nb  Nb27  1  0.33333300  0.66666700  0.81762693  1
  Zn  Zn28  1  -0.00000000  0.00000000  0.34967145  1
  Zn  Zn29  1  -0.00000000  0.00000000  0.84967145  1
  Zn  Zn30  1  -0.00000000  0.00000000  0.65421746  1
  Zn  Zn31  1  -0.00000000  0.00000000  0.15421746  1
  Zn  Zn32  1  0.66666700  0.33333300  0.67836350  1
  Zn  Zn33  1  0.66666700  0.33333300  0.17836350  1
  Zn  Zn34  1  0.33333300  0.66666700  0.00953047  1
  Zn  Zn35  1  0.33333300  0.66666700  0.50953047  1
  Si  Si36  1  0.63009179  0.66824630  0.92083982  1
  Si  Si37  1  0.03815351  0.36990821  0.92083982  1
  Si  Si38  1  0.33175370  0.96184649  0.92083982  1
  Si  Si39  1  0.63009179  0.96184649  0.42083982  1
  Si  Si40  1  0.33175370  0.36990821  0.42083982  1
  Si  Si41  1  0.03815351  0.66824630  0.42083982  1
  P  P42  1  0.29703454  0.99725170  0.24997051  1
  P  P43  1  0.70021716  0.70296546  0.24997051  1
  P  P44  1  0.00274830  0.29978284  0.24997051  1
  P  P45  1  0.29703454  0.29978284  0.74997051  1
  P  P46  1  0.00274830  0.70296546  0.74997051  1
  P  P47  1  0.70021716  0.99725170  0.74997051  1
  P  P48  1  0.96110172  0.33325811  0.58584286  1
  P  P49  1  0.37215739  0.03889828  0.58584286  1
  P  P50  1  0.66674189  0.62784261  0.58584286  1
  P  P51  1  0.96110172  0.62784261  0.08584286  1
  P  P52  1  0.66674189  0.03889828  0.08584286  1
  P  P53  1  0.37215739  0.33325811  0.08584286  1
  O  O54  1  0.21657999  0.02360862  0.30701310  1
  O  O55  1  0.80702863  0.78342001  0.30701310  1
  O  O56  1  0.97639138  0.19297137  0.30701310  1
  O  O57  1  0.21657999  0.19297137  0.80701310  1
  O  O58  1  0.97639138  0.78342001  0.80701310  1
  O  O59  1  0.80702863  0.02360862  0.80701310  1
  O  O60  1  0.77372724  0.96078924  0.69208157  1
  O  O61  1  0.18706200  0.22627276  0.69208157  1
  O  O62  1  0.03921076  0.81293800  0.69208157  1
  O  O63  1  0.77372724  0.81293800  0.19208157  1
  O  O64  1  0.03921076  0.22627276  0.19208157  1
  O  O65  1  0.18706200  0.96078924  0.19208157  1
  O  O66  1  0.87782924  0.35541355  0.64356369  1
  O  O67  1  0.47758531  0.12217076  0.64356369  1
  O  O68  1  0.64458645  0.52241469  0.64356369  1
  O  O69  1  0.87782924  0.52241469  0.14356369  1
  O  O70  1  0.64458645  0.12217076  0.14356369  1
  O  O71  1  0.47758531  0.35541355  0.14356369  1
  O  O72  1  0.47626346  0.31921875  0.02901091  1
  O  O73  1  0.84295628  0.52373654  0.02901091  1
  O  O74  1  0.68078125  0.15704372  0.02901091  1
  O  O75  1  0.47626346  0.15704372  0.52901091  1
  O  O76  1  0.68078125  0.52373654  0.52901091  1
  O  O77  1  0.84295628  0.31921875  0.52901091  1
  O  O78  1  0.55303163  0.70355282  0.98064175  1
  O  O79  1  0.15052019  0.44696837  0.98064175  1
  O  O80  1  0.29644718  0.84947981  0.98064175  1
  O  O81  1  0.55303163  0.84947981  0.48064175  1
  O  O82  1  0.29644718  0.44696837  0.48064175  1
  O  O83  1  0.15052019  0.70355282  0.48064175  1
  O  O84  1  0.13472476  0.63214330  0.36113669  1
  O  O85  1  0.49741754  0.86527524  0.36113669  1
  O  O86  1  0.36785670  0.50258246  0.36113669  1
  O  O87  1  0.13472476  0.50258246  0.86113669  1
  O  O88  1  0.36785670  0.86527524  0.86113669  1
  O  O89  1  0.49741754  0.63214330  0.86113669  1
  O  O90  1  0.00602533  0.82316926  0.41031820  1
  O  O91  1  0.81714393  0.99397467  0.41031820  1
  O  O92  1  0.17683074  0.18285607  0.41031820  1
  O  O93  1  0.00602533  0.18285607  0.91031820  1
  O  O94  1  0.17683074  0.99397467  0.91031820  1
  O  O95  1  0.81714393  0.82316926  0.91031820  1
  O  O96  1  0.96532379  0.16671933  0.58300306  1
  O  O97  1  0.20139553  0.03467621  0.58300306  1
  O  O98  1  0.83328067  0.79860447  0.58300306  1
  O  O99  1  0.96532379  0.79860447  0.08300306  1
  O  O100  1  0.83328067  0.03467621  0.08300306  1
  O  O101  1  0.20139553  0.16671933  0.08300306  1
  O  O102  1  0.67215019  0.15094606  0.74618474  1
  O  O103  1  0.47879687  0.32784981  0.74618474  1
  O  O104  1  0.84905394  0.52120313  0.74618474  1
  O  O105  1  0.67215019  0.52120313  0.24618474  1
  O  O106  1  0.84905394  0.32784981  0.24618474  1
  O  O107  1  0.47879687  0.15094606  0.24618474  1
  O  O108  1  0.63316064  0.48657920  0.92256785  1
  O  O109  1  0.85341957  0.36683936  0.92256785  1
  O  O110  1  0.51342080  0.14658043  0.92256785  1
  O  O111  1  0.63316064  0.14658043  0.42256785  1
  O  O112  1  0.51342080  0.36683936  0.42256785  1
  O  O113  1  0.85341957  0.48657920  0.42256785  1
  O  O114  1  0.35441976  0.49091760  0.08194022  1
  O  O115  1  0.13649684  0.64558024  0.08194022  1
  O  O116  1  0.50908240  0.86350316  0.08194022  1
  O  O117  1  0.35441976  0.86350316  0.58194022  1
  O  O118  1  0.50908240  0.64558024  0.58194022  1
  O  O119  1  0.13649684  0.49091760  0.58194022  1
  O  O120  1  0.31352786  0.83101121  0.25568592  1
  O  O121  1  0.51748235  0.68647214  0.25568592  1
  O  O122  1  0.16898879  0.48251765  0.25568592  1
  O  O123  1  0.31352786  0.48251765  0.75568592  1
  O  O124  1  0.16898879  0.68647214  0.75568592  1
  O  O125  1  0.51748235  0.83101121  0.75568592  1
