# generated using pymatgen
data_Na6HfMg3Si2(SO6)4
_symmetry_space_group_name_H-M   'P 1'
_cell_length_a   9.01664653
_cell_length_b   9.02147719
_cell_length_c   22.42224049
_cell_angle_alpha   89.68177118
_cell_angle_beta   90.22917308
_cell_angle_gamma   119.99681168
_symmetry_Int_Tables_number   1
_chemical_formula_structural   Na6HfMg3Si2(SO6)4
_chemical_formula_sum   'Na18 Hf3 Mg9 Si6 S12 O72'
_cell_volume   1579.57102534
_cell_formula_units_Z   3
loop_
 _symmetry_equiv_pos_site_id
 _symmetry_equiv_pos_as_xyz
  1  'x, y, z'
loop_
 _atom_site_type_symbol
 _atom_site_label
 _atom_site_symmetry_multiplicity
 _atom_site_fract_x
 _atom_site_fract_y
 _atom_site_fract_z
 _atom_site_occupancy
  Na  Na0  1  0.63115755  0.99467447  0.25816733  1
  Na  Na1  1  0.36880005  0.36468439  0.24317223  1
  Na  Na2  1  0.64358075  0.64933594  0.74004536  1
  Na  Na3  1  0.31467384  0.34488177  0.58892702  1
  Na  Na4  1  0.02147958  0.69959222  0.58413410  1
  Na  Na5  1  0.66778709  0.94895078  0.58573882  1
  Na  Na6  1  0.29791553  0.97542548  0.07737175  1
  Na  Na7  1  0.05044694  0.33724372  0.07679561  1
  Na  Na8  1  0.98682620  0.67245655  0.91431650  1
  Na  Na9  1  0.70811900  0.03716544  0.90402355  1
  Na  Na10  1  0.30955181  0.28615983  0.91821319  1
  Na  Na11  1  0.69576390  0.68440584  0.42058106  1
  Na  Na12  1  0.98230532  0.99534283  0.49652153  1
  Na  Na13  1  0.01428373  0.01324098  0.99700112  1
  Na  Na14  1  0.67187585  0.30612119  0.82492835  1
  Na  Na15  1  0.67403908  0.32102004  0.33370525  1
  Na  Na16  1  0.33695153  0.65627464  0.16258047  1
  Na  Na17  1  0.35098499  0.67620639  0.66747629  1
  Hf  Hf18  1  0.65667923  0.32532127  0.98177418  1
  Hf  Hf19  1  0.66760848  0.32960398  0.47972384  1
  Hf  Hf20  1  0.32846374  0.67741113  0.81429494  1
  Mg  Mg21  1  0.99642679  0.00368046  0.35226318  1
  Mg  Mg22  1  0.00170398  0.01484190  0.84949264  1
  Mg  Mg23  1  0.98128367  0.98804666  0.65281774  1
  Mg  Mg24  1  0.00513767  0.00167806  0.14839765  1
  Mg  Mg25  1  0.66311834  0.32627283  0.68700708  1
  Mg  Mg26  1  0.66612693  0.34411425  0.18205119  1
  Mg  Mg27  1  0.32919476  0.65660563  0.01677671  1
  Mg  Mg28  1  0.35183696  0.67253646  0.51445704  1
  Mg  Mg29  1  0.33330959  0.67945798  0.32053950  1
  Si  Si30  1  0.70562093  0.00595980  0.74965442  1
  Si  Si31  1  0.66646106  0.62811755  0.58560594  1
  Si  Si32  1  0.36719790  0.33889090  0.08803375  1
  Si  Si33  1  0.03909378  0.36987031  0.91949316  1
  Si  Si34  1  0.32646211  0.95694309  0.92099021  1
  Si  Si35  1  0.63360513  0.96308195  0.41460191  1
  S  S36  1  0.29019558  0.99572191  0.24996575  1
  S  S37  1  0.71019553  0.70603355  0.25035978  1
  S  S38  1  0.00034957  0.29508929  0.24932179  1
  S  S39  1  0.29437718  0.29232726  0.74938062  1
  S  S40  1  0.99852679  0.70781763  0.74957739  1
  S  S41  1  0.96321803  0.33716073  0.58407568  1
  S  S42  1  0.37178121  0.03972440  0.58444851  1
  S  S43  1  0.95807348  0.62803725  0.08558756  1
  S  S44  1  0.66688698  0.03756365  0.08686582  1
  S  S45  1  0.62615950  0.66774717  0.91735726  1
  S  S46  1  0.32811856  0.37021723  0.41568945  1
  S  S47  1  0.04416912  0.66848881  0.41720142  1
  O  O48  1  0.20622240  0.02358942  0.30185581  1
  O  O49  1  0.80898164  0.78563808  0.30530930  1
  O  O50  1  0.97244151  0.18313781  0.30158837  1
  O  O51  1  0.21427169  0.19061858  0.80357564  1
  O  O52  1  0.98059025  0.79040413  0.80357533  1
  O  O53  1  0.80737701  0.01403784  0.81064099  1
  O  O54  1  0.77922759  0.96139810  0.68977053  1
  O  O55  1  0.19318253  0.21278959  0.69451183  1
  O  O56  1  0.02864732  0.81274613  0.69487415  1
  O  O57  1  0.79342900  0.81752128  0.19795119  1
  O  O58  1  0.02703511  0.21738899  0.19461642  1
  O  O59  1  0.19252035  0.97811645  0.19456307  1
  O  O60  1  0.88152872  0.36330978  0.63612821  1
  O  O61  1  0.48431458  0.11709592  0.63590773  1
  O  O62  1  0.63782915  0.50425560  0.64221936  1
  O  O63  1  0.87439801  0.51237693  0.13628309  1
  O  O64  1  0.64404634  0.12303833  0.13936442  1
  O  O65  1  0.47794780  0.35395113  0.14677463  1
  O  O66  1  0.46482854  0.30874676  0.02842983  1
  O  O67  1  0.85730233  0.54733929  0.02932489  1
  O  O68  1  0.69779693  0.15133070  0.03198703  1
  O  O69  1  0.45660264  0.14886103  0.52973580  1
  O  O70  1  0.69133892  0.53118494  0.52514175  1
  O  O71  1  0.84823457  0.30245571  0.53005507  1
  O  O72  1  0.54575052  0.69661521  0.96955577  1
  O  O73  1  0.15283630  0.45117293  0.97841184  1
  O  O74  1  0.30522547  0.84876808  0.98087652  1
  O  O75  1  0.54749003  0.84920220  0.47440257  1
  O  O76  1  0.30417109  0.44725213  0.47027311  1
  O  O77  1  0.13831301  0.68365215  0.47291390  1
  O  O78  1  0.12009919  0.63645464  0.36474216  1
  O  O79  1  0.52260712  0.88447787  0.35376780  1
  O  O80  1  0.35952566  0.47969197  0.36211803  1
  O  O81  1  0.13223382  0.49756925  0.86182080  1
  O  O82  1  0.37202915  0.87131690  0.86369243  1
  O  O83  1  0.51706968  0.63125897  0.86278263  1
  O  O84  1  0.02133701  0.81937117  0.41041985  1
  O  O85  1  0.82258408  0.97775411  0.41060251  1
  O  O86  1  0.18506310  0.19621673  0.40888968  1
  O  O87  1  0.00936745  0.17799981  0.91291448  1
  O  O88  1  0.15905882  0.97584516  0.90977698  1
  O  O89  1  0.79930334  0.81250619  0.91026051  1
  O  O90  1  0.98837730  0.18710851  0.58811616  1
  O  O91  1  0.20422521  0.03324479  0.58929826  1
  O  O92  1  0.84346773  0.81700802  0.58523308  1
  O  O93  1  0.97235877  0.79784738  0.09099286  1
  O  O94  1  0.82284284  0.02388729  0.09101811  1
  O  O95  1  0.17775577  0.15913322  0.08749857  1
  O  O96  1  0.67945875  0.16987987  0.74369303  1
  O  O97  1  0.47071306  0.32106698  0.74564075  1
  O  O98  1  0.84291862  0.53866191  0.74439389  1
  O  O99  1  0.68953255  0.53140179  0.24575500  1
  O  O100  1  0.84199068  0.30904306  0.24319608  1
  O  O101  1  0.46857601  0.15121359  0.24658519  1
  O  O102  1  0.64110451  0.50887665  0.92412181  1
  O  O103  1  0.84932012  0.36137361  0.92399768  1
  O  O104  1  0.50230581  0.15212544  0.92285694  1
  O  O105  1  0.65376160  0.15825376  0.42233025  1
  O  O106  1  0.49412182  0.36306854  0.42206492  1
  O  O107  1  0.86241351  0.51298917  0.42173318  1
  O  O108  1  0.34454493  0.50599025  0.08173506  1
  O  O109  1  0.13223738  0.64989031  0.08098073  1
  O  O110  1  0.51059963  0.87205675  0.07888741  1
  O  O111  1  0.34257665  0.86380659  0.57651736  1
  O  O112  1  0.49132059  0.64282685  0.57991051  1
  O  O113  1  0.13101291  0.49490121  0.57425733  1
  O  O114  1  0.30993003  0.84150988  0.25471291  1
  O  O115  1  0.53199662  0.68328311  0.25383822  1
  O  O116  1  0.15743724  0.46604695  0.25660018  1
  O  O117  1  0.31218507  0.46827891  0.75444193  1
  O  O118  1  0.15351933  0.68557544  0.75383474  1
  O  O119  1  0.51197683  0.81767961  0.75517922  1
