# generated using pymatgen
data_Na14Ga4Si9Ge4(SO16)3
_symmetry_space_group_name_H-M   'P 1'
_cell_length_a   17.66587152
_cell_length_b   8.83307961
_cell_length_c   21.84239505
_cell_angle_alpha   90.09599887
_cell_angle_beta   89.30588148
_cell_angle_gamma   120.06386155
_symmetry_Int_Tables_number   1
_chemical_formula_structural   Na14Ga4Si9Ge4(SO16)3
_chemical_formula_sum   'Na42 Ga12 Si27 Ge12 S9 O144'
_cell_volume   2949.58422221
_cell_formula_units_Z   3
loop_
 _symmetry_equiv_pos_site_id
 _symmetry_equiv_pos_as_xyz
  1  'x, y, z'
loop_
 _atom_site_type_symbol
 _atom_site_label
 _atom_site_symmetry_multiplicity
 _atom_site_fract_x
 _atom_site_fract_y
 _atom_site_fract_z
 _atom_site_occupancy
  Na  Na0  1  0.81805434  0.00513480  0.25271866  1
  Na  Na1  1  0.17934386  0.36208064  0.25261633  1
  Na  Na2  1  0.68847338  0.37050923  0.25246450  1
  Na  Na3  1  0.99805783  0.62992590  0.24841802  1
  Na  Na4  1  0.50124110  0.63922506  0.25066355  1
  Na  Na5  1  0.31774299  0.62970862  0.75064589  1
  Na  Na6  1  0.99921543  0.36125889  0.74646243  1
  Na  Na7  1  0.49889019  0.36697146  0.74624992  1
  Na  Na8  1  0.18753085  0.00646416  0.74987762  1
  Na  Na9  1  0.68239639  0.00001412  0.74957270  1
  Na  Na10  1  0.14870862  0.32780420  0.58261232  1
  Na  Na11  1  0.65149085  0.33294144  0.58250031  1
  Na  Na12  1  0.33518095  0.97757336  0.58518625  1
  Na  Na13  1  0.83347087  0.96856871  0.58281498  1
  Na  Na14  1  0.14746978  0.96648888  0.08161825  1
  Na  Na15  1  0.65106790  0.97115603  0.08146814  1
  Na  Na16  1  0.33311413  0.69476914  0.08229328  1
  Na  Na17  1  0.83515985  0.69358832  0.08522648  1
  Na  Na18  1  0.48150067  0.67421232  0.91517633  1
  Na  Na19  1  0.98140755  0.67264642  0.91925761  1
  Na  Na20  1  0.34846715  0.02880748  0.91197126  1
  Na  Na21  1  0.84807314  0.02852022  0.91332667  1
  Na  Na22  1  0.16925825  0.29622806  0.91274942  1
  Na  Na23  1  0.66767903  0.29281011  0.91316835  1
  Na  Na24  1  0.48300866  0.29445446  0.42172525  1
  Na  Na25  1  0.97963476  0.28774372  0.41817170  1
  Na  Na26  1  0.16750256  0.04288237  0.41547447  1
  Na  Na27  1  0.67151212  0.04448972  0.41655104  1
  Na  Na28  1  0.34856079  0.66721672  0.41559758  1
  Na  Na29  1  0.84806204  0.66586455  0.41789623  1
  Na  Na30  1  0.99882893  0.99678669  0.50105047  1
  Na  Na31  1  0.50321614  0.00584037  0.50213016  1
  Na  Na32  1  0.00148781  0.99849365  0.00102847  1
  Na  Na33  1  0.50209366  0.00072501  0.99852385  1
  Na  Na34  1  0.33094699  0.33399280  0.82954156  1
  Na  Na35  1  0.82778194  0.33301237  0.83054754  1
  Na  Na36  1  0.32833533  0.32240978  0.33436030  1
  Na  Na37  1  0.83070393  0.32778537  0.33295467  1
  Na  Na38  1  0.16209971  0.66014845  0.16785305  1
  Na  Na39  1  0.66565938  0.66171818  0.16763326  1
  Na  Na40  1  0.16415538  0.66825632  0.66654325  1
  Na  Na41  1  0.66541856  0.66495873  0.66570307  1
  Ga  Ga42  1  0.99925299  0.01278991  0.34894802  1
  Ga  Ga43  1  0.50102517  0.00324219  0.35247409  1
  Ga  Ga44  1  0.99954728  0.99520267  0.84880206  1
  Ga  Ga45  1  0.50031695  0.98756923  0.84666679  1
  Ga  Ga46  1  0.33559682  0.32115161  0.68760429  1
  Ga  Ga47  1  0.83613688  0.35023096  0.18824106  1
  Ga  Ga48  1  0.32437179  0.34097846  0.98195516  1
  Ga  Ga49  1  0.82326375  0.34283903  0.98323740  1
  Ga  Ga50  1  0.32489384  0.30583341  0.48345129  1
  Ga  Ga51  1  0.82599737  0.32286100  0.48636527  1
  Ga  Ga52  1  0.68198765  0.68646981  0.31597108  1
  Ga  Ga53  1  0.18106977  0.67728385  0.81308745  1
  Si  Si54  1  0.15005640  0.00072289  0.25110450  1
  Si  Si55  1  0.64597904  0.99674218  0.25169725  1
  Si  Si56  1  0.35886254  0.72032556  0.24956416  1
  Si  Si57  1  0.85801422  0.71622170  0.25026985  1
  Si  Si58  1  -0.00004261  0.29207247  0.24951519  1
  Si  Si59  1  0.14312905  0.28889307  0.74960235  1
  Si  Si60  1  0.65003040  0.29877432  0.75197182  1
  Si  Si61  1  0.50003068  0.70774975  0.74957634  1
  Si  Si62  1  0.35839802  0.00068496  0.75013872  1
  Si  Si63  1  0.85888797  0.00518534  0.74930007  1
  Si  Si64  1  0.47955298  0.33783076  0.58260757  1
  Si  Si65  1  0.97827212  0.34327112  0.58276636  1
  Si  Si66  1  0.18345529  0.03350736  0.58488323  1
  Si  Si67  1  0.68108906  0.02965827  0.58321836  1
  Si  Si68  1  0.83951753  0.62302524  0.58371124  1
  Si  Si69  1  0.47801152  0.61375142  0.08291859  1
  Si  Si70  1  0.97971840  0.62137549  0.08250754  1
  Si  Si71  1  0.18121293  0.33215275  0.08345141  1
  Si  Si72  1  0.68191216  0.33284864  0.08537777  1
  Si  Si73  1  0.31242198  0.66968824  0.91821747  1
  Si  Si74  1  0.80955398  0.66897563  0.91534240  1
  Si  Si75  1  0.16736971  0.95585567  0.91652773  1
  Si  Si76  1  0.66798550  0.95429279  0.91716558  1
  Si  Si77  1  0.30928305  0.95017344  0.41555422  1
  Si  Si78  1  0.81313174  0.96075058  0.41872186  1
  Si  Si79  1  0.16799950  0.38150958  0.41697779  1
  Si  Si80  1  0.66689603  0.37855432  0.41585002  1
  Ge  Ge81  1  0.99760743  0.01053035  0.64253472  1
  Ge  Ge82  1  0.50908453  0.01714589  0.65253627  1
  Ge  Ge83  1  0.00850023  0.00140860  0.15322547  1
  Ge  Ge84  1  0.50520828  0.98421469  0.14840792  1
  Ge  Ge85  1  0.82582541  0.31836855  0.68047746  1
  Ge  Ge86  1  0.32822552  0.35014611  0.18496282  1
  Ge  Ge87  1  0.16181450  0.66071368  0.01812459  1
  Ge  Ge88  1  0.66396317  0.66188098  0.01865394  1
  Ge  Ge89  1  0.16325906  0.66573788  0.51921425  1
  Ge  Ge90  1  0.67360846  0.66004290  0.52538041  1
  Ge  Ge91  1  0.17713113  0.67498563  0.30882939  1
  Ge  Ge92  1  0.67887191  0.68195401  0.80709857  1
  S  S93  1  0.49625665  0.28526540  0.24829062  1
  S  S94  1  0.99744125  0.70717521  0.74930351  1
  S  S95  1  0.33547052  0.62479566  0.58259723  1
  S  S96  1  0.33654706  0.05022658  0.08384869  1
  S  S97  1  0.83558732  0.04605216  0.08253389  1
  S  S98  1  0.02152329  0.37851796  0.91680152  1
  S  S99  1  0.52209586  0.37885423  0.91728256  1
  S  S100  1  0.02350745  0.66679899  0.41583585  1
  S  S101  1  0.52208607  0.66532770  0.41709738  1
  O  O102  1  0.11000146  0.04852482  0.31022125  1
  O  O103  1  0.60276735  0.04179113  0.30984941  1
  O  O104  1  0.41902649  0.79373624  0.30933629  1
  O  O105  1  0.91933047  0.79688107  0.31008958  1
  O  O106  1  0.48154426  0.18277437  0.30550651  1
  O  O107  1  0.97872319  0.17584197  0.31114830  1
  O  O108  1  0.10379822  0.16631086  0.81124608  1
  O  O109  1  0.60821957  0.17292398  0.81200240  1
  O  O110  1  0.47776948  0.77867027  0.81229332  1
  O  O111  1  0.98314619  0.78046839  0.80756085  1
  O  O112  1  0.41750109  0.03977750  0.81134984  1
  O  O113  1  0.91685140  0.04581327  0.81108629  1
  O  O114  1  0.40230642  0.95904915  0.68922782  1
  O  O115  1  0.90174735  0.96731415  0.68914787  1
  O  O116  1  0.07925028  0.19811780  0.69022871  1
  O  O117  1  0.58672926  0.21843046  0.69148257  1
  O  O118  1  0.01577339  0.82285072  0.69663406  1
  O  O119  1  0.52293138  0.84602206  0.69246867  1
  O  O120  1  0.40147843  0.83988621  0.18703871  1
  O  O121  1  0.90179053  0.84431990  0.18840308  1
  O  O122  1  0.02384655  0.20196670  0.19150565  1
  O  O123  1  0.51403974  0.20391920  0.19441464  1
  O  O124  1  0.08839658  0.95752037  0.18979044  1
  O  O125  1  0.58307373  0.95464110  0.19029573  1
  O  O126  1  0.43827103  0.37101269  0.64358715  1
  O  O127  1  0.93425939  0.37119819  0.64553349  1
  O  O128  1  0.24761219  0.11587692  0.64299085  1
  O  O129  1  0.74660703  0.11376165  0.64294143  1
  O  O130  1  0.31753270  0.51589316  0.63721712  1
  O  O131  1  0.81369365  0.48828043  0.64228942  1
  O  O132  1  0.43285599  0.49413966  0.14524737  1
  O  O133  1  0.93914744  0.50561649  0.14322500  1
  O  O134  1  0.31856451  0.12958703  0.13814721  1
  O  O135  1  0.81751760  0.11934519  0.13715578  1
  O  O136  1  0.24821345  0.37960587  0.14234231  1
  O  O137  1  0.74569044  0.37542793  0.14311182  1
  O  O138  1  0.22146215  0.28185995  0.02500517  1
  O  O139  1  0.71758011  0.27873557  0.02437170  1
  O  O140  1  0.41693128  0.53424848  0.02368798  1
  O  O141  1  0.91925072  0.54031835  0.02132785  1
  O  O142  1  0.34967344  0.15125340  0.02715047  1
  O  O143  1  0.84756991  0.14933825  0.02622904  1
  O  O144  1  0.21978063  0.15750075  0.52353456  1
  O  O145  1  0.71963585  0.15705994  0.52391532  1
  O  O146  1  0.34750759  0.54566001  0.52612517  1
  O  O147  1  0.85412778  0.54487138  0.52051081  1
  O  O148  1  0.41822272  0.29441751  0.52158009  1
  O  O149  1  0.91850534  0.29767231  0.52280241  1
  O  O150  1  0.26409726  0.70352949  0.97899507  1
  O  O151  1  0.76615622  0.70577510  0.97773118  1
  O  O152  1  0.07857680  0.45661357  0.97181193  1
  O  O153  1  0.57886496  0.45792305  0.97251643  1
  O  O154  1  0.14767175  0.82772924  0.97766963  1
  O  O155  1  0.64740001  0.82551094  0.97844004  1
  O  O156  1  0.26540530  0.82498372  0.47705450  1
  O  O157  1  0.76458485  0.82623501  0.47734260  1
  O  O158  1  0.14797307  0.47088795  0.47746257  1
  O  O159  1  0.64607344  0.46640024  0.47617616  1
  O  O160  1  0.07966104  0.70089374  0.47100194  1
  O  O161  1  0.57800598  0.69767345  0.47040833  1
  O  O162  1  0.06307040  0.63495065  0.36023290  1
  O  O163  1  0.55844250  0.63208565  0.36010543  1
  O  O164  1  0.24303892  0.86229443  0.35774800  1
  O  O165  1  0.75191686  0.88844794  0.35796348  1
  O  O166  1  0.18585738  0.50716894  0.35591430  1
  O  O167  1  0.68032859  0.49508179  0.35403621  1
  O  O168  1  0.05944735  0.48712866  0.86181916  1
  O  O169  1  0.55972605  0.48832271  0.86223399  1
  O  O170  1  0.18255605  0.86600674  0.85597303  1
  O  O171  1  0.68527631  0.86210220  0.85717143  1
  O  O172  1  0.24911633  0.61759793  0.85935448  1
  O  O173  1  0.74205871  0.62366052  0.85876882  1
  O  O174  1  0.01580449  0.82506031  0.41238201  1
  O  O175  1  0.51275056  0.82415967  0.41290084  1
  O  O176  1  0.40603235  0.96817529  0.41005976  1
  O  O177  1  0.90768830  0.96784157  0.41442792  1
  O  O178  1  0.08214470  0.18614488  0.41333500  1
  O  O179  1  0.57820094  0.18247955  0.41257747  1
  O  O180  1  0.01363611  0.20328644  0.91413258  1
  O  O181  1  0.51417247  0.20471888  0.91411065  1
  O  O182  1  0.08002705  0.97677261  0.91360314  1
  O  O183  1  0.58229069  0.97814195  0.91424918  1
  O  O184  1  0.40748690  0.84840130  0.91569106  1
  O  O185  1  0.90698021  0.84430091  0.91047805  1
  O  O186  1  0.48782226  0.15622023  0.58988657  1
  O  O187  1  0.98942748  0.16696504  0.58876207  1
  O  O188  1  0.08778789  0.01990773  0.59342992  1
  O  O189  1  0.58654058  0.02293524  0.59224977  1
  O  O190  1  0.41160237  0.80265554  0.58635454  1
  O  O191  1  0.92133554  0.82321303  0.59177843  1
  O  O192  1  0.48612983  0.81175153  0.08943297  1
  O  O193  1  0.98891767  0.81982735  0.08936606  1
  O  O194  1  0.41301998  0.02541307  0.08899394  1
  O  O195  1  0.91161916  0.02045853  0.08616599  1
  O  O196  1  0.08685690  0.15169798  0.09192185  1
  O  O197  1  0.58325736  0.15252184  0.09387397  1
  O  O198  1  0.34588944  0.17043351  0.74741235  1
  O  O199  1  0.84744561  0.18116641  0.74265845  1
  O  O200  1  0.24086567  0.31546978  0.74175496  1
  O  O201  1  0.74496274  0.30759880  0.74241859  1
  O  O202  1  0.41323702  0.51720619  0.74283099  1
  O  O203  1  0.92005177  0.53106960  0.74552547  1
  O  O204  1  0.34841362  0.52028357  0.24317900  1
  O  O205  1  0.84583869  0.52157479  0.24658095  1
  O  O206  1  0.41796622  0.30545270  0.24316055  1
  O  O207  1  0.91344581  0.30899426  0.24221479  1
  O  O208  1  0.24750280  0.18158787  0.23882746  1
  O  O209  1  0.74178956  0.16714932  0.24155104  1
  O  O210  1  0.32405232  0.49683292  0.92195509  1
  O  O211  1  0.82134131  0.49609829  0.91959491  1
  O  O212  1  0.43400905  0.35821775  0.92483406  1
  O  O213  1  0.93350851  0.35731548  0.92428011  1
  O  O214  1  0.25774900  0.14650118  0.92372157  1
  O  O215  1  0.75851182  0.14557528  0.92331556  1
  O  O216  1  0.32134561  0.14661098  0.41903796  1
  O  O217  1  0.82511840  0.15663159  0.42345315  1
  O  O218  1  0.25821617  0.37101224  0.42244357  1
  O  O219  1  0.75518134  0.36365524  0.42030539  1
  O  O220  1  0.43274309  0.50973083  0.42284723  1
  O  O221  1  0.93653858  0.50967898  0.42098061  1
  O  O222  1  0.17995188  0.51638711  0.07513811  1
  O  O223  1  0.67830983  0.51538926  0.07425911  1
  O  O224  1  0.08151034  0.65381966  0.07562673  1
  O  O225  1  0.57916877  0.65059188  0.07783641  1
  O  O226  1  0.25550357  0.87094747  0.08093751  1
  O  O227  1  0.75329824  0.86463860  0.07872064  1
  O  O228  1  0.17998976  0.84320244  0.57407566  1
  O  O229  1  0.67807587  0.84250627  0.57531694  1
  O  O230  1  0.25343220  0.64162284  0.57867480  1
  O  O231  1  0.74943510  0.64129530  0.58011431  1
  O  O232  1  0.08025432  0.51091347  0.57739317  1
  O  O233  1  0.57929376  0.50708113  0.57559268  1
  O  O234  1  0.15311478  0.81896098  0.25729976  1
  O  O235  1  0.64913448  0.81424994  0.25588284  1
  O  O236  1  0.25922728  0.68629826  0.25227678  1
  O  O237  1  0.75975933  0.69420239  0.25076558  1
  O  O238  1  0.08885484  0.48870195  0.25720983  1
  O  O239  1  0.57489774  0.46186238  0.25263986  1
  O  O240  1  0.14796216  0.48050552  0.75556897  1
  O  O241  1  0.65191514  0.48637371  0.75864730  1
  O  O242  1  0.07708400  0.68874342  0.75504768  1
  O  O243  1  0.58882112  0.68950297  0.75802011  1
  O  O244  1  0.25997584  0.82545722  0.75067856  1
  O  O245  1  0.75977152  0.83460371  0.75288227  1
