# generated using pymatgen
data_Na4Nb3AlSi4(PO12)2
_symmetry_space_group_name_H-M   'P 1'
_cell_length_a   8.87873496
_cell_length_b   8.88936690
_cell_length_c   22.56027078
_cell_angle_alpha   89.97083011
_cell_angle_beta   89.85906765
_cell_angle_gamma   120.01997649
_symmetry_Int_Tables_number   1
_chemical_formula_structural   Na4Nb3AlSi4(PO12)2
_chemical_formula_sum   'Na12 Nb9 Al3 Si12 P6 O72'
_cell_volume   1541.72606753
_cell_formula_units_Z   3
loop_
 _symmetry_equiv_pos_site_id
 _symmetry_equiv_pos_as_xyz
  1  'x, y, z'
loop_
 _atom_site_type_symbol
 _atom_site_label
 _atom_site_symmetry_multiplicity
 _atom_site_fract_x
 _atom_site_fract_y
 _atom_site_fract_z
 _atom_site_occupancy
  Na  Na0  1  0.63556511  0.62834732  0.74680756  1
  Na  Na1  1  0.99567879  0.36524291  0.74764138  1
  Na  Na2  1  0.30590276  0.97234185  0.08405780  1
  Na  Na3  1  0.02947737  0.33713993  0.08414530  1
  Na  Na4  1  0.96815762  0.29839650  0.41359783  1
  Na  Na5  1  0.70384748  0.67384603  0.41479184  1
  Na  Na6  1  0.00553406  0.99811523  0.49906146  1
  Na  Na7  1  0.99321912  0.99312421  0.99720614  1
  Na  Na8  1  0.65821040  0.32416178  0.83272429  1
  Na  Na9  1  0.66000759  0.32659891  0.32622821  1
  Na  Na10  1  0.34031936  0.66598269  0.16629351  1
  Na  Na11  1  0.33422210  0.67154273  0.66585077  1
  Nb  Nb12  1  0.00413899  0.00884702  0.85507577  1
  Nb  Nb13  1  0.99356256  0.00177118  0.64414958  1
  Nb  Nb14  1  0.99504790  0.99590496  0.14648879  1
  Nb  Nb15  1  0.66730444  0.33440168  0.97848531  1
  Nb  Nb16  1  0.66904689  0.33186973  0.48123047  1
  Nb  Nb17  1  0.33859796  0.66758091  0.02100810  1
  Nb  Nb18  1  0.33471895  0.66947689  0.52292916  1
  Nb  Nb19  1  0.33144672  0.67212425  0.30987714  1
  Nb  Nb20  1  0.33688092  0.67039410  0.81384249  1
  Al  Al21  1  0.00034071  0.99599098  0.35073434  1
  Al  Al22  1  0.66038411  0.32777550  0.68564177  1
  Al  Al23  1  0.66620492  0.33311460  0.18389036  1
  Si  Si24  1  0.30004392  0.28768374  0.74786110  1
  Si  Si25  1  0.70578164  0.00840692  0.74878438  1
  Si  Si26  1  0.95061344  0.33568679  0.58780198  1
  Si  Si27  1  0.66676926  0.61541460  0.58708315  1
  Si  Si28  1  0.94521003  0.61374398  0.08705062  1
  Si  Si29  1  0.66475013  0.05082112  0.08721771  1
  Si  Si30  1  0.38977339  0.33874493  0.08783528  1
  Si  Si31  1  0.62613073  0.66622264  0.91601974  1
  Si  Si32  1  0.04266102  0.37861690  0.91683271  1
  Si  Si33  1  0.33320488  0.95797122  0.91749611  1
  Si  Si34  1  0.62754746  0.95774055  0.41474651  1
  Si  Si35  1  0.04780399  0.67980459  0.41534780  1
  P  P36  1  0.29171769  0.01153655  0.25189063  1
  P  P37  1  0.71447617  0.70417163  0.25259354  1
  P  P38  1  0.99101518  0.28354913  0.25231565  1
  P  P39  1  0.99822731  0.71050672  0.74891878  1
  P  P40  1  0.38305876  0.04993869  0.58638136  1
  P  P41  1  0.32802869  0.37294068  0.41492732  1
  O  O42  1  0.19422323  0.02639870  0.30561438  1
  O  O43  1  0.82405236  0.79730455  0.30769981  1
  O  O44  1  0.97452896  0.17284945  0.30756265  1
  O  O45  1  0.19973609  0.16755949  0.80623919  1
  O  O46  1  0.96781227  0.79598371  0.80395677  1
  O  O47  1  0.83387053  0.03405125  0.80533883  1
  O  O48  1  0.79945723  0.96362200  0.69278429  1
  O  O49  1  0.16291937  0.19434459  0.69280436  1
  O  O50  1  0.03031363  0.82727420  0.69410827  1
  O  O51  1  0.80148143  0.82676092  0.19716588  1
  O  O52  1  0.02573716  0.20128847  0.19569277  1
  O  O53  1  0.17710442  0.97344074  0.19473673  1
  O  O54  1  0.86065929  0.36258654  0.64459476  1
  O  O55  1  0.49652476  0.13285051  0.63955334  1
  O  O56  1  0.63691427  0.49817338  0.64430780  1
  O  O57  1  0.86233849  0.48908760  0.14288035  1
  O  O58  1  0.62846651  0.13663628  0.14329220  1
  O  O59  1  0.50477270  0.36446985  0.14442970  1
  O  O60  1  0.46359280  0.29326124  0.02749827  1
  O  O61  1  0.83240353  0.53363505  0.02626658  1
  O  O62  1  0.70649649  0.16966691  0.02708962  1
  O  O63  1  0.46632486  0.15978598  0.52861650  1
  O  O64  1  0.69199072  0.52903068  0.52481972  1
  O  O65  1  0.83562179  0.30314586  0.52564976  1
  O  O66  1  0.53116180  0.69733806  0.97343543  1
  O  O67  1  0.16219048  0.46613826  0.97580312  1
  O  O68  1  0.30278743  0.83798757  0.97651122  1
  O  O69  1  0.53435155  0.82938975  0.47204209  1
  O  O70  1  0.29683590  0.45863177  0.47056469  1
  O  O71  1  0.16757855  0.69704840  0.47304293  1
  O  O72  1  0.13558549  0.62978705  0.35964403  1
  O  O73  1  0.49726500  0.85828807  0.35867141  1
  O  O74  1  0.36749497  0.49701757  0.36125283  1
  O  O75  1  0.13310214  0.49505385  0.85715651  1
  O  O76  1  0.36197674  0.86183964  0.85966688  1
  O  O77  1  0.50448017  0.63694928  0.85721511  1
  O  O78  1  0.01759426  0.84223823  0.40601903  1
  O  O79  1  0.82022172  0.98124702  0.40589651  1
  O  O80  1  0.16461495  0.19524785  0.40676633  1
  O  O81  1  0.02637532  0.18829560  0.91042685  1
  O  O82  1  0.15920308  0.97142174  0.90925169  1
  O  O83  1  0.81406030  0.83834534  0.90851809  1
  O  O84  1  0.97573882  0.16383884  0.58976468  1
  O  O85  1  0.19860177  0.02591462  0.59003680  1
  O  O86  1  0.84067339  0.81003047  0.58975172  1
  O  O87  1  0.98127656  0.81561555  0.09284374  1
  O  O88  1  0.83999859  0.03010297  0.09302641  1
  O  O89  1  0.18822864  0.16450482  0.09367172  1
  O  O90  1  0.69722837  0.18274844  0.74061101  1
  O  O91  1  0.49342139  0.31842792  0.74142014  1
  O  O92  1  0.83708748  0.52924529  0.74331958  1
  O  O93  1  0.69435035  0.52574095  0.24375316  1
  O  O94  1  0.83324733  0.30576141  0.24435180  1
  O  O95  1  0.47358610  0.16655244  0.24436726  1
  O  O96  1  0.63926246  0.49305787  0.92237172  1
  O  O97  1  0.85268454  0.35846528  0.92206329  1
  O  O98  1  0.50548698  0.14584165  0.92281675  1
  O  O99  1  0.64568698  0.14936410  0.42221887  1
  O  O100  1  0.49572569  0.36165281  0.42288449  1
  O  O101  1  0.85444558  0.49976948  0.42315153  1
  O  O102  1  0.34950780  0.49909643  0.07856243  1
  O  O103  1  0.14390569  0.64341592  0.07799533  1
  O  O104  1  0.49404654  0.85700793  0.07816313  1
  O  O105  1  0.36284932  0.86607221  0.57662946  1
  O  O106  1  0.49708087  0.64176713  0.57539108  1
  O  O107  1  0.14540735  0.50456402  0.57568676  1
  O  O108  1  0.30501904  0.83869531  0.25774012  1
  O  O109  1  0.53040234  0.69073168  0.25753667  1
  O  O110  1  0.16274662  0.46738402  0.25787524  1
  O  O111  1  0.30697240  0.47742151  0.75503854  1
  O  O112  1  0.16096813  0.68781179  0.75492854  1
  O  O113  1  0.52020963  0.82573090  0.75457698  1
