# generated using pymatgen
data_Ca2Ta10Si9(SO8)9
_symmetry_space_group_name_H-M   'P 1'
_cell_length_a   8.91865706
_cell_length_b   8.95140888
_cell_length_c   22.99891401
_cell_angle_alpha   90.24752217
_cell_angle_beta   89.80097866
_cell_angle_gamma   119.82729625
_symmetry_Int_Tables_number   1
_chemical_formula_structural   Ca2Ta10Si9(SO8)9
_chemical_formula_sum   'Ca2 Ta10 Si9 S9 O72'
_cell_volume   1592.85934277
_cell_formula_units_Z   1
loop_
 _symmetry_equiv_pos_site_id
 _symmetry_equiv_pos_as_xyz
  1  'x, y, z'
loop_
 _atom_site_type_symbol
 _atom_site_label
 _atom_site_symmetry_multiplicity
 _atom_site_fract_x
 _atom_site_fract_y
 _atom_site_fract_z
 _atom_site_occupancy
  Ca  Ca0  1  0.67846499  0.34268349  0.69313340  1
  Ca  Ca1  1  0.66228483  0.33636340  0.19039353  1
  Ta  Ta2  1  0.00054085  0.00121292  0.36254699  1
  Ta  Ta3  1  0.00011865  0.99072968  0.86152911  1
  Ta  Ta4  1  0.00019994  0.99866191  0.64497584  1
  Ta  Ta5  1  0.00513445  0.00434749  0.14007822  1
  Ta  Ta6  1  0.65201613  0.33111649  0.97164665  1
  Ta  Ta7  1  0.67766080  0.32960959  0.47579708  1
  Ta  Ta8  1  0.33296050  0.65659662  0.01484607  1
  Ta  Ta9  1  0.32618522  0.66042037  0.51912811  1
  Ta  Ta10  1  0.33486258  0.66413563  0.31555140  1
  Ta  Ta11  1  0.32295927  0.66558073  0.81163040  1
  Si  Si12  1  0.00601597  0.71939183  0.75111942  1
  Si  Si13  1  0.95874140  0.33191176  0.58487939  1
  Si  Si14  1  0.38433888  0.34390773  0.08442110  1
  Si  Si15  1  0.61498877  0.66509692  0.91248217  1
  Si  Si16  1  0.04181358  0.37995147  0.91415088  1
  Si  Si17  1  0.33414513  0.94768220  0.91669424  1
  Si  Si18  1  0.61363280  0.95033477  0.41734221  1
  Si  Si19  1  0.34232616  0.38398532  0.41688765  1
  Si  Si20  1  0.04760379  0.66399515  0.41630054  1
  S  S21  1  0.27128430  0.98560285  0.25115860  1
  S  S22  1  0.71727281  0.72894458  0.25184671  1
  S  S23  1  0.01165151  0.28325396  0.25119851  1
  S  S24  1  0.27131753  0.28283233  0.75167929  1
  S  S25  1  0.71395579  0.98613108  0.75241196  1
  S  S26  1  0.37291154  0.04034946  0.58197313  1
  S  S27  1  0.66623321  0.62792352  0.58215252  1
  S  S28  1  0.96280947  0.62687210  0.08335230  1
  S  S29  1  0.66385494  0.03695659  0.08310139  1
  O  O30  1  0.17961681  0.00464882  0.30231097  1
  O  O31  1  0.82418936  0.82329166  0.30331409  1
  O  O32  1  0.99515455  0.17593780  0.30233898  1
  O  O33  1  0.18063666  0.18060525  0.80326274  1
  O  O34  1  0.00213720  0.83698399  0.80631376  1
  O  O35  1  0.82334738  0.01052886  0.80360411  1
  O  O36  1  0.80387347  0.96919184  0.69773885  1
  O  O37  1  0.16266450  0.19975554  0.69691266  1
  O  O38  1  0.03118478  0.84309022  0.69240364  1
  O  O39  1  0.79954568  0.83313151  0.19850501  1
  O  O40  1  0.03022900  0.19514735  0.19734532  1
  O  O41  1  0.16356503  0.96495179  0.19764274  1
  O  O42  1  0.89022325  0.37767526  0.64034603  1
  O  O43  1  0.47098586  0.10601911  0.63476844  1
  O  O44  1  0.62415457  0.52592209  0.63417936  1
  O  O45  1  0.89883105  0.52834685  0.13636342  1
  O  O46  1  0.63677307  0.10594075  0.13655512  1
  O  O47  1  0.48030371  0.37339230  0.14369737  1
  O  O48  1  0.47918515  0.30617255  0.02876986  1
  O  O49  1  0.84910593  0.55202872  0.03298275  1
  O  O50  1  0.70623160  0.15141012  0.03274285  1
  O  O51  1  0.45629675  0.15479447  0.53066485  1
  O  O52  1  0.69850569  0.54565845  0.53078768  1
  O  O53  1  0.83056577  0.30412025  0.52666521  1
  O  O54  1  0.52692242  0.69511028  0.97110144  1
  O  O55  1  0.16889381  0.47287415  0.97043955  1
  O  O56  1  0.30441879  0.83196034  0.97420767  1
  O  O57  1  0.52928407  0.82830598  0.47202646  1
  O  O58  1  0.30204673  0.47521190  0.47028920  1
  O  O59  1  0.17311179  0.70294696  0.47111464  1
  O  O60  1  0.13849540  0.63138616  0.35805112  1
  O  O61  1  0.49308328  0.85817652  0.35845910  1
  O  O62  1  0.36934985  0.50483566  0.35810603  1
  O  O63  1  0.13309348  0.50719038  0.85841273  1
  O  O64  1  0.36848811  0.85891252  0.86007934  1
  O  O65  1  0.49279538  0.62950111  0.85707019  1
  O  O66  1  0.02598411  0.83223803  0.40220424  1
  O  O67  1  0.80679279  0.97847719  0.40231689  1
  O  O68  1  0.17133882  0.19595312  0.40159947  1
  O  O69  1  0.02289008  0.19460907  0.90162131  1
  O  O70  1  0.17198671  0.98003973  0.90746170  1
  O  O71  1  0.80514760  0.83376671  0.90587656  1
  O  O72  1  0.97977479  0.15872564  0.59400146  1
  O  O73  1  0.19546196  0.02216214  0.58866394  1
  O  O74  1  0.82541832  0.80334686  0.59048775  1
  O  O75  1  0.97652680  0.80557699  0.09466901  1
  O  O76  1  0.82564438  0.01532240  0.09395921  1
  O  O77  1  0.18345520  0.16188679  0.09524682  1
  O  O78  1  0.68787020  0.13140782  0.74710115  1
  O  O79  1  0.43640134  0.29395782  0.74559401  1
  O  O80  1  0.83744841  0.54100422  0.75264863  1
  O  O81  1  0.70359169  0.56184056  0.24995593  1
  O  O82  1  0.86065077  0.30175384  0.24701427  1
  O  O83  1  0.44028699  0.13438128  0.24767317  1
  O  O84  1  0.63962917  0.49884434  0.92771743  1
  O  O85  1  0.85834822  0.36210019  0.93450914  1
  O  O86  1  0.50632138  0.13769984  0.92777953  1
  O  O87  1  0.63354026  0.13928129  0.42731808  1
  O  O88  1  0.50452502  0.36033238  0.43185298  1
  O  O89  1  0.85786299  0.49925650  0.42802564  1
  O  O90  1  0.34011527  0.49549372  0.06850263  1
  O  O91  1  0.14138580  0.66620255  0.07206125  1
  O  O92  1  0.51986752  0.86206472  0.07215245  1
  O  O93  1  0.34583524  0.86489729  0.56918120  1
  O  O94  1  0.52145996  0.66160937  0.56883168  1
  O  O95  1  0.15215930  0.49344292  0.56621546  1
  O  O96  1  0.27833125  0.82290818  0.25688109  1
  O  O97  1  0.54344601  0.71590973  0.25804673  1
  O  O98  1  0.17385380  0.45277717  0.25655203  1
  O  O99  1  0.28352725  0.45444291  0.75644722  1
  O  O100  1  0.18903600  0.71375686  0.75902219  1
  O  O101  1  0.54850890  0.82079036  0.75682566  1
