# generated using pymatgen
data_MgMn4(FeO4)2
_symmetry_space_group_name_H-M   'P 1'
_cell_length_a   6.82464219
_cell_length_b   6.82463049
_cell_length_c   6.82440487
_cell_angle_alpha   126.75157010
_cell_angle_beta   126.75850310
_cell_angle_gamma   78.65429027
_symmetry_Int_Tables_number   1
_chemical_formula_structural   MgMn4(FeO4)2
_chemical_formula_sum   'Mg1 Mn4 Fe2 O8'
_cell_volume   197.48571263
_cell_formula_units_Z   1
loop_
 _symmetry_equiv_pos_site_id
 _symmetry_equiv_pos_as_xyz
  1  'x, y, z'
loop_
 _atom_site_type_symbol
 _atom_site_label
 _atom_site_symmetry_multiplicity
 _atom_site_fract_x
 _atom_site_fract_y
 _atom_site_fract_z
 _atom_site_occupancy
  Mg  Mg0  1  0.50002700  0.50002100  0.00001800  1
  Mn  Mn1  1  0.92908500  0.67594400  0.25309900  1
  Mn  Mn2  1  0.32407400  0.57718300  0.25307300  1
  Mn  Mn3  1  0.32412500  0.07100000  0.74693300  1
  Mn  Mn4  1  0.42280800  0.67596800  0.74688200  1
  Fe  Fe5  1  0.00000900  0.00000600  0.99999700  1
  Fe  Fe6  1  0.74993300  0.24994000  0.50000600  1
  O  O7  1  0.59518400  0.36041800  0.23479600  1
  O  O8  1  0.63956200  0.87427900  0.23475100  1
  O  O9  1  0.12149200  0.37366600  0.25219200  1
  O  O10  1  0.63951800  0.40481100  0.76524900  1
  O  O11  1  0.62633900  0.87851300  0.74777300  1
  O  O12  1  0.12563100  0.36038700  0.76520900  1
  O  O13  1  0.13075100  0.87856500  0.25222300  1
  O  O14  1  0.12146200  0.86930000  0.74779700  1
