# generated using pymatgen
data_MgCr6O16
_symmetry_space_group_name_H-M   'P 1'
_cell_length_a   5.55351347
_cell_length_b   8.50622016
_cell_length_c   6.44241862
_cell_angle_alpha   91.69139656
_cell_angle_beta   90.01858028
_cell_angle_gamma   89.99381347
_symmetry_Int_Tables_number   1
_chemical_formula_structural   MgCr6O16
_chemical_formula_sum   'Mg1 Cr6 O16'
_cell_volume   304.20342773
_cell_formula_units_Z   1
loop_
 _symmetry_equiv_pos_site_id
 _symmetry_equiv_pos_as_xyz
  1  'x, y, z'
loop_
 _atom_site_type_symbol
 _atom_site_label
 _atom_site_symmetry_multiplicity
 _atom_site_fract_x
 _atom_site_fract_y
 _atom_site_fract_z
 _atom_site_occupancy
  Mg  Mg0  1  0.52101600  0.49999300  0.00000600  1
  Cr  Cr1  1  0.01497200  0.00000800  0.00001800  1
  Cr  Cr2  1  0.01860200  0.64957300  0.26998400  1
  Cr  Cr3  1  0.01877900  0.35039400  0.72995000  1
  Cr  Cr4  1  0.51549900  0.15248700  0.22592300  1
  Cr  Cr5  1  0.51498500  0.84752000  0.77411900  1
  Cr  Cr6  1  0.51872900  0.50001200  0.49998100  1
  O  O7  1  0.01799200  0.25024100  0.51997400  1
  O  O8  1  0.01653300  0.76822000  0.06934700  1
  O  O9  1  0.01690400  0.23178300  0.93061500  1
  O  O10  1  0.01787500  0.74970000  0.47990000  1
  O  O11  1  0.26783700  0.03998900  0.21486200  1
  O  O12  1  0.26699300  0.95977100  0.78470000  1
  O  O13  1  0.27721400  0.46642100  0.73596900  1
  O  O14  1  0.27708500  0.53355500  0.26399500  1
  O  O15  1  0.51712800  0.26922400  0.44099400  1
  O  O16  1  0.51638200  0.26532300  0.02600300  1
  O  O17  1  0.51720700  0.73080400  0.55907100  1
  O  O18  1  0.51586000  0.73467600  0.97404700  1
  O  O19  1  0.76132300  0.46754700  0.73579900  1
  O  O20  1  0.76115700  0.53242900  0.26419900  1
  O  O21  1  0.76183900  0.03878500  0.21481800  1
  O  O22  1  0.76094300  0.96154800  0.78572800  1
