# generated using pymatgen
data_NaYSiGe(SO6)2
_symmetry_space_group_name_H-M   'P 1'
_cell_length_a   8.98503311
_cell_length_b   8.97522114
_cell_length_c   23.06246194
_cell_angle_alpha   92.00306988
_cell_angle_beta   90.00000000
_cell_angle_gamma   120.03617028
_symmetry_Int_Tables_number   1
_chemical_formula_structural   NaYSiGe(SO6)2
_chemical_formula_sum   'Na6 Y6 Si6 Ge6 S12 O72'
_cell_volume   1608.74964228
_cell_formula_units_Z   6
loop_
 _symmetry_equiv_pos_site_id
 _symmetry_equiv_pos_as_xyz
  1  'x, y, z'
loop_
 _atom_site_type_symbol
 _atom_site_label
 _atom_site_symmetry_multiplicity
 _atom_site_fract_x
 _atom_site_fract_y
 _atom_site_fract_z
 _atom_site_occupancy
  Na  Na0  1  0.02268201  0.00416257  0.49779807  1
  Na  Na1  1  0.98148057  0.00416257  0.99779807  1
  Na  Na2  1  0.69611804  0.34309594  0.83006378  1
  Na  Na3  1  0.64697889  0.34309594  0.33006378  1
  Na  Na4  1  0.33360335  0.69164270  0.16331270  1
  Na  Na5  1  0.35803835  0.69164270  0.66331270  1
  Y  Y6  1  0.00108432  0.99427958  0.64444029  1
  Y  Y7  1  0.99319526  0.99427958  0.14444029  1
  Y  Y8  1  0.67306198  0.32870815  0.97731677  1
  Y  Y9  1  0.65564717  0.32870815  0.47731677  1
  Y  Y10  1  0.33709955  0.66915556  0.31006765  1
  Y  Y11  1  0.33205500  0.66915556  0.81006765  1
  Si  Si12  1  0.29874193  0.00933063  0.24773962  1
  Si  Si13  1  0.71058869  0.00933063  0.74773962  1
  Si  Si14  1  0.37414529  0.01930032  0.57770748  1
  Si  Si15  1  0.64515603  0.01930032  0.07770748  1
  Si  Si16  1  0.05838164  0.37764556  0.91625665  1
  Si  Si17  1  0.31926292  0.37764556  0.41625665  1
  Ge  Ge18  1  0.04588364  0.02924524  0.35177978  1
  Ge  Ge19  1  0.98336160  0.02924524  0.85177978  1
  Ge  Ge20  1  0.66365160  0.27660743  0.68239804  1
  Ge  Ge21  1  0.61295683  0.27660743  0.18239804  1
  Ge  Ge22  1  0.32066678  0.67867907  0.01476879  1
  Ge  Ge23  1  0.35801129  0.67867907  0.51476879  1
  S  S24  1  0.72184233  0.69700066  0.25074614  1
  S  S25  1  0.97465069  0.28211873  0.25181330  1
  S  S26  1  0.30746804  0.28211873  0.75181330  1
  S  S27  1  0.97515832  0.69700066  0.75074614  1
  S  S28  1  0.96676161  0.34878178  0.58536925  1
  S  S29  1  0.64367022  0.61649665  0.58405332  1
  S  S30  1  0.97282744  0.61649665  0.08405332  1
  S  S31  1  0.38202117  0.34878178  0.08536925  1
  S  S32  1  0.63756673  0.68890303  0.91676087  1
  S  S33  1  0.30523249  0.95045114  0.91825732  1
  S  S34  1  0.64521765  0.95045114  0.41825732  1
  S  S35  1  0.05133530  0.68890303  0.41676087  1
  O  O36  1  0.21600166  0.04461883  0.30991590  1
  O  O37  1  0.82633244  0.78513785  0.30559590  1
  O  O38  1  0.95988477  0.18081362  0.30524849  1
  O  O39  1  0.22092885  0.18081362  0.80524849  1
  O  O40  1  0.95880541  0.78513785  0.80559590  1
  O  O41  1  0.82861717  0.04461883  0.80991590  1
  O  O42  1  0.80203922  0.99450225  0.69152603  1
  O  O43  1  0.20761500  0.19968653  0.69885260  1
  O  O44  1  0.00130280  0.79803428  0.69947388  1
  O  O45  1  0.79673148  0.79803428  0.19947388  1
  O  O46  1  0.99207152  0.19968653  0.19885260  1
  O  O47  1  0.19246304  0.99450225  0.19152603  1
  O  O48  1  0.87614811  0.36887000  0.64121893  1
  O  O49  1  0.49690452  0.10730735  0.64063059  1
  O  O50  1  0.62541731  0.51979881  0.63613123  1
  O  O51  1  0.89438250  0.51979881  0.13613123  1
  O  O52  1  0.61040383  0.10730735  0.14063059  1
  O  O53  1  0.49272289  0.36887000  0.14121893  1
  O  O54  1  0.46451381  0.33051116  0.03384162  1
  O  O55  1  0.87212494  0.53917978  0.03062207  1
  O  O56  1  0.66768289  0.13741564  0.02564630  1
  O  O57  1  0.46973375  0.13741564  0.52564630  1
  O  O58  1  0.66705583  0.53917978  0.53062207  1
  O  O59  1  0.86599834  0.33051116  0.53384162  1
  O  O60  1  0.55834325  0.71589906  0.97024467  1
  O  O61  1  0.18530141  0.48059481  0.97710027  1
  O  O62  1  0.29681411  0.85017673  0.97172717  1
  O  O63  1  0.55336163  0.85017673  0.47172717  1
  O  O64  1  0.29529240  0.48059481  0.47710027  1
  O  O65  1  0.15755481  0.71589906  0.47024467  1
  O  O66  1  0.12951306  0.66770223  0.36411311  1
  O  O67  1  0.53777287  0.87597897  0.36621620  1
  O  O68  1  0.33080742  0.47727677  0.36011201  1
  O  O69  1  0.14646835  0.47727677  0.86011201  1
  O  O70  1  0.33820510  0.87597897  0.86621620  1
  O  O71  1  0.53818817  0.66770223  0.86411311  1
  O  O72  1  0.03538248  0.84984727  0.41224287  1
  O  O73  1  0.80753578  0.94655217  0.41492106  1
  O  O74  1  0.13559773  0.18067986  0.41220710  1
  O  O75  1  0.04508213  0.18067986  0.91220710  1
  O  O76  1  0.13901639  0.94655217  0.91492106  1
  O  O77  1  0.81446479  0.84984727  0.91224287  1
  O  O78  1  0.98660331  0.19569996  0.58889151  1
  O  O79  1  0.18290664  0.98592930  0.58454224  1
  O  O80  1  0.79003791  0.79469567  0.58735964  1
  O  O81  1  0.00465776  0.79469567  0.08735964  1
  O  O82  1  0.80302266  0.98592930  0.08454224  1
  O  O83  1  0.20909665  0.19569996  0.08889151  1
  O  O84  1  0.70491473  0.19501683  0.74506518  1
  O  O85  1  0.48014531  0.29571457  0.74867183  1
  O  O86  1  0.81361840  0.52544478  0.74441517  1
  O  O87  1  0.71182738  0.52544478  0.24441517  1
  O  O88  1  0.81557026  0.29571457  0.24867183  1
  O  O89  1  0.49010311  0.19501683  0.24506518  1
  O  O90  1  0.65940088  0.53745674  0.92172903  1
  O  O91  1  0.86578099  0.34473555  0.92020415  1
  O  O92  1  0.44773028  0.12885616  0.92480115  1
  O  O93  1  0.68112688  0.12885616  0.42480115  1
  O  O94  1  0.47895556  0.34473555  0.42020415  1
  O  O95  1  0.87805686  0.53745674  0.42172903  1
  O  O96  1  0.37184465  0.50714828  0.08666657  1
  O  O97  1  0.14708185  0.62681790  0.07757164  1
  O  O98  1  0.46237163  0.82619221  0.06910873  1
  O  O99  1  0.36381959  0.82619221  0.56910873  1
  O  O100  1  0.47973505  0.62681790  0.57757164  1
  O  O101  1  0.13530263  0.50714828  0.58666657  1
  O  O102  1  0.33422170  0.85210648  0.25159209  1
  O  O103  1  0.54605374  0.67108798  0.25519169  1
  O  O104  1  0.12641424  0.45690888  0.25595156  1
  O  O105  1  0.33049364  0.45690888  0.75595156  1
  O  O106  1  0.12503324  0.67108798  0.75519169  1
  O  O107  1  0.51788378  0.85210648  0.75159209  1
