# generated using pymatgen
data_Na8HfMg3(PO4)6
_symmetry_space_group_name_H-M   'P 1'
_cell_length_a   9.05082374
_cell_length_b   9.05082342
_cell_length_c   22.05963182
_cell_angle_alpha   90.00000000
_cell_angle_beta   90.00000000
_cell_angle_gamma   120.00000115
_symmetry_Int_Tables_number   1
_chemical_formula_structural   Na8HfMg3(PO4)6
_chemical_formula_sum   'Na24 Hf3 Mg9 P18 O72'
_cell_volume   1564.96664588
_cell_formula_units_Z   3
loop_
 _symmetry_equiv_pos_site_id
 _symmetry_equiv_pos_as_xyz
  1  'x, y, z'
loop_
 _atom_site_type_symbol
 _atom_site_label
 _atom_site_symmetry_multiplicity
 _atom_site_fract_x
 _atom_site_fract_y
 _atom_site_fract_z
 _atom_site_occupancy
  Na  Na0  1  0.63496561  0.99896555  0.25263344  1
  Na  Na1  1  0.36399994  0.36503439  0.25263344  1
  Na  Na2  1  0.00103445  0.63600006  0.25263344  1
  Na  Na3  1  0.64734378  0.63472004  0.73985947  1
  Na  Na4  1  0.98737626  0.35265622  0.73985947  1
  Na  Na5  1  0.36527996  0.01262374  0.73985947  1
  Na  Na6  1  0.29568688  0.33353989  0.57970178  1
  Na  Na7  1  0.03785400  0.70431312  0.57970178  1
  Na  Na8  1  0.66646011  0.96214600  0.57970178  1
  Na  Na9  1  0.29646811  0.96320354  0.09524994  1
  Na  Na10  1  0.66673643  0.70353189  0.09524994  1
  Na  Na11  1  0.03679646  0.33326357  0.09524994  1
  Na  Na12  1  0.97478300  0.68126243  0.91472943  1
  Na  Na13  1  0.70647842  0.02521700  0.91472943  1
  Na  Na14  1  0.31873757  0.29352158  0.91472943  1
  Na  Na15  1  0.98083570  0.29996003  0.40507597  1
  Na  Na16  1  0.31912333  0.01916430  0.40507597  1
  Na  Na17  1  0.70003997  0.68087667  0.40507597  1
  Na  Na18  1  0.00000000  0.00000000  0.49564382  1
  Na  Na19  1  0.00000000  0.00000000  0.00707000  1
  Na  Na20  1  0.66666700  0.33333300  0.82517886  1
  Na  Na21  1  0.66666700  0.33333300  0.32312712  1
  Na  Na22  1  0.33333300  0.66666700  0.17430364  1
  Na  Na23  1  0.33333300  0.66666700  0.65556411  1
  Hf  Hf24  1  0.66666700  0.33333300  0.98375199  1
  Hf  Hf25  1  0.66666700  0.33333300  0.48252610  1
  Hf  Hf26  1  0.33333300  0.66666700  0.81478976  1
  Mg  Mg27  1  0.00000000  0.00000000  0.34555231  1
  Mg  Mg28  1  0.00000000  0.00000000  0.84809434  1
  Mg  Mg29  1  0.00000000  0.00000000  0.64939732  1
  Mg  Mg30  1  0.00000000  0.00000000  0.15454690  1
  Mg  Mg31  1  0.66666700  0.33333300  0.68166254  1
  Mg  Mg32  1  0.66666700  0.33333300  0.18430618  1
  Mg  Mg33  1  0.33333300  0.66666700  0.02003090  1
  Mg  Mg34  1  0.33333300  0.66666700  0.51393060  1
  Mg  Mg35  1  0.33333300  0.66666700  0.31665926  1
  P  P36  1  0.29871132  0.99931093  0.24958318  1
  P  P37  1  0.70059961  0.70128868  0.24958318  1
  P  P38  1  0.00068907  0.29940039  0.24958318  1
  P  P39  1  0.29609053  0.29501692  0.75107460  1
  P  P40  1  0.99892639  0.70390947  0.75107460  1
  P  P41  1  0.70498308  0.00107361  0.75107460  1
  P  P42  1  0.96563577  0.33399749  0.58636983  1
  P  P43  1  0.36836273  0.03436423  0.58636983  1
  P  P44  1  0.66600251  0.63163727  0.58636983  1
  P  P45  1  0.96600271  0.63163207  0.08439085  1
  P  P46  1  0.66563035  0.03399729  0.08439085  1
  P  P47  1  0.36836793  0.33436965  0.08439085  1
  P  P48  1  0.63055109  0.66770302  0.91844072  1
  P  P49  1  0.03715093  0.36944891  0.91844072  1
  P  P50  1  0.33229698  0.96284907  0.91844072  1
  P  P51  1  0.63020708  0.96195610  0.41799985  1
  P  P52  1  0.33174801  0.36979292  0.41799985  1
  P  P53  1  0.03804390  0.66825199  0.41799985  1
  O  O54  1  0.21240366  0.02296049  0.30625681  1
  O  O55  1  0.81055683  0.78759634  0.30625681  1
  O  O56  1  0.97703951  0.18944317  0.30625681  1
  O  O57  1  0.21448036  0.19259949  0.80900658  1
  O  O58  1  0.97811914  0.78551964  0.80900658  1
  O  O59  1  0.80740051  0.02188086  0.80900658  1
  O  O60  1  0.78386531  0.96817261  0.69499646  1
  O  O61  1  0.18430729  0.21613469  0.69499646  1
  O  O62  1  0.03182739  0.81569271  0.69499646  1
  O  O63  1  0.78460820  0.80965775  0.19224676  1
  O  O64  1  0.02504955  0.21539180  0.19224676  1
  O  O65  1  0.19034225  0.97495045  0.19224676  1
  O  O66  1  0.88133451  0.35711772  0.64318152  1
  O  O67  1  0.47578422  0.11866549  0.64318152  1
  O  O68  1  0.64288228  0.52421578  0.64318152  1
  O  O69  1  0.87518126  0.51763064  0.13832852  1
  O  O70  1  0.64245037  0.12481874  0.13832852  1
  O  O71  1  0.48236936  0.35754963  0.13832852  1
  O  O72  1  0.46117226  0.31485996  0.02519390  1
  O  O73  1  0.85368870  0.53882774  0.02519390  1
  O  O74  1  0.68514004  0.14631130  0.02519390  1
  O  O75  1  0.46547358  0.14986112  0.53051586  1
  O  O76  1  0.68438854  0.53452642  0.53051586  1
  O  O77  1  0.85013888  0.31561146  0.53051586  1
  O  O78  1  0.54345348  0.68898408  0.97367654  1
  O  O79  1  0.14552960  0.45654652  0.97367654  1
  O  O80  1  0.31101592  0.85447040  0.97367654  1
  O  O81  1  0.54855910  0.85854824  0.47582270  1
  O  O82  1  0.30998813  0.45144090  0.47582270  1
  O  O83  1  0.14145176  0.69001187  0.47582270  1
  O  O84  1  0.11672547  0.63472752  0.36193249  1
  O  O85  1  0.51800106  0.88327453  0.36193249  1
  O  O86  1  0.36527248  0.48199894  0.36193249  1
  O  O87  1  0.12501878  0.48300042  0.86104194  1
  O  O88  1  0.35798064  0.87498122  0.86104194  1
  O  O89  1  0.51699958  0.64201936  0.86104194  1
  O  O90  1  0.01153691  0.82363590  0.41257053  1
  O  O91  1  0.81209900  0.98846309  0.41257053  1
  O  O92  1  0.17636410  0.18790100  0.41257053  1
  O  O93  1  0.01284892  0.18943920  0.91181184  1
  O  O94  1  0.17659028  0.98715108  0.91181184  1
  O  O95  1  0.81056080  0.82340972  0.91181184  1
  O  O96  1  0.97802066  0.16977453  0.58718339  1
  O  O97  1  0.19175387  0.02197934  0.58718339  1
  O  O98  1  0.83022547  0.80824613  0.58718339  1
  O  O99  1  0.97768853  0.80724502  0.08492638  1
  O  O100  1  0.82955649  0.02231147  0.08492638  1
  O  O101  1  0.19275498  0.17044351  0.08492638  1
  O  O102  1  0.67853104  0.15672590  0.74631856  1
  O  O103  1  0.47819586  0.32146896  0.74631856  1
  O  O104  1  0.84327410  0.52180414  0.74631856  1
  O  O105  1  0.68154524  0.52100294  0.24557361  1
  O  O106  1  0.83945870  0.31845476  0.24557361  1
  O  O107  1  0.47899706  0.16054130  0.24557361  1
  O  O108  1  0.64472138  0.50123619  0.91974458  1
  O  O109  1  0.85651582  0.35527862  0.91974458  1
  O  O110  1  0.49876381  0.14348418  0.91974458  1
  O  O111  1  0.65054153  0.14668513  0.42373418  1
  O  O112  1  0.49614460  0.34945847  0.42373418  1
  O  O113  1  0.85331487  0.50385540  0.42373418  1
  O  O114  1  0.35106363  0.49426138  0.07807368  1
  O  O115  1  0.14319675  0.64893637  0.07807368  1
  O  O116  1  0.50573862  0.85680325  0.07807368  1
  O  O117  1  0.34987538  0.85608195  0.57990159  1
  O  O118  1  0.50620557  0.65012462  0.57990159  1
  O  O119  1  0.14391805  0.49379443  0.57990159  1
  O  O120  1  0.31784617  0.83829050  0.25446027  1
  O  O121  1  0.52044333  0.68215383  0.25446027  1
  O  O122  1  0.16170950  0.47955667  0.25446027  1
  O  O123  1  0.31664940  0.48006394  0.75634698  1
  O  O124  1  0.16341354  0.68335060  0.75634698  1
  O  O125  1  0.51993606  0.83658646  0.75634698  1
