# generated using pymatgen
data_MgTi(CoO3)2
_symmetry_space_group_name_H-M   'P 1'
_cell_length_a   6.70710884
_cell_length_b   3.04312761
_cell_length_c   6.21502770
_cell_angle_alpha   89.14050889
_cell_angle_beta   105.02866151
_cell_angle_gamma   76.11651785
_symmetry_Int_Tables_number   1
_chemical_formula_structural   MgTi(CoO3)2
_chemical_formula_sum   'Mg1 Ti1 Co2 O6'
_cell_volume   118.53032817
_cell_formula_units_Z   1
loop_
 _symmetry_equiv_pos_site_id
 _symmetry_equiv_pos_as_xyz
  1  'x, y, z'
loop_
 _atom_site_type_symbol
 _atom_site_label
 _atom_site_symmetry_multiplicity
 _atom_site_fract_x
 _atom_site_fract_y
 _atom_site_fract_z
 _atom_site_occupancy
  Mg  Mg0  1  0.13176800  0.48057100  0.57802400  1
  Ti  Ti1  1  0.36954900  0.27216500  0.27503900  1
  Co  Co2  1  0.96860900  0.00549000  0.01460600  1
  Co  Co3  1  0.64877800  0.67632800  0.68505200  1
  O  O4  1  0.04819900  0.48510300  0.23962400  1
  O  O5  1  0.32500100  0.87316000  0.53820300  1
  O  O6  1  0.66840400  0.18367300  0.89409400  1
  O  O7  1  0.33704500  0.80843800  0.09405400  1
  O  O8  1  0.64420300  0.15783600  0.45933900  1
  O  O9  1  0.97393800  0.50403100  0.79805200  1
