# generated using pymatgen
data_Tb3In5S12
_symmetry_space_group_name_H-M   'P 1'
_cell_length_a   3.89224321
_cell_length_b   10.95864248
_cell_length_c   21.32172686
_cell_angle_alpha   83.84061273
_cell_angle_beta   90.00000000
_cell_angle_gamma   90.00000000
_symmetry_Int_Tables_number   1
_chemical_formula_structural   Tb3In5S12
_chemical_formula_sum   'Tb6 In10 S24'
_cell_volume   904.20056380
_cell_formula_units_Z   2
loop_
 _symmetry_equiv_pos_site_id
 _symmetry_equiv_pos_as_xyz
  1  'x, y, z'
loop_
 _atom_site_type_symbol
 _atom_site_label
 _atom_site_symmetry_multiplicity
 _atom_site_fract_x
 _atom_site_fract_y
 _atom_site_fract_z
 _atom_site_occupancy
  Tb  Tb0  1  0.25000000  0.71480812  0.28480730  1
  Tb  Tb1  1  0.75000000  0.28519188  0.71519270  1
  Tb  Tb2  1  0.25000000  0.91290168  0.76538617  1
  Tb  Tb3  1  0.75000000  0.08709832  0.23461383  1
  Tb  Tb4  1  0.25000000  0.02803256  0.58803161  1
  Tb  Tb5  1  0.75000000  0.97196744  0.41196839  1
  In  In6  1  0.25000000  0.83590171  0.11338218  1
  In  In7  1  0.75000000  0.34932263  0.52726615  1
  In  In8  1  0.25000000  0.65067737  0.47273385  1
  In  In9  1  0.75000000  0.45762895  0.17369922  1
  In  In10  1  0.25000000  0.54237105  0.82630078  1
  In  In11  1  0.75000000  0.64766686  0.66703910  1
  In  In12  1  0.25000000  0.35233314  0.33296090  1
  In  In13  1  0.75000000  0.75863897  0.94164344  1
  In  In14  1  0.25000000  0.24136103  0.05835656  1
  In  In15  1  0.75000000  0.16409829  0.88661782  1
  S  S16  1  0.25000000  0.60926905  0.15691545  1
  S  S17  1  0.75000000  0.86599872  0.03742011  1
  S  S18  1  0.25000000  0.13400128  0.96257989  1
  S  S19  1  0.75000000  0.93839978  0.85966663  1
  S  S20  1  0.25000000  0.06160022  0.14033337  1
  S  S21  1  0.75000000  0.38093600  0.06156242  1
  S  S22  1  0.25000000  0.61906400  0.93843758  1
  S  S23  1  0.75000000  0.72197352  0.38743867  1
  S  S24  1  0.25000000  0.27802648  0.61256133  1
  S  S25  1  0.75000000  0.83704954  0.21018094  1
  S  S26  1  0.25000000  0.96501811  0.31553241  1
  S  S27  1  0.75000000  0.03498189  0.68446759  1
  S  S28  1  0.25000000  0.29378922  0.21657236  1
  S  S29  1  0.75000000  0.70621078  0.78342764  1
  S  S30  1  0.25000000  0.48491378  0.71031244  1
  S  S31  1  0.75000000  0.51508622  0.28968756  1
  S  S32  1  0.25000000  0.79685392  0.65116666  1
  S  S33  1  0.75000000  0.20314608  0.34883334  1
  S  S34  1  0.25000000  0.42166690  0.44729253  1
  S  S35  1  0.75000000  0.57833310  0.55270747  1
  S  S36  1  0.75000000  0.12454605  0.50870077  1
  S  S37  1  0.75000000  0.39073095  0.84308455  1
  S  S38  1  0.25000000  0.87545395  0.49129923  1
  S  S39  1  0.25000000  0.16295046  0.78981906  1
