# generated using pymatgen
data_Na5ZrTa3(SiO4)6
_symmetry_space_group_name_H-M   'P 1'
_cell_length_a   9.05190027
_cell_length_b   9.03926146
_cell_length_c   22.76757759
_cell_angle_alpha   90.18486453
_cell_angle_beta   89.81760772
_cell_angle_gamma   120.18026198
_symmetry_Int_Tables_number   1
_chemical_formula_structural   Na5ZrTa3(SiO4)6
_chemical_formula_sum   'Na15 Zr3 Ta9 Si18 O72'
_cell_volume   1610.36920846
_cell_formula_units_Z   3
loop_
 _symmetry_equiv_pos_site_id
 _symmetry_equiv_pos_as_xyz
  1  'x, y, z'
loop_
 _atom_site_type_symbol
 _atom_site_label
 _atom_site_symmetry_multiplicity
 _atom_site_fract_x
 _atom_site_fract_y
 _atom_site_fract_z
 _atom_site_occupancy
  Na  Na0  1  0.36675768  0.36257260  0.24871005  1
  Na  Na1  1  0.99382607  0.63201322  0.24862885  1
  Na  Na2  1  0.63571946  0.63051869  0.74918915  1
  Na  Na3  1  0.99780471  0.36728292  0.74943943  1
  Na  Na4  1  0.03084769  0.69623098  0.58405197  1
  Na  Na5  1  0.30441874  0.96991035  0.08380241  1
  Na  Na6  1  0.69911407  0.03295566  0.91756264  1
  Na  Na7  1  0.96874440  0.29719248  0.41543363  1
  Na  Na8  1  0.33078493  0.03376449  0.41572141  1
  Na  Na9  1  0.99338516  0.99898274  0.49948891  1
  Na  Na10  1  0.00021545  0.00000484  0.00085988  1
  Na  Na11  1  0.65999642  0.33245077  0.83355686  1
  Na  Na12  1  0.66686879  0.33298446  0.33049712  1
  Na  Na13  1  0.33965980  0.66722679  0.16491673  1
  Na  Na14  1  0.34002274  0.67329423  0.66561864  1
  Zr  Zr15  1  0.99429069  0.99437807  0.35323563  1
  Zr  Zr16  1  0.66012209  0.32621271  0.68584405  1
  Zr  Zr17  1  0.66671547  0.32826163  0.18376815  1
  Ta  Ta18  1  0.00469358  0.00003709  0.85540775  1
  Ta  Ta19  1  0.00032625  0.00369686  0.64528396  1
  Ta  Ta20  1  0.99475734  0.99976998  0.14514032  1
  Ta  Ta21  1  0.66760307  0.33822715  0.97979626  1
  Ta  Ta22  1  0.66679921  0.33688901  0.48059820  1
  Ta  Ta23  1  0.33216771  0.66202375  0.01994182  1
  Ta  Ta24  1  0.33750126  0.66645739  0.52091900  1
  Ta  Ta25  1  0.33689355  0.66997652  0.31255092  1
  Ta  Ta26  1  0.33325311  0.66995305  0.81394535  1
  Si  Si27  1  0.29071175  0.99925282  0.24992920  1
  Si  Si28  1  0.70686740  0.71019434  0.24912549  1
  Si  Si29  1  0.99823802  0.28980903  0.25075962  1
  Si  Si30  1  0.28797420  0.28741924  0.75104172  1
  Si  Si31  1  0.00554629  0.71656375  0.74996251  1
  Si  Si32  1  0.71203239  0.99829758  0.75144809  1
  Si  Si33  1  0.95708284  0.33060682  0.58287421  1
  Si  Si34  1  0.37419690  0.04145364  0.58213247  1
  Si  Si35  1  0.66418929  0.62535991  0.58421664  1
  Si  Si36  1  0.95893144  0.62533247  0.08307857  1
  Si  Si37  1  0.66893541  0.04125594  0.08078392  1
  Si  Si38  1  0.37559679  0.33591899  0.08332154  1
  Si  Si39  1  0.62045509  0.66291238  0.91620129  1
  Si  Si40  1  0.04384176  0.37841327  0.91642816  1
  Si  Si41  1  0.33130743  0.95577267  0.91802109  1
  Si  Si42  1  0.62207830  0.95539710  0.41787610  1
  Si  Si43  1  0.33915599  0.38222758  0.41690580  1
  Si  Si44  1  0.04423162  0.66485232  0.41777835  1
  O  O45  1  0.20813869  0.03160869  0.30874525  1
  O  O46  1  0.82858644  0.79285584  0.30577548  1
  O  O47  1  0.97345640  0.18121743  0.30997721  1
  O  O48  1  0.18842244  0.16633603  0.80733730  1
  O  O49  1  0.97313688  0.81119838  0.80596239  1
  O  O50  1  0.83200858  0.02598531  0.80890768  1
  O  O51  1  0.80512902  0.96476145  0.69441726  1
  O  O52  1  0.16136106  0.19552770  0.69421546  1
  O  O53  1  0.03092329  0.83263760  0.69128033  1
  O  O54  1  0.80470702  0.83520194  0.19251867  1
  O  O55  1  0.03484441  0.19562121  0.19451079  1
  O  O56  1  0.16554610  0.96461667  0.19233728  1
  O  O57  1  0.88112003  0.37403634  0.64096562  1
  O  O58  1  0.49234403  0.12386145  0.63911579  1
  O  O59  1  0.63436170  0.51382293  0.64293820  1
  O  O60  1  0.88281997  0.51535585  0.14227449  1
  O  O61  1  0.62364050  0.11946016  0.13738517  1
  O  O62  1  0.48545640  0.36734315  0.14245938  1
  O  O63  1  0.47194788  0.30059033  0.02747602  1
  O  O64  1  0.83268674  0.52641291  0.02686540  1
  O  O65  1  0.69499563  0.16185386  0.02317599  1
  O  O66  1  0.46760472  0.16258087  0.52419577  1
  O  O67  1  0.69860593  0.52870592  0.52796589  1
  O  O68  1  0.83598999  0.30530946  0.52501390  1
  O  O69  1  0.52824607  0.70018666  0.97138579  1
  O  O70  1  0.16756692  0.47356977  0.97208498  1
  O  O71  1  0.30516079  0.83769444  0.97506779  1
  O  O72  1  0.52226929  0.83384558  0.47359131  1
  O  O73  1  0.30637785  0.47694615  0.47224133  1
  O  O74  1  0.16500333  0.69174608  0.47454695  1
  O  O75  1  0.13377974  0.63133944  0.35941595  1
  O  O76  1  0.49477827  0.86264627  0.36100174  1
  O  O77  1  0.36404820  0.49958866  0.35834418  1
  O  O78  1  0.13607140  0.49682607  0.85802884  1
  O  O79  1  0.36475907  0.86082796  0.86121429  1
  O  O80  1  0.50261008  0.63827304  0.85769476  1
  O  O81  1  0.03470998  0.83791759  0.41394189  1
  O  O82  1  0.81307922  0.98655102  0.41462012  1
  O  O83  1  0.16978955  0.19375494  0.41367208  1
  O  O84  1  0.01681581  0.18543600  0.90915060  1
  O  O85  1  0.16326982  0.97512409  0.90881965  1
  O  O86  1  0.80644916  0.83890175  0.90855527  1
  O  O87  1  0.97626499  0.16134273  0.59029110  1
  O  O88  1  0.18192622  0.01620706  0.58980280  1
  O  O89  1  0.84175777  0.81106940  0.58965631  1
  O  O90  1  0.98533407  0.81896856  0.08920620  1
  O  O91  1  0.83877798  0.02350024  0.08964108  1
  O  O92  1  0.18944035  0.15837347  0.08970453  1
  O  O93  1  0.70251713  0.17156854  0.74647824  1
  O  O94  1  0.47968455  0.31927654  0.74737552  1
  O  O95  1  0.83596341  0.52742269  0.74633988  1
  O  O96  1  0.68372957  0.52092494  0.24386320  1
  O  O97  1  0.84083663  0.32496607  0.24525501  1
  O  O98  1  0.47541018  0.17038703  0.24485096  1
  O  O99  1  0.64088116  0.49517479  0.92445168  1
  O  O100  1  0.85147951  0.35135176  0.92389234  1
  O  O101  1  0.50738988  0.14149033  0.92394768  1
  O  O102  1  0.63506409  0.14379647  0.42430034  1
  O  O103  1  0.50603659  0.35777284  0.42458531  1
  O  O104  1  0.85825418  0.48801875  0.42440806  1
  O  O105  1  0.35311737  0.50195917  0.07286520  1
  O  O106  1  0.15200133  0.65475914  0.07323917  1
  O  O107  1  0.49539455  0.85393096  0.07240621  1
  O  O108  1  0.34349604  0.84764377  0.57398255  1
  O  O109  1  0.49830101  0.64697060  0.57414203  1
  O  O110  1  0.14358004  0.50401056  0.57333516  1
  O  O111  1  0.29831918  0.82119035  0.25727353  1
  O  O112  1  0.51602696  0.68855501  0.25663481  1
  O  O113  1  0.17593384  0.47995261  0.25655050  1
  O  O114  1  0.30166137  0.47645863  0.75756892  1
  O  O115  1  0.17197911  0.69060973  0.75797655  1
  O  O116  1  0.52549324  0.82192899  0.75765404  1
