# generated using pymatgen
data_Rb4Mg(WO4)2
_symmetry_space_group_name_H-M   'P 1'
_cell_length_a   6.39625800
_cell_length_b   7.21003013
_cell_length_c   9.78307267
_cell_angle_alpha   110.19370632
_cell_angle_beta   90.00000000
_cell_angle_gamma   116.33166179
_symmetry_Int_Tables_number   1
_chemical_formula_structural   Rb4Mg(WO4)2
_chemical_formula_sum   'Rb4 Mg1 W2 O8'
_cell_volume   373.15963544
_cell_formula_units_Z   1
loop_
 _symmetry_equiv_pos_site_id
 _symmetry_equiv_pos_as_xyz
  1  'x, y, z'
loop_
 _atom_site_type_symbol
 _atom_site_label
 _atom_site_symmetry_multiplicity
 _atom_site_fract_x
 _atom_site_fract_y
 _atom_site_fract_z
 _atom_site_occupancy
  Rb  Rb0  1  0.84398500  0.68797000  0.21777700  1
  Rb  Rb1  1  0.16263000  0.32525900  0.80232200  1
  Rb  Rb2  1  0.51082600  0.02165000  0.82997300  1
  Rb  Rb3  1  0.49840100  0.99680300  0.20223500  1
  Mg  Mg4  1  0.25017700  0.50035300  0.48694300  1
  W  W5  1  0.16323900  0.32648000  0.17203200  1
  W  W6  1  0.83328000  0.66655800  0.82260500  1
  O  O7  1  0.39055800  0.28452400  0.07177700  1
  O  O8  1  0.09179600  0.72314600  0.94206800  1
  O  O9  1  0.63135000  0.72314600  0.94206800  1
  O  O10  1  0.89396700  0.28452400  0.07177700  1
  O  O11  1  0.68493600  0.36987100  0.70270900  1
  O  O12  1  0.31263700  0.62527300  0.33265100  1
  O  O13  1  0.10006500  0.20013000  0.32618600  1
  O  O14  1  0.92382100  0.84764200  0.71854400  1
