# generated using pymatgen
data_Hf2Al2SiS5O24
_symmetry_space_group_name_H-M   'P 1'
_cell_length_a   8.59769781
_cell_length_b   8.62876807
_cell_length_c   22.34917574
_cell_angle_alpha   90.23511797
_cell_angle_beta   89.80360202
_cell_angle_gamma   119.99939322
_symmetry_Int_Tables_number   1
_chemical_formula_structural   Hf2Al2SiS5O24
_chemical_formula_sum   'Hf6 Al6 Si3 S15 O72'
_cell_volume   1435.89130295
_cell_formula_units_Z   3
loop_
 _symmetry_equiv_pos_site_id
 _symmetry_equiv_pos_as_xyz
  1  'x, y, z'
loop_
 _atom_site_type_symbol
 _atom_site_label
 _atom_site_symmetry_multiplicity
 _atom_site_fract_x
 _atom_site_fract_y
 _atom_site_fract_z
 _atom_site_occupancy
  Hf  Hf0  1  0.99700268  0.00586970  0.64695303  1
  Hf  Hf1  1  0.00610098  0.00675137  0.13860511  1
  Hf  Hf2  1  0.67416913  0.32330849  0.47507967  1
  Hf  Hf3  1  0.33496080  0.65973062  0.02277920  1
  Hf  Hf4  1  0.33749977  0.66753243  0.52320594  1
  Hf  Hf5  1  0.34066449  0.67419391  0.30951864  1
  Al  Al6  1  0.99674100  0.00057924  0.35345701  1
  Al  Al7  1  0.00175931  0.99973630  0.85192997  1
  Al  Al8  1  0.67714450  0.33946168  0.69062586  1
  Al  Al9  1  0.66209893  0.33788865  0.18800274  1
  Al  Al10  1  0.65614226  0.32795339  0.97635559  1
  Al  Al11  1  0.33174422  0.66708236  0.81481485  1
  Si  Si12  1  0.95040919  0.34004947  0.58906110  1
  Si  Si13  1  0.40308830  0.33586977  0.08271839  1
  Si  Si14  1  0.64003640  0.95584672  0.41490521  1
  S  S15  1  0.29167252  0.01258662  0.25060753  1
  S  S16  1  0.72290911  0.70440886  0.24982940  1
  S  S17  1  0.98379912  0.28137053  0.24940183  1
  S  S18  1  0.29714734  0.29674535  0.75424677  1
  S  S19  1  0.00093951  0.70604846  0.75472459  1
  S  S20  1  0.70186483  0.99736449  0.75535207  1
  S  S21  1  0.38697307  0.05367032  0.58793262  1
  S  S22  1  0.66436204  0.61058328  0.58802148  1
  S  S23  1  0.93848720  0.60295015  0.08261659  1
  S  S24  1  0.66471876  0.06195487  0.08237849  1
  S  S25  1  0.63011939  0.66935664  0.91228120  1
  S  S26  1  0.03709739  0.37096968  0.91324464  1
  S  S27  1  0.33243793  0.95957544  0.91279321  1
  S  S28  1  0.32133867  0.36591740  0.41391059  1
  S  S29  1  0.04601257  0.68167725  0.41360635  1
  O  O30  1  0.20471199  0.03790177  0.30379232  1
  O  O31  1  0.83481847  0.79384042  0.30250142  1
  O  O32  1  0.95981153  0.16964073  0.30198711  1
  O  O33  1  0.20862380  0.17373373  0.80537040  1
  O  O34  1  0.97095779  0.79881536  0.80607618  1
  O  O35  1  0.82733595  0.03238804  0.80585315  1
  O  O36  1  0.77882309  0.95763862  0.70114546  1
  O  O37  1  0.18069272  0.21872528  0.70037317  1
  O  O38  1  0.04039600  0.81867979  0.70064803  1
  O  O39  1  0.79597499  0.81659699  0.19610025  1
  O  O40  1  0.01922602  0.20191982  0.19543393  1
  O  O41  1  0.17718601  0.97927901  0.19721850  1
  O  O42  1  0.85260227  0.36176343  0.64658135  1
  O  O43  1  0.49426559  0.14047129  0.64127256  1
  O  O44  1  0.63477289  0.49971444  0.64115701  1
  O  O45  1  0.86767004  0.49727813  0.13741327  1
  O  O46  1  0.64227266  0.14030696  0.13756991  1
  O  O47  1  0.51171814  0.36435558  0.14356059  1
  O  O48  1  0.48352510  0.30531408  0.02210191  1
  O  O49  1  0.83577069  0.52367400  0.02803084  1
  O  O50  1  0.70148950  0.16947202  0.02812085  1
  O  O51  1  0.45612158  0.16059727  0.53287629  1
  O  O52  1  0.69060364  0.53706559  0.53239427  1
  O  O53  1  0.83585214  0.30328589  0.52764737  1
  O  O54  1  0.55183082  0.70806284  0.96662364  1
  O  O55  1  0.15390087  0.44996100  0.96730297  1
  O  O56  1  0.29399842  0.84655287  0.96692706  1
  O  O57  1  0.54226493  0.83357289  0.47349130  1
  O  O58  1  0.28348219  0.44290124  0.46786235  1
  O  O59  1  0.15455264  0.70785283  0.46782015  1
  O  O60  1  0.12214170  0.63544045  0.36134145  1
  O  O61  1  0.50441308  0.86014028  0.35804233  1
  O  O62  1  0.35088220  0.48137554  0.36119220  1
  O  O63  1  0.12474224  0.49314646  0.86197491  1
  O  O64  1  0.36274491  0.86798568  0.86122402  1
  O  O65  1  0.50566586  0.63405199  0.86149767  1
  O  O66  1  0.04091948  0.84470454  0.40192716  1
  O  O67  1  0.82973642  0.97556541  0.40175587  1
  O  O68  1  0.16950868  0.18851756  0.40238109  1
  O  O69  1  0.01926399  0.19390649  0.90191153  1
  O  O70  1  0.17509543  0.98192391  0.90137267  1
  O  O71  1  0.80695905  0.83052622  0.90145390  1
  O  O72  1  0.97231073  0.16321474  0.59571629  1
  O  O73  1  0.20338816  0.02527859  0.59553730  1
  O  O74  1  0.82675236  0.78851541  0.59623544  1
  O  O75  1  0.95283073  0.78057838  0.09029994  1
  O  O76  1  0.81955181  0.03196014  0.08952219  1
  O  O77  1  0.19913400  0.16319131  0.08975335  1
  O  O78  1  0.68090744  0.15403928  0.74538164  1
  O  O79  1  0.47397226  0.31378316  0.74247726  1
  O  O80  1  0.83641532  0.53083672  0.74664477  1
  O  O81  1  0.70960706  0.52891933  0.24274622  1
  O  O82  1  0.82424275  0.29840478  0.23913896  1
  O  O83  1  0.47158233  0.16651054  0.24299851  1
  O  O84  1  0.65157120  0.51268751  0.92232196  1
  O  O85  1  0.85992881  0.35353442  0.92521716  1
  O  O86  1  0.49675773  0.13525548  0.92117341  1
  O  O87  1  0.64297985  0.14508074  0.41873536  1
  O  O88  1  0.48518069  0.35790511  0.42287747  1
  O  O89  1  0.86283026  0.52938367  0.42135400  1
  O  O90  1  0.37108974  0.50813715  0.07405436  1
  O  O91  1  0.12377612  0.63316245  0.07504886  1
  O  O92  1  0.50140187  0.88372368  0.07458794  1
  O  O93  1  0.37293604  0.87790284  0.58032674  1
  O  O94  1  0.50586683  0.63318261  0.58227772  1
  O  O95  1  0.14626318  0.51159177  0.57807737  1
  O  O96  1  0.30254321  0.84637590  0.25597982  1
  O  O97  1  0.53830428  0.67686001  0.25696692  1
  O  O98  1  0.14271359  0.46091441  0.25671908  1
  O  O99  1  0.31476106  0.47373000  0.76547727  1
  O  O100  1  0.15834812  0.68378350  0.76606028  1
  O  O101  1  0.52528557  0.83587648  0.76600441  1
