# generated using pymatgen
data_Na6Ta6Al2Si9(SO16)3
_symmetry_space_group_name_H-M   'P 1'
_cell_length_a   17.67281948
_cell_length_b   8.83053061
_cell_length_c   22.65603478
_cell_angle_alpha   90.03736852
_cell_angle_beta   90.09588167
_cell_angle_gamma   119.99910924
_symmetry_Int_Tables_number   1
_chemical_formula_structural   Na6Ta6Al2Si9(SO16)3
_chemical_formula_sum   'Na18 Ta18 Al6 Si27 S9 O144'
_cell_volume   3062.03269891
_cell_formula_units_Z   3
loop_
 _symmetry_equiv_pos_site_id
 _symmetry_equiv_pos_as_xyz
  1  'x, y, z'
loop_
 _atom_site_type_symbol
 _atom_site_label
 _atom_site_symmetry_multiplicity
 _atom_site_fract_x
 _atom_site_fract_y
 _atom_site_fract_z
 _atom_site_occupancy
  Na  Na0  1  0.32037374  0.01038455  0.25007608  1
  Na  Na1  1  0.68343313  0.36726764  0.24745095  1
  Na  Na2  1  0.49460486  0.62246225  0.24962534  1
  Na  Na3  1  0.81992468  0.63063659  0.74876040  1
  Na  Na4  1  0.99472232  0.36636168  0.74806681  1
  Na  Na5  1  0.18520159  0.00410575  0.74509515  1
  Na  Na6  1  0.00241785  0.00723639  0.49951094  1
  Na  Na7  1  0.50353047  0.99945270  0.49689072  1
  Na  Na8  1  0.00388968  0.01161417  0.99452577  1
  Na  Na9  1  0.50249831  0.99769720  0.99836561  1
  Na  Na10  1  0.33744524  0.33351792  0.83170122  1
  Na  Na11  1  0.83117004  0.32511373  0.82778807  1
  Na  Na12  1  0.33093285  0.33919415  0.33171362  1
  Na  Na13  1  0.83693445  0.34026565  0.33519852  1
  Na  Na14  1  0.16735152  0.66021143  0.16663286  1
  Na  Na15  1  0.67017403  0.66867107  0.16504807  1
  Na  Na16  1  0.17148959  0.67216111  0.66381563  1
  Na  Na17  1  0.66255520  0.66854720  0.66298971  1
  Ta  Ta18  1  0.00179479  0.98692706  0.35718073  1
  Ta  Ta19  1  0.50200548  0.01649318  0.85521362  1
  Ta  Ta20  1  0.99777820  0.99254546  0.64397093  1
  Ta  Ta21  1  0.49894436  0.01173550  0.64012690  1
  Ta  Ta22  1  0.99983157  0.99812667  0.14478939  1
  Ta  Ta23  1  0.49768830  0.00239606  0.14456398  1
  Ta  Ta24  1  0.32965294  0.34080426  0.97629209  1
  Ta  Ta25  1  0.82979453  0.31415526  0.97763854  1
  Ta  Ta26  1  0.33531086  0.34619287  0.48152753  1
  Ta  Ta27  1  0.82898940  0.31689626  0.47668630  1
  Ta  Ta28  1  0.16578720  0.65510015  0.01559907  1
  Ta  Ta29  1  0.66012629  0.66499038  0.02678108  1
  Ta  Ta30  1  0.16043886  0.65407609  0.52715104  1
  Ta  Ta31  1  0.65955620  0.66812684  0.51816352  1
  Ta  Ta32  1  0.16498091  0.66137505  0.31285944  1
  Ta  Ta33  1  0.66887336  0.65914226  0.31674509  1
  Ta  Ta34  1  0.16891928  0.67879795  0.81501534  1
  Ta  Ta35  1  0.66233067  0.66700596  0.81002725  1
  Al  Al36  1  0.49556229  0.99803663  0.35528696  1
  Al  Al37  1  0.99711788  0.99608665  0.85372889  1
  Al  Al38  1  0.33598424  0.32197064  0.67681537  1
  Al  Al39  1  0.83218053  0.31130858  0.69120322  1
  Al  Al40  1  0.33201587  0.35328830  0.19171407  1
  Al  Al41  1  0.82961575  0.33842647  0.18143829  1
  Si  Si42  1  0.14849311  0.00899620  0.24848735  1
  Si  Si43  1  0.35832941  0.71342429  0.25351569  1
  Si  Si44  1  0.85596236  0.70022294  0.24801697  1
  Si  Si45  1  0.49699113  0.28435214  0.25271229  1
  Si  Si46  1  0.64849495  0.28563613  0.74771300  1
  Si  Si47  1  0.99678578  0.71075282  0.75265869  1
  Si  Si48  1  0.35666015  0.01241301  0.74738630  1
  Si  Si49  1  0.85892913  0.00396645  0.75336315  1
  Si  Si50  1  0.47662710  0.34025082  0.58442112  1
  Si  Si51  1  0.96977839  0.32850780  0.58805858  1
  Si  Si52  1  0.19164422  0.05015494  0.58485154  1
  Si  Si53  1  0.69318703  0.04964927  0.58761926  1
  Si  Si54  1  0.33312625  0.61424789  0.58948115  1
  Si  Si55  1  0.46992135  0.61133676  0.08811100  1
  Si  Si56  1  0.83345245  0.05139749  0.08862693  1
  Si  Si57  1  0.19269913  0.33608572  0.08727399  1
  Si  Si58  1  0.69138639  0.33366258  0.08525140  1
  Si  Si59  1  0.31309513  0.67131127  0.91463742  1
  Si  Si60  1  0.01939933  0.36318909  0.91276180  1
  Si  Si61  1  0.52263364  0.38270041  0.91814739  1
  Si  Si62  1  0.15937786  0.95740186  0.91788150  1
  Si  Si63  1  0.66422576  0.94970421  0.91621724  1
  Si  Si64  1  0.81101911  0.95068004  0.41706318  1
  Si  Si65  1  0.16801019  0.37700920  0.41705847  1
  Si  Si66  1  0.65992167  0.36108403  0.41813426  1
  Si  Si67  1  0.02238840  0.66017060  0.41864488  1
  Si  Si68  1  0.51799195  0.67493662  0.41286152  1
  S  S69  1  0.64599942  0.00385843  0.25019154  1
  S  S70  1  0.99628935  0.28666773  0.24935123  1
  S  S71  1  0.14522115  0.28745102  0.75094662  1
  S  S72  1  0.49531140  0.70749500  0.74972475  1
  S  S73  1  0.83152876  0.61632813  0.58445790  1
  S  S74  1  0.97634179  0.61813569  0.08445732  1
  S  S75  1  0.33106588  0.04590766  0.08472511  1
  S  S76  1  0.81215646  0.67034786  0.91692158  1
  S  S77  1  0.31264735  0.95462216  0.41660130  1
  O  O78  1  0.09877238  0.03370847  0.30577885  1
  O  O79  1  0.60716847  0.03493374  0.30233032  1
  O  O80  1  0.42249982  0.81153449  0.30774279  1
  O  O81  1  0.91661605  0.80258505  0.30567279  1
  O  O82  1  0.48429337  0.15738912  0.30697862  1
  O  O83  1  0.98436356  0.18251541  0.30267589  1
  O  O84  1  0.10471151  0.17794898  0.80329481  1
  O  O85  1  0.60009303  0.16609014  0.80676171  1
  O  O86  1  0.48672885  0.79124717  0.80426099  1
  O  O87  1  0.98448918  0.81090799  0.80772926  1
  O  O88  1  0.41610686  0.02847499  0.80639753  1
  O  O89  1  0.92227003  0.03462592  0.80839570  1
  O  O90  1  0.40167833  0.96897563  0.69245951  1
  O  O91  1  0.90237648  0.96364133  0.69413837  1
  O  O92  1  0.08874032  0.20913800  0.69674599  1
  O  O93  1  0.58169695  0.19373702  0.69304646  1
  O  O94  1  0.01989915  0.84101677  0.69406027  1
  O  O95  1  0.51496198  0.81786526  0.69713844  1
  O  O96  1  0.40255425  0.84049418  0.19377097  1
  O  O97  1  0.90222986  0.83137806  0.19158845  1
  O  O98  1  0.01415594  0.20914535  0.19605399  1
  O  O99  1  0.51963392  0.19860971  0.19363164  1
  O  O100  1  0.08166156  0.97001051  0.19262156  1
  O  O101  1  0.58960881  0.97035951  0.19591827  1
  O  O102  1  0.43529022  0.36968315  0.64269461  1
  O  O103  1  0.93138401  0.36576112  0.64662368  1
  O  O104  1  0.24507443  0.12803342  0.64546358  1
  O  O105  1  0.75379970  0.14517102  0.64294796  1
  O  O106  1  0.31661905  0.48967285  0.64488677  1
  O  O107  1  0.82125232  0.51877582  0.63893539  1
  O  O108  1  0.43077678  0.49629129  0.14622556  1
  O  O109  1  0.93656904  0.51281216  0.13776600  1
  O  O110  1  0.31986410  0.12086350  0.13852053  1
  O  O111  1  0.82213305  0.15171264  0.14375973  1
  O  O112  1  0.25284477  0.36304505  0.14277768  1
  O  O113  1  0.74736884  0.36375623  0.14456241  1
  O  O114  1  0.23353552  0.30254488  0.02631061  1
  O  O115  1  0.73969796  0.30950485  0.02674227  1
  O  O116  1  0.41483516  0.52467388  0.02709722  1
  O  O117  1  0.92414501  0.54256080  0.03051253  1
  O  O118  1  0.34674468  0.15111160  0.03064762  1
  O  O119  1  0.84990697  0.16918191  0.02735466  1
  O  O120  1  0.23546828  0.16859313  0.52574637  1
  O  O121  1  0.73418961  0.16745346  0.52662301  1
  O  O122  1  0.34935013  0.53355967  0.52734456  1
  O  O123  1  0.84789386  0.54225858  0.53085523  1
  O  O124  1  0.41683810  0.30332586  0.52489802  1
  O  O125  1  0.91524318  0.30518543  0.52692344  1
  O  O126  1  0.26669333  0.69848676  0.97369029  1
  O  O127  1  0.77050402  0.69534670  0.96948356  1
  O  O128  1  0.08207356  0.46605956  0.97192027  1
  O  O129  1  0.58591155  0.47260376  0.97463531  1
  O  O130  1  0.15028810  0.83146993  0.97505199  1
  O  O131  1  0.65491092  0.83369270  0.97399051  1
  O  O132  1  0.27062661  0.84508301  0.46882567  1
  O  O133  1  0.76663345  0.83172639  0.47470723  1
  O  O134  1  0.15425948  0.47586496  0.47309712  1
  O  O135  1  0.65070501  0.46916911  0.47374300  1
  O  O136  1  0.08645477  0.69984353  0.47439490  1
  O  O137  1  0.58105942  0.69945299  0.47118513  1
  O  O138  1  0.06906835  0.63771045  0.35902378  1
  O  O139  1  0.56720118  0.63957930  0.35579983  1
  O  O140  1  0.25643981  0.87191524  0.36123148  1
  O  O141  1  0.75006051  0.86562607  0.35804346  1
  O  O142  1  0.18184467  0.50093046  0.35850813  1
  O  O143  1  0.68227008  0.49232572  0.35850132  1
  O  O144  1  0.06657834  0.49501086  0.85637897  1
  O  O145  1  0.56940836  0.50170328  0.85966937  1
  O  O146  1  0.18173647  0.86946674  0.85958035  1
  O  O147  1  0.68297831  0.86310367  0.85836638  1
  O  O148  1  0.24908977  0.63276366  0.85834986  1
  O  O149  1  0.75704661  0.63671027  0.86220476  1
  O  O150  1  0.01383508  0.83621201  0.41082412  1
  O  O151  1  0.51010334  0.84591022  0.40563202  1
  O  O152  1  0.39805525  0.97056939  0.40888520  1
  O  O153  1  0.90800990  0.97877352  0.40673380  1
  O  O154  1  0.07938872  0.18917829  0.40718509  1
  O  O155  1  0.57560193  0.17640545  0.40515854  1
  O  O156  1  0.00938251  0.17439132  0.90684553  1
  O  O157  1  0.51371897  0.18998281  0.91082309  1
  O  O158  1  0.07504754  0.97437767  0.90629701  1
  O  O159  1  0.57931725  0.97089786  0.90856843  1
  O  O160  1  0.40896817  0.83882665  0.90841766  1
  O  O161  1  0.89872790  0.82522329  0.90987069  1
  O  O162  1  0.48711556  0.16450128  0.58793478  1
  O  O163  1  0.98660993  0.16048111  0.59323329  1
  O  O164  1  0.09239228  0.02430169  0.59171518  1
  O  O165  1  0.59371445  0.01951351  0.59307292  1
  O  O166  1  0.41967943  0.80860196  0.59313979  1
  O  O167  1  0.91328761  0.79828968  0.58902952  1
  O  O168  1  0.48689511  0.81314690  0.09299258  1
  O  O169  1  0.98595471  0.79691000  0.08959407  1
  O  O170  1  0.41172511  0.02491052  0.08873356  1
  O  O171  1  0.91981688  0.02754541  0.09270090  1
  O  O172  1  0.09274878  0.16413697  0.09278668  1
  O  O173  1  0.59304652  0.16031597  0.09105828  1
  O  O174  1  0.34024138  0.17817970  0.74221804  1
  O  O175  1  0.84883990  0.17405753  0.74527025  1
  O  O176  1  0.23239975  0.30817928  0.74426473  1
  O  O177  1  0.74692014  0.32413515  0.74013613  1
  O  O178  1  0.41995740  0.53256296  0.74500829  1
  O  O179  1  0.91264928  0.51911318  0.74212239  1
  O  O180  1  0.34875997  0.52385487  0.24493749  1
  O  O181  1  0.84291182  0.50392467  0.23976824  1
  O  O182  1  0.41244972  0.30564570  0.24135049  1
  O  O183  1  0.92071207  0.31056413  0.24101033  1
  O  O184  1  0.24599373  0.16857096  0.23905404  1
  O  O185  1  0.73397281  0.16023951  0.24239544  1
  O  O186  1  0.31964414  0.49491569  0.92196162  1
  O  O187  1  0.82097503  0.51082794  0.92361529  1
  O  O188  1  0.42542981  0.35449329  0.92550520  1
  O  O189  1  0.92831217  0.36669882  0.92568290  1
  O  O190  1  0.25145236  0.14171864  0.92604718  1
  O  O191  1  0.75135776  0.14672049  0.92251578  1
  O  O192  1  0.31863167  0.12767459  0.42038291  1
  O  O193  1  0.82003667  0.14379241  0.42175853  1
  O  O194  1  0.25267735  0.35246233  0.42174652  1
  O  O195  1  0.75203889  0.35998826  0.42479025  1
  O  O196  1  0.42614501  0.49094073  0.42206542  1
  O  O197  1  0.92512529  0.49528362  0.42459141  1
  O  O198  1  0.17788423  0.50820757  0.07689255  1
  O  O199  1  0.68116520  0.50611549  0.07535215  1
  O  O200  1  0.06580248  0.64169982  0.07899625  1
  O  O201  1  0.57021354  0.64165670  0.07794477  1
  O  O202  1  0.25344651  0.86590110  0.07768816  1
  O  O203  1  0.74992505  0.85712118  0.07594316  1
  O  O204  1  0.18042704  0.85556330  0.57492248  1
  O  O205  1  0.68212260  0.85426005  0.57632372  1
  O  O206  1  0.24977334  0.64363123  0.57550108  1
  O  O207  1  0.75557023  0.64225256  0.57803522  1
  O  O208  1  0.07015157  0.49844629  0.57819734  1
  O  O209  1  0.57632832  0.50612037  0.57664777  1
  O  O210  1  0.15647764  0.83050414  0.25817721  1
  O  O211  1  0.65216694  0.84086673  0.25411581  1
  O  O212  1  0.26106666  0.70012563  0.25765897  1
  O  O213  1  0.75825028  0.68196593  0.25558511  1
  O  O214  1  0.07838680  0.46448287  0.25478641  1
  O  O215  1  0.58574586  0.48397427  0.25585210  1
  O  O216  1  0.15044031  0.46289965  0.75533960  1
  O  O217  1  0.65687381  0.48067669  0.75963586  1
  O  O218  1  0.08546492  0.68820339  0.75660351  1
  O  O219  1  0.57822049  0.69141323  0.75661999  1
  O  O220  1  0.25868616  0.83295172  0.75702010  1
  O  O221  1  0.76163270  0.82253801  0.75882626  1
