# generated using pymatgen
data_Na2TaAlSi2SO12
_symmetry_space_group_name_H-M   'P 1'
_cell_length_a   8.80532906
_cell_length_b   8.80532877
_cell_length_c   22.25869611
_cell_angle_alpha   88.30532660
_cell_angle_beta   91.69467337
_cell_angle_gamma   119.57530308
_symmetry_Int_Tables_number   1
_chemical_formula_structural   Na2TaAlSi2SO12
_chemical_formula_sum   'Na12 Ta6 Al6 Si12 S6 O72'
_cell_volume   1500.06395116
_cell_formula_units_Z   6
loop_
 _symmetry_equiv_pos_site_id
 _symmetry_equiv_pos_as_xyz
  1  'x, y, z'
loop_
 _atom_site_type_symbol
 _atom_site_label
 _atom_site_symmetry_multiplicity
 _atom_site_fract_x
 _atom_site_fract_y
 _atom_site_fract_z
 _atom_site_occupancy
  Na  Na0  1  0.98856385  0.62509931  0.25004684  1
  Na  Na1  1  0.37490069  0.01143615  0.75004684  1
  Na  Na2  1  0.65523085  0.95843231  0.58337984  1
  Na  Na3  1  0.04156769  0.34476915  0.08337984  1
  Na  Na4  1  0.32189685  0.29176631  0.91671384  1
  Na  Na5  1  0.70823369  0.67810315  0.41671384  1
  Na  Na6  1  0.01190109  0.99364184  0.49481430  1
  Na  Na7  1  0.00635816  0.98809891  0.99481430  1
  Na  Na8  1  0.67856809  0.32697484  0.82814730  1
  Na  Na9  1  0.67302516  0.32143191  0.32814730  1
  Na  Na10  1  0.34523409  0.66030884  0.16148130  1
  Na  Na11  1  0.33969116  0.65476591  0.66148130  1
  Ta  Ta12  1  0.99800271  0.00031538  0.64530289  1
  Ta  Ta13  1  -0.00031538  0.00199729  0.14530289  1
  Ta  Ta14  1  0.66466971  0.33364838  0.97863589  1
  Ta  Ta15  1  0.66635162  0.33533029  0.47863589  1
  Ta  Ta16  1  0.33133571  0.66698238  0.31196989  1
  Ta  Ta17  1  0.33301762  0.66866429  0.81196989  1
  Al  Al18  1  0.96847827  0.98365594  0.35394097  1
  Al  Al19  1  0.01634406  0.03152173  0.85394097  1
  Al  Al20  1  0.63514527  0.31698894  0.68727397  1
  Al  Al21  1  0.68301106  0.36485473  0.18727397  1
  Al  Al22  1  0.30181127  0.65032294  0.02060797  1
  Al  Al23  1  0.34967706  0.69818873  0.52060797  1
  Si  Si24  1  0.70807710  0.70749252  0.25196857  1
  Si  Si25  1  0.98667540  0.27793508  0.25151173  1
  Si  Si26  1  0.29250748  0.29192290  0.75196857  1
  Si  Si27  1  0.72206492  0.01332460  0.75151173  1
  Si  Si28  1  0.37474410  0.04082552  0.58530157  1
  Si  Si29  1  0.65334240  0.61126808  0.58484473  1
  Si  Si30  1  0.95917448  0.62525590  0.08530157  1
  Si  Si31  1  0.38873192  0.34665760  0.08484473  1
  Si  Si32  1  0.04141010  0.37415952  0.91863557  1
  Si  Si33  1  0.32000840  0.94460208  0.91817873  1
  Si  Si34  1  0.62584048  0.95858990  0.41863557  1
  Si  Si35  1  0.05539792  0.67999160  0.41817873  1
  S  S36  1  0.29404509  0.01038415  0.25207393  1
  S  S37  1  0.98961585  0.70595491  0.75207393  1
  S  S38  1  0.96071209  0.34371715  0.58540693  1
  S  S39  1  0.65628285  0.03928791  0.08540693  1
  S  S40  1  0.62737809  0.67705115  0.91874093  1
  S  S41  1  0.32294885  0.37262191  0.41874093  1
  O  O42  1  0.21095238  0.02771688  0.30479424  1
  O  O43  1  0.83033180  0.79113266  0.31084604  1
  O  O44  1  0.97754045  0.15866139  0.30844183  1
  O  O45  1  0.20886734  0.16966820  0.81084604  1
  O  O46  1  0.97228312  0.78904762  0.80479424  1
  O  O47  1  0.84133861  0.02245955  0.80844183  1
  O  O48  1  0.79988331  0.97329497  0.68994423  1
  O  O49  1  0.16387678  0.19040912  0.69324661  1
  O  O50  1  0.02605935  0.82136338  0.69647016  1
  O  O51  1  0.80959088  0.83612322  0.19324661  1
  O  O52  1  0.02670503  0.20011669  0.18994423  1
  O  O53  1  0.17863662  0.97394065  0.19647016  1
  O  O54  1  0.87761938  0.36104988  0.63812724  1
  O  O55  1  0.49699880  0.12446566  0.64417904  1
  O  O56  1  0.64420745  0.49199439  0.64177483  1
  O  O57  1  0.87553434  0.50300120  0.14417904  1
  O  O58  1  0.63895012  0.12238062  0.13812724  1
  O  O59  1  0.50800561  0.35579255  0.14177483  1
  O  O60  1  0.46655031  0.30662797  0.02327723  1
  O  O61  1  0.83054378  0.52374212  0.02657961  1
  O  O62  1  0.69272635  0.15469638  0.02980316  1
  O  O63  1  0.47625788  0.16945622  0.52657961  1
  O  O64  1  0.69337203  0.53344969  0.52327723  1
  O  O65  1  0.84530362  0.30727365  0.52980316  1
  O  O66  1  0.54428538  0.69438388  0.97146124  1
  O  O67  1  0.16366480  0.45779966  0.97751304  1
  O  O68  1  0.31087345  0.82532839  0.97510883  1
  O  O69  1  0.54220034  0.83633520  0.47751304  1
  O  O70  1  0.30561612  0.45571462  0.47146124  1
  O  O71  1  0.17467161  0.68912655  0.47510883  1
  O  O72  1  0.13321631  0.63996197  0.35661123  1
  O  O73  1  0.49720978  0.85707612  0.35991361  1
  O  O74  1  0.35939235  0.48803038  0.36313716  1
  O  O75  1  0.14292388  0.50279022  0.85991361  1
  O  O76  1  0.36003803  0.86678369  0.85661123  1
  O  O77  1  0.51196962  0.64060765  0.86313716  1
  O  O78  1  0.02986123  0.85037989  0.40812625  1
  O  O79  1  0.81582585  0.97562295  0.40994436  1
  O  O80  1  0.17763490  0.19786473  0.40952824  1
  O  O81  1  0.02437705  0.18417415  0.90994436  1
  O  O82  1  0.14962011  0.97013877  0.90812625  1
  O  O83  1  0.80213527  0.82236510  0.90952824  1
  O  O84  1  0.96731585  0.17351624  0.58785262  1
  O  O85  1  0.18118827  0.02471170  0.58996936  1
  O  O86  1  0.82653317  0.81424872  0.59117682  1
  O  O87  1  0.97528830  0.81881173  0.08996936  1
  O  O88  1  0.82648376  0.03268415  0.08785262  1
  O  O89  1  0.18575128  0.17346683  0.09117682  1
  O  O90  1  0.69652823  0.18371289  0.74145925  1
  O  O91  1  0.48249285  0.30895595  0.74327736  1
  O  O92  1  0.84430190  0.53119773  0.74286124  1
  O  O93  1  0.69104405  0.51750715  0.24327736  1
  O  O94  1  0.81628711  0.30347177  0.24145925  1
  O  O95  1  0.46880227  0.15569810  0.24286124  1
  O  O96  1  0.63398285  0.50684924  0.92118562  1
  O  O97  1  0.84785527  0.35804470  0.92330236  1
  O  O98  1  0.49320017  0.14758172  0.92450982  1
  O  O99  1  0.64195530  0.15214473  0.42330236  1
  O  O100  1  0.49315076  0.36601715  0.42118562  1
  O  O101  1  0.85241828  0.50679983  0.42450982  1
  O  O102  1  0.36319423  0.51704689  0.07479325  1
  O  O103  1  0.14915885  0.64228995  0.07661136  1
  O  O104  1  0.51096790  0.86453173  0.07619524  1
  O  O105  1  0.35771005  0.85084115  0.57661136  1
  O  O106  1  0.48295311  0.63680577  0.57479325  1
  O  O107  1  0.13546827  0.48903210  0.57619524  1
  O  O108  1  0.30064885  0.84018324  0.25451962  1
  O  O109  1  0.51452127  0.69137870  0.25663636  1
  O  O110  1  0.15986617  0.48091572  0.25784382  1
  O  O111  1  0.30862130  0.48547873  0.75663636  1
  O  O112  1  0.15981676  0.69935115  0.75451962  1
  O  O113  1  0.51908428  0.84013383  0.75784382  1
