# generated using pymatgen
data_Na6Nb4In4Si7S5O48
_symmetry_space_group_name_H-M   'P 1'
_cell_length_a   18.08015637
_cell_length_b   9.00202246
_cell_length_c   22.88361043
_cell_angle_alpha   90.03866069
_cell_angle_beta   90.02740820
_cell_angle_gamma   119.81844936
_symmetry_Int_Tables_number   1
_chemical_formula_structural   Na6Nb4In4Si7S5O48
_chemical_formula_sum   'Na18 Nb12 In12 Si21 S15 O144'
_cell_volume   3231.38546679
_cell_formula_units_Z   3
loop_
 _symmetry_equiv_pos_site_id
 _symmetry_equiv_pos_as_xyz
  1  'x, y, z'
loop_
 _atom_site_type_symbol
 _atom_site_label
 _atom_site_symmetry_multiplicity
 _atom_site_fract_x
 _atom_site_fract_y
 _atom_site_fract_z
 _atom_site_occupancy
  Na  Na0  1  0.00075213  0.61633338  0.25438774  1
  Na  Na1  1  0.49908318  0.63445450  0.26266513  1
  Na  Na2  1  0.99851364  0.36777701  0.75291094  1
  Na  Na3  1  0.50144241  0.38534910  0.74920749  1
  Na  Na4  1  0.33142240  0.97575561  0.57789250  1
  Na  Na5  1  0.83014312  0.68478618  0.08204340  1
  Na  Na6  1  0.00187548  0.97344733  0.50165786  1
  Na  Na7  1  0.50288596  0.01061798  0.49725740  1
  Na  Na8  1  0.99522723  0.99171861  0.99938045  1
  Na  Na9  1  0.50384315  0.03204466  0.00456451  1
  Na  Na10  1  0.32683282  0.35929933  0.82497301  1
  Na  Na11  1  0.82923447  0.33534027  0.83389578  1
  Na  Na12  1  0.33074047  0.32707175  0.33644420  1
  Na  Na13  1  0.82288140  0.29262740  0.32712489  1
  Na  Na14  1  0.17155897  0.65463035  0.17655151  1
  Na  Na15  1  0.66853693  0.66414089  0.16902710  1
  Na  Na16  1  0.16754064  0.67042505  0.66268759  1
  Na  Na17  1  0.67179661  0.68959105  0.66837418  1
  Nb  Nb18  1  0.99328197  0.00929032  0.35703334  1
  Nb  Nb19  1  0.50147581  0.98284606  0.35846967  1
  Nb  Nb20  1  0.99575460  0.01834131  0.85355068  1
  Nb  Nb21  1  0.49430839  0.97800917  0.85706117  1
  Nb  Nb22  1  0.99920690  0.00267208  0.64269799  1
  Nb  Nb23  1  0.49984277  0.99879953  0.14566848  1
  Nb  Nb24  1  0.34215195  0.33047430  0.97698332  1
  Nb  Nb25  1  0.83449824  0.35290473  0.98297681  1
  Nb  Nb26  1  0.33499682  0.31476050  0.48357224  1
  Nb  Nb27  1  0.83558934  0.35466620  0.47356726  1
  Nb  Nb28  1  0.16746455  0.66805933  0.02085357  1
  Nb  Nb29  1  0.66569713  0.65002137  0.51686872  1
  In  In30  1  0.50351280  0.99570874  0.64343663  1
  In  In31  1  0.00198859  0.00829496  0.14580312  1
  In  In32  1  0.33493386  0.34589233  0.68718831  1
  In  In33  1  0.82637325  0.32632053  0.68432678  1
  In  In34  1  0.32770232  0.32594025  0.18747321  1
  In  In35  1  0.83532235  0.32578699  0.18835712  1
  In  In36  1  0.66957092  0.64772725  0.01121917  1
  In  In37  1  0.16693450  0.68861012  0.51104214  1
  In  In38  1  0.17041326  0.66343068  0.31446442  1
  In  In39  1  0.66683552  0.68446533  0.32118603  1
  In  In40  1  0.16501282  0.64223727  0.81739762  1
  In  In41  1  0.66979640  0.67527972  0.81323974  1
  Si  Si42  1  0.64684561  -0.00074148  0.25006965  1
  Si  Si43  1  0.35455828  0.70762110  0.24893127  1
  Si  Si44  1  0.00340507  0.29817498  0.24696603  1
  Si  Si45  1  0.14650969  0.28888477  0.74873309  1
  Si  Si46  1  0.50313636  0.70836056  0.74682123  1
  Si  Si47  1  0.85150102  0.00184367  0.74633550  1
  Si  Si48  1  0.48369902  0.33567253  0.59044212  1
  Si  Si49  1  0.18875576  0.04022489  0.58794444  1
  Si  Si50  1  0.83034676  0.62100095  0.58685441  1
  Si  Si51  1  0.98248691  0.63296266  0.08911695  1
  Si  Si52  1  0.33205640  0.04143569  0.08667203  1
  Si  Si53  1  0.68837589  0.33535491  0.08756757  1
  Si  Si54  1  0.31027516  0.65848510  0.91813448  1
  Si  Si55  1  0.81649696  0.67269247  0.91604559  1
  Si  Si56  1  0.01738950  0.37821790  0.91628615  1
  Si  Si57  1  0.52295263  0.37139950  0.91062141  1
  Si  Si58  1  0.31394467  0.95588621  0.41607191  1
  Si  Si59  1  0.80960602  0.96277331  0.41897582  1
  Si  Si60  1  0.66511810  0.37583213  0.41106585  1
  Si  Si61  1  0.02170097  0.67209637  0.41033454  1
  Si  Si62  1  0.51653342  0.65439075  0.41735950  1
  S  S63  1  0.14431363  0.00403051  0.25096942  1
  S  S64  1  0.85281899  0.71385762  0.25077699  1
  S  S65  1  0.50127117  0.28533156  0.24908494  1
  S  S66  1  0.64383137  0.28248994  0.75188244  1
  S  S67  1  0.00269104  0.72018095  0.75011808  1
  S  S68  1  0.35214706  0.99114816  0.75270875  1
  S  S69  1  0.98239493  0.33716416  0.58344218  1
  S  S70  1  0.68878969  0.03866961  0.57982847  1
  S  S71  1  0.32875807  0.62478511  0.58067967  1
  S  S72  1  0.48150781  0.62766462  0.08229898  1
  S  S73  1  0.82927431  0.03383684  0.08019444  1
  S  S74  1  0.18798931  0.33501162  0.08008828  1
  S  S75  1  0.16755689  0.96045947  0.91736491  1
  S  S76  1  0.66742335  0.96809222  0.91821940  1
  S  S77  1  0.16731622  0.36548558  0.41829616  1
  O  O78  1  0.09399328  0.00858677  0.30152020  1
  O  O79  1  0.59278939  0.00354643  0.30797088  1
  O  O80  1  0.41693257  0.80566772  0.30563058  1
  O  O81  1  0.90714129  0.82056971  0.30165903  1
  O  O82  1  0.49537829  0.18522777  0.30042321  1
  O  O83  1  0.99847189  0.17937787  0.30609992  1
  O  O84  1  0.09264192  0.17622462  0.80787140  1
  O  O85  1  0.59389544  0.17753095  0.80305574  1
  O  O86  1  0.49827017  0.81601463  0.80711804  1
  O  O87  1  0.99570696  0.80953689  0.80240702  1
  O  O88  1  0.40635717  0.99227337  0.80396875  1
  O  O89  1  0.91350171  0.02796615  0.80610511  1
  O  O90  1  0.38879171  0.97429614  0.69740848  1
  O  O91  1  0.90751127  0.99116613  0.69096855  1
  O  O92  1  0.08355372  0.17730356  0.69306974  1
  O  O93  1  0.59797084  0.20723054  0.69666299  1
  O  O94  1  0.00509336  0.81136021  0.69534985  1
  O  O95  1  0.51043079  0.81586287  0.68892162  1
  O  O96  1  0.40685509  0.82498180  0.19007710  1
  O  O97  1  0.89186263  0.80097701  0.19473830  1
  O  O98  1  0.01213302  0.21102880  0.18752620  1
  O  O99  1  0.50293730  0.19565082  0.19338117  1
  O  O100  1  0.10007980  0.99095152  0.19490102  1
  O  O101  1  0.58372603  0.98721378  0.19292488  1
  O  O102  1  0.44835537  0.36283165  0.65151417  1
  O  O103  1  0.94706808  0.35624256  0.64005882  1
  O  O104  1  0.25301332  0.12736679  0.64174578  1
  O  O105  1  0.73114433  0.10212320  0.63764999  1
  O  O106  1  0.32395514  0.54155295  0.63692808  1
  O  O107  1  0.81248610  0.51139435  0.64609262  1
  O  O108  1  0.44340364  0.53031165  0.13658419  1
  O  O109  1  0.95062220  0.53251520  0.14967704  1
  O  O110  1  0.31085935  0.11653116  0.14373676  1
  O  O111  1  0.82500565  0.10917835  0.13599784  1
  O  O112  1  0.23219709  0.35963812  0.13613303  1
  O  O113  1  0.75523808  0.37991379  0.13997668  1
  O  O114  1  0.23828067  0.32682043  0.03039735  1
  O  O115  1  0.73579523  0.31368366  0.02720965  1
  O  O116  1  0.42631404  0.53237526  0.03037861  1
  O  O117  1  0.91374283  0.52222006  0.03428220  1
  O  O118  1  0.34376391  0.16710170  0.02928542  1
  O  O119  1  0.83615834  0.14243618  0.02930448  1
  O  O120  1  0.23520687  0.15715951  0.52836096  1
  O  O121  1  0.74062997  0.15334079  0.53246619  1
  O  O122  1  0.33545774  0.52868375  0.53033184  1
  O  O123  1  0.84458758  0.52207406  0.53054253  1
  O  O124  1  0.41373649  0.30655662  0.53598743  1
  O  O125  1  0.92809883  0.32062238  0.53348826  1
  O  O126  1  0.26375560  0.69639520  0.97270239  1
  O  O127  1  0.79034236  0.72121801  0.97806463  1
  O  O128  1  0.08634952  0.48904405  0.96824805  1
  O  O129  1  0.57373313  0.44117216  0.97069346  1
  O  O130  1  0.15781992  0.85549489  0.96990436  1
  O  O131  1  0.64981954  0.85966892  0.96992986  1
  O  O132  1  0.28697796  0.85663853  0.47831772  1
  O  O133  1  0.76330421  0.82828202  0.47220019  1
  O  O134  1  0.14974919  0.43943951  0.47001035  1
  O  O135  1  0.65284048  0.46448880  0.47096986  1
  O  O136  1  0.07413973  0.71175369  0.47018642  1
  O  O137  1  0.58407015  0.68217373  0.46954036  1
  O  O138  1  0.05505613  0.62629903  0.35230316  1
  O  O139  1  0.54309172  0.61166919  0.35473772  1
  O  O140  1  0.24948313  0.87509807  0.36288937  1
  O  O141  1  0.75971865  0.91037395  0.35809322  1
  O  O142  1  0.18103719  0.46316338  0.36430962  1
  O  O143  1  0.68829357  0.49682172  0.35561994  1
  O  O144  1  0.04461972  0.47730192  0.85402858  1
  O  O145  1  0.55461922  0.48319309  0.85257535  1
  O  O146  1  0.18490257  0.89009525  0.86448302  1
  O  O147  1  0.68087390  0.89702808  0.86424503  1
  O  O148  1  0.25926424  0.61872003  0.85796758  1
  O  O149  1  0.75326382  0.63318336  0.86253229  1
  O  O150  1  0.00546023  0.83666382  0.40032231  1
  O  O151  1  0.50971992  0.83204816  0.41462673  1
  O  O152  1  0.41049894  0.99020139  0.40246364  1
  O  O153  1  0.90813812  0.98722284  0.41032766  1
  O  O154  1  0.09012964  0.18677103  0.41134692  1
  O  O155  1  0.58120760  0.18627277  0.40582557  1
  O  O156  1  0.01257675  0.18745909  0.91240570  1
  O  O157  1  0.50508683  0.17377374  0.90214843  1
  O  O158  1  0.09085329  0.97715815  0.91292219  1
  O  O159  1  0.59054650  0.99363137  0.91148422  1
  O  O160  1  0.40872718  0.82662738  0.91109351  1
  O  O161  1  0.91578098  0.82990944  0.90319418  1
  O  O162  1  0.48366183  0.15252489  0.58681051  1
  O  O163  1  0.98560828  0.17053086  0.58528953  1
  O  O164  1  0.09320637  0.02434514  0.59284150  1
  O  O165  1  0.60410175  0.02904604  0.57818800  1
  O  O166  1  0.40538773  0.80091853  0.57896641  1
  O  O167  1  0.91911238  0.81023836  0.59195149  1
  O  O168  1  0.48208340  0.79534394  0.08328537  1
  O  O169  1  0.98390410  0.81683349  0.08592137  1
  O  O170  1  0.41881138  0.02663154  0.09023533  1
  O  O171  1  0.90580947  0.01027318  0.07834229  1
  O  O172  1  0.10304044  0.18032206  0.07818961  1
  O  O173  1  0.59368339  0.15989277  0.09197205  1
  O  O174  1  0.35416277  0.15649037  0.75719590  1
  O  O175  1  0.85326795  0.18642837  0.74554688  1
  O  O176  1  0.23765438  0.30264974  0.74872786  1
  O  O177  1  0.72819238  0.29118825  0.75399587  1
  O  O178  1  0.41629274  0.52338504  0.75138154  1
  O  O179  1  0.92750727  0.54352473  0.74959067  1
  O  O180  1  0.35505189  0.52420088  0.24531103  1
  O  O181  1  0.85374226  0.55123335  0.25537946  1
  O  O182  1  0.42458292  0.30790229  0.24742330  1
  O  O183  1  0.91655044  0.31020179  0.25156673  1
  O  O184  1  0.22880575  0.16443518  0.25357547  1
  O  O185  1  0.73721984  0.16984756  0.24777077  1
  O  O186  1  0.32521819  0.49618166  0.93284488  1
  O  O187  1  0.82797665  0.49898766  0.92499775  1
  O  O188  1  0.42228284  0.33905497  0.92458027  1
  O  O189  1  0.92104459  0.33623640  0.93300071  1
  O  O190  1  0.24329902  0.13772825  0.92677626  1
  O  O191  1  0.74228558  0.14199836  0.92544656  1
  O  O192  1  0.32746356  0.15459578  0.42622046  1
  O  O193  1  0.83008221  0.15631842  0.43571526  1
  O  O194  1  0.24196401  0.34082103  0.42581428  1
  O  O195  1  0.74626770  0.34358943  0.42719296  1
  O  O196  1  0.42004500  0.50042952  0.43382479  1
  O  O197  1  0.92253685  0.50808052  0.42345820  1
  O  O198  1  0.17711139  0.49072731  0.07405294  1
  O  O199  1  0.67897285  0.50627360  0.08156411  1
  O  O200  1  0.07604641  0.65651458  0.06964825  1
  O  O201  1  0.56771578  0.65657139  0.07510209  1
  O  O202  1  0.24954048  0.85154622  0.07170140  1
  O  O203  1  0.75133399  0.86246165  0.07621116  1
  O  O204  1  0.17863418  0.85025206  0.58198501  1
  O  O205  1  0.67707627  0.86432497  0.57363288  1
  O  O206  1  0.25110370  0.64132503  0.57666649  1
  O  O207  1  0.74963250  0.65110764  0.57461284  1
  O  O208  1  0.07033004  0.47962649  0.57764659  1
  O  O209  1  0.57648615  0.50101169  0.57461399  1
  O  O210  1  0.15345661  0.85041393  0.25289013  1
  O  O211  1  0.64422139  0.81442037  0.24881054  1
  O  O212  1  0.26293121  0.69159490  0.25074586  1
  O  O213  1  0.76717188  0.69307937  0.25366060  1
  O  O214  1  0.08614117  0.48827781  0.25094837  1
  O  O215  1  0.57868546  0.45625589  0.24742391  1
  O  O216  1  0.14319063  0.46840601  0.74736258  1
  O  O217  1  0.65289754  0.45443581  0.75460076  1
  O  O218  1  0.08197281  0.70851141  0.75177126  1
  O  O219  1  0.58602414  0.68362646  0.75022501  1
  O  O220  1  0.26482369  0.84415292  0.75815476  1
  O  O221  1  0.76150616  0.83293574  0.74991408  1
