# generated using pymatgen
data_Na6Ca7Ti(SO4)12
_symmetry_space_group_name_H-M   'P 1'
_cell_length_a   18.36338009
_cell_length_b   9.17535103
_cell_length_c   23.75560106
_cell_angle_alpha   90.11435040
_cell_angle_beta   89.92156609
_cell_angle_gamma   120.04335464
_symmetry_Int_Tables_number   1
_chemical_formula_structural   Na6Ca7Ti(SO4)12
_chemical_formula_sum   'Na18 Ca21 Ti3 S36 O144'
_cell_volume   3464.82390079
_cell_formula_units_Z   3
loop_
 _symmetry_equiv_pos_site_id
 _symmetry_equiv_pos_as_xyz
  1  'x, y, z'
loop_
 _atom_site_type_symbol
 _atom_site_label
 _atom_site_symmetry_multiplicity
 _atom_site_fract_x
 _atom_site_fract_y
 _atom_site_fract_z
 _atom_site_occupancy
  Na  Na0  1  0.32067822  0.63774721  0.74774325  1
  Na  Na1  1  0.65504245  0.33465219  0.58491066  1
  Na  Na2  1  0.98845090  0.66866349  0.92116608  1
  Na  Na3  1  0.66560642  0.30728756  0.91612543  1
  Na  Na4  1  0.16563984  0.02531652  0.41833745  1
  Na  Na5  1  0.66689761  0.02774480  0.41940714  1
  Na  Na6  1  0.99043034  0.00453528  0.49780494  1
  Na  Na7  1  0.47669768  0.97408875  0.50245922  1
  Na  Na8  1  0.00462325  0.02643072  0.00140077  1
  Na  Na9  1  0.48541090  0.97453695  0.99615268  1
  Na  Na10  1  0.34130959  0.31873523  0.84100184  1
  Na  Na11  1  0.82579418  0.30509211  0.83122605  1
  Na  Na12  1  0.34491267  0.35633304  0.33791123  1
  Na  Na13  1  0.84448593  0.35527570  0.33719108  1
  Na  Na14  1  0.16734875  0.66754459  0.16438428  1
  Na  Na15  1  0.66545424  0.66641351  0.16471760  1
  Na  Na16  1  0.16240535  0.67209854  0.66238764  1
  Na  Na17  1  0.66080744  0.67883011  0.67011892  1
  Ca  Ca18  1  0.99539358  0.00057035  0.34976055  1
  Ca  Ca19  1  0.49512407  0.00231124  0.35093300  1
  Ca  Ca20  1  0.00238218  0.01331132  0.85115291  1
  Ca  Ca21  1  0.49628079  0.99512213  0.84905100  1
  Ca  Ca22  1  0.49903789  0.99534284  0.65190998  1
  Ca  Ca23  1  0.33702875  0.32620685  0.67996097  1
  Ca  Ca24  1  0.83231362  0.33160100  0.68454248  1
  Ca  Ca25  1  0.33273958  0.33204000  0.18258428  1
  Ca  Ca26  1  0.83221963  0.33175716  0.18206014  1
  Ca  Ca27  1  0.33366979  0.33538862  0.98850120  1
  Ca  Ca28  1  0.83221500  0.32125819  0.99387161  1
  Ca  Ca29  1  0.33525538  0.34004703  0.48723297  1
  Ca  Ca30  1  0.84704312  0.34830034  0.48753714  1
  Ca  Ca31  1  0.17127125  0.66793996  0.01867067  1
  Ca  Ca32  1  0.66668344  0.67373594  0.01883415  1
  Ca  Ca33  1  0.16578036  0.65623844  0.51830102  1
  Ca  Ca34  1  0.66752710  0.67104380  0.51527497  1
  Ca  Ca35  1  0.16751169  0.65914420  0.31051084  1
  Ca  Ca36  1  0.66660164  0.65866246  0.31119693  1
  Ca  Ca37  1  0.16240678  0.66615189  0.81586394  1
  Ca  Ca38  1  0.66930657  0.67317999  0.81559289  1
  Ti  Ti39  1  0.00068868  0.00171235  0.65188609  1
  Ti  Ti40  1  0.00079133  0.99964681  0.15197066  1
  Ti  Ti41  1  0.49981745  0.99991369  0.15125967  1
  S  S42  1  0.14242765  0.99521446  0.24713922  1
  S  S43  1  0.64206572  0.99632454  0.24703383  1
  S  S44  1  0.35512191  0.71465271  0.24452355  1
  S  S45  1  0.85495471  0.71356698  0.24437879  1
  S  S46  1  0.00212620  0.29088107  0.24406999  1
  S  S47  1  0.50234921  0.29083560  0.24425204  1
  S  S48  1  0.14514259  0.29501105  0.74378295  1
  S  S49  1  0.65495253  0.30816490  0.75084276  1
  S  S50  1  0.00212330  0.71748896  0.74694155  1
  S  S51  1  0.49789433  0.69093385  0.74967454  1
  S  S52  1  0.34505844  0.99361941  0.75011713  1
  S  S53  1  0.85606991  0.99720770  0.74524391  1
  S  S54  1  0.49008781  0.33294842  0.58257368  1
  S  S55  1  0.98654597  0.31730368  0.58939288  1
  S  S56  1  0.17000153  0.02158835  0.58569932  1
  S  S57  1  0.68214106  0.03582904  0.58016221  1
  S  S58  1  0.33210661  0.64082496  0.58770566  1
  S  S59  1  0.84017183  0.65042073  0.58790790  1
  S  S60  1  0.48632902  0.65464952  0.08890730  1
  S  S61  1  0.98755063  0.65575896  0.08589893  1
  S  S62  1  0.34124127  0.02764529  0.08876528  1
  S  S63  1  0.84131025  0.02381022  0.08923312  1
  S  S64  1  0.17270847  0.31779664  0.08895466  1
  S  S65  1  0.67148137  0.31830620  0.08611924  1
  S  S66  1  0.31728947  0.65884533  0.91357224  1
  S  S67  1  0.81787014  0.66140514  0.91903918  1
  S  S68  1  0.01285496  0.36899650  0.91913283  1
  S  S69  1  0.51749679  0.36729523  0.91779242  1
  S  S70  1  0.16560112  0.96743636  0.91827518  1
  S  S71  1  0.66933817  0.97837915  0.91722443  1
  S  S72  1  0.31278405  0.96699733  0.41700493  1
  S  S73  1  0.81546539  0.97158025  0.41578245  1
  S  S74  1  0.16750941  0.36029367  0.41553382  1
  S  S75  1  0.66980099  0.36155922  0.41939522  1
  S  S76  1  0.01903888  0.66889164  0.41498418  1
  S  S77  1  0.51691354  0.66740553  0.41436724  1
  O  O78  1  0.10451481  0.00230533  0.30101785  1
  O  O79  1  0.60468948  0.00385584  0.30103313  1
  O  O80  1  0.39801363  0.79366176  0.29726949  1
  O  O81  1  0.89764935  0.79163009  0.29730881  1
  O  O82  1  0.49934437  0.20593497  0.29695602  1
  O  O83  1  0.99832981  0.20511510  0.29684156  1
  O  O84  1  0.10659098  0.20664467  0.79616367  1
  O  O85  1  0.60854543  0.21442767  0.80196282  1
  O  O86  1  0.49331805  0.78135411  0.79986914  1
  O  O87  1  0.99870717  0.79230817  0.80098822  1
  O  O88  1  0.39205395  0.00536341  0.80180706  1
  O  O89  1  0.89816384  0.00047182  0.79793256  1
  O  O90  1  0.39094416  0.98801142  0.69971851  1
  O  O91  1  0.91109955  0.00001250  0.69618152  1
  O  O92  1  0.09109505  0.18855793  0.69459785  1
  O  O93  1  0.61035093  0.21986981  0.69836476  1
  O  O94  1  0.00282209  0.83132491  0.69894148  1
  O  O95  1  0.50250621  0.78376448  0.69788962  1
  O  O96  1  0.40891140  0.82344355  0.19538146  1
  O  O97  1  0.90922231  0.82274425  0.19553833  1
  O  O98  1  0.00157425  0.18113336  0.19507929  1
  O  O99  1  0.50155543  0.18198960  0.19506980  1
  O  O100  1  0.08612260  0.99521503  0.19897835  1
  O  O101  1  0.58605441  0.99602718  0.19888893  1
  O  O102  1  0.44749308  0.33947412  0.63420853  1
  O  O103  1  0.94260544  0.33893603  0.63712048  1
  O  O104  1  0.22756627  0.11658656  0.63147858  1
  O  O105  1  0.73325767  0.12942949  0.62943930  1
  O  O106  1  0.33181540  0.55758375  0.64149814  1
  O  O107  1  0.82737182  0.53877807  0.63566993  1
  O  O108  1  0.44398393  0.54693889  0.13721324  1
  O  O109  1  0.93977149  0.54018227  0.13146631  1
  O  O110  1  0.32961949  0.11093607  0.13759218  1
  O  O111  1  0.83000592  0.11108506  0.13705613  1
  O  O112  1  0.22589563  0.34037877  0.13751146  1
  O  O113  1  0.72921294  0.33977230  0.13191294  1
  O  O114  1  0.20625066  0.28710880  0.03657638  1
  O  O115  1  0.70235858  0.28991966  0.03150074  1
  O  O116  1  0.43745269  0.58839830  0.03655802  1
  O  O117  1  0.94272383  0.59493805  0.03112218  1
  O  O118  1  0.35602664  0.12552062  0.03666155  1
  O  O119  1  0.85690785  0.12028197  0.03642958  1
  O  O120  1  0.19899470  0.10874532  0.53094578  1
  O  O121  1  0.72465048  0.12851467  0.52735276  1
  O  O122  1  0.33169123  0.53991956  0.53899610  1
  O  O123  1  0.85870492  0.58754146  0.53561306  1
  O  O124  1  0.44282856  0.32909817  0.53202896  1
  O  O125  1  0.93931320  0.28437536  0.53620039  1
  O  O126  1  0.26800818  0.66445385  0.96180839  1
  O  O127  1  0.77631094  0.67737685  0.96963303  1
  O  O128  1  0.06214190  0.45695041  0.96937361  1
  O  O129  1  0.56725619  0.45717005  0.96812688  1
  O  O130  1  0.15866269  0.86431402  0.96785012  1
  O  O131  1  0.66684201  0.88514533  0.96811611  1
  O  O132  1  0.26989588  0.87312187  0.46842941  1
  O  O133  1  0.77369311  0.87826845  0.46736277  1
  O  O134  1  0.16421646  0.44691645  0.46650919  1
  O  O135  1  0.66646930  0.43964410  0.47337388  1
  O  O136  1  0.06541056  0.67362506  0.46629689  1
  O  O137  1  0.56579683  0.67773584  0.46502543  1
  O  O138  1  0.06218087  0.66036581  0.36366930  1
  O  O139  1  0.55948109  0.65660890  0.36288974  1
  O  O140  1  0.26492981  0.87796100  0.36589193  1
  O  O141  1  0.76632518  0.88158347  0.36521668  1
  O  O142  1  0.17011225  0.45187836  0.36400533  1
  O  O143  1  0.67226144  0.46270610  0.37057676  1
  O  O144  1  0.05462637  0.46247846  0.86698144  1
  O  O145  1  0.55908758  0.46234037  0.86619844  1
  O  O146  1  0.17001042  0.88494016  0.86584331  1
  O  O147  1  0.67482634  0.89555619  0.86549824  1
  O  O148  1  0.27512857  0.65237482  0.85908528  1
  O  O149  1  0.76943085  0.64809853  0.86781694  1
  O  O150  1  0.01545721  0.82907844  0.41451901  1
  O  O151  1  0.51318568  0.82721579  0.41342068  1
  O  O152  1  0.39946710  0.99384835  0.41600180  1
  O  O153  1  0.90199814  0.99725266  0.41450442  1
  O  O154  1  0.09213165  0.18526261  0.41545213  1
  O  O155  1  0.59468623  0.18769059  0.41646123  1
  O  O156  1  0.99950507  0.19552405  0.91758100  1
  O  O157  1  0.51457504  0.20051740  0.91628903  1
  O  O158  1  0.08572011  0.97631533  0.91720482  1
  O  O159  1  0.59371152  0.00008954  0.91621417  1
  O  O160  1  0.40212164  0.81324333  0.91568342  1
  O  O161  1  0.90619328  0.80547268  0.91560478  1
  O  O162  1  0.50064121  0.18147590  0.58225092  1
  O  O163  1  0.99481307  0.16071412  0.59915401  1
  O  O164  1  0.08427101  0.00715083  0.59796028  1
  O  O165  1  0.59973929  0.03158925  0.58261258  1
  O  O166  1  0.40899575  0.80992341  0.58389175  1
  O  O167  1  0.91457364  0.82477260  0.59890571  1
  O  O168  1  0.49475239  0.82797736  0.09868865  1
  O  O169  1  0.99501027  0.82683812  0.09724189  1
  O  O170  1  0.41974632  0.01170008  0.09784398  1
  O  O171  1  0.91959774  0.00876870  0.09849366  1
  O  O172  1  0.08615954  0.15977977  0.09829220  1
  O  O173  1  0.58678951  0.16092794  0.09745430  1
  O  O174  1  0.32964431  0.13719121  0.74836728  1
  O  O175  1  0.84821711  0.14896451  0.74197812  1
  O  O176  1  0.23091562  0.32131556  0.73812590  1
  O  O177  1  0.73963951  0.32187685  0.75255148  1
  O  O178  1  0.41765351  0.52349546  0.74925635  1
  O  O179  1  0.92718842  0.55082568  0.74065869  1
  O  O180  1  0.34591384  0.54662224  0.24017814  1
  O  O181  1  0.84598632  0.54581045  0.23965706  1
  O  O182  1  0.42807047  0.31092121  0.24032406  1
  O  O183  1  0.92780602  0.31088373  0.23977022  1
  O  O184  1  0.22588747  0.14510870  0.24159221  1
  O  O185  1  0.72578608  0.14661546  0.24123062  1
  O  O186  1  0.32638502  0.50655492  0.91739611  1
  O  O187  1  0.82291383  0.50250446  0.92279122  1
  O  O188  1  0.43072801  0.33988250  0.92135555  1
  O  O189  1  0.92966142  0.36344210  0.92181688  1
  O  O190  1  0.23985062  0.13866325  0.92204210  1
  O  O191  1  0.74472565  0.15391045  0.91923494  1
  O  O192  1  0.31604549  0.13420357  0.41831476  1
  O  O193  1  0.81967867  0.13949114  0.41712634  1
  O  O194  1  0.24298959  0.33712749  0.41630995  1
  O  O195  1  0.74597691  0.34096639  0.41863810  1
  O  O196  1  0.43044163  0.51984571  0.41689698  1
  O  O197  1  0.93212463  0.52156007  0.41610329  1
  O  O198  1  0.15774148  0.46114824  0.08392744  1
  O  O199  1  0.65757893  0.46310159  0.08317231  1
  O  O200  1  0.07366637  0.68254624  0.08311451  1
  O  O201  1  0.57291909  0.68396967  0.08385792  1
  O  O202  1  0.26950178  0.85388412  0.08376958  1
  O  O203  1  0.76888578  0.85157052  0.08451692  1
  O  O204  1  0.15541912  0.84815618  0.58343871  1
  O  O205  1  0.66907745  0.86358500  0.58030569  1
  O  O206  1  0.25644344  0.66047078  0.58675883  1
  O  O207  1  0.76337404  0.66361599  0.58166273  1
  O  O208  1  0.07237744  0.46199401  0.58493224  1
  O  O209  1  0.57758641  0.48277992  0.58251820  1
  O  O210  1  0.14552191  0.83815685  0.24181948  1
  O  O211  1  0.64591153  0.83959358  0.24199724  1
  O  O212  1  0.27287508  0.70684070  0.24029841  1
  O  O213  1  0.77275154  0.70584762  0.24031316  1
  O  O214  1  0.08086342  0.45433455  0.23960375  1
  O  O215  1  0.58135469  0.45474956  0.23978842  1
  O  O216  1  0.15011807  0.46164411  0.74126441  1
  O  O217  1  0.66458573  0.47871411  0.75037571  1
  O  O218  1  0.08016096  0.70974605  0.74162363  1
  O  O219  1  0.57197670  0.66726854  0.75146603  1
  O  O220  1  0.26296122  0.82932040  0.75023990  1
  O  O221  1  0.77352915  0.84300448  0.73995010  1
