# generated using pymatgen
data_Ba2TbMgBiO6
_symmetry_space_group_name_H-M   'P 1'
_cell_length_a   6.28600212
_cell_length_b   6.44252279
_cell_length_c   6.68686280
_cell_angle_alpha   57.12553307
_cell_angle_beta   61.96396609
_cell_angle_gamma   60.80042371
_symmetry_Int_Tables_number   1
_chemical_formula_structural   Ba2TbMgBiO6
_chemical_formula_sum   'Ba2 Tb1 Mg1 Bi1 O6'
_cell_volume   190.59862569
_cell_formula_units_Z   1
loop_
 _symmetry_equiv_pos_site_id
 _symmetry_equiv_pos_as_xyz
  1  'x, y, z'
loop_
 _atom_site_type_symbol
 _atom_site_label
 _atom_site_symmetry_multiplicity
 _atom_site_fract_x
 _atom_site_fract_y
 _atom_site_fract_z
 _atom_site_occupancy
  Ba  Ba0  1  0.79846900  0.21962100  0.18343900  1
  Ba  Ba1  1  0.20153000  0.78037900  0.81656100  1
  Tb  Tb2  1  0.00000000  0.50000000  0.50000000  1
  Mg  Mg3  1  0.50000000  0.50000000  0.50000000  1
  Bi  Bi4  1  0.50000000  0.00000000  0.00000000  1
  O  O5  1  0.67191500  0.34454400  0.76844700  1
  O  O6  1  0.78490400  0.65545600  0.23155400  1
  O  O7  1  0.21509600  0.34454400  0.76844600  1
  O  O8  1  0.75050700  0.85782900  0.64115700  1
  O  O9  1  0.24949300  0.14217100  0.35884300  1
  O  O10  1  0.32808500  0.65545600  0.23155300  1
