# generated using pymatgen
data_NaTi2Zn2PS5O24
_symmetry_space_group_name_H-M   'P 1'
_cell_length_a   8.65117122
_cell_length_b   8.65679218
_cell_length_c   22.37020074
_cell_angle_alpha   89.83370329
_cell_angle_beta   89.85841184
_cell_angle_gamma   120.13340791
_symmetry_Int_Tables_number   1
_chemical_formula_structural   NaTi2Zn2PS5O24
_chemical_formula_sum   'Na3 Ti6 Zn6 P3 S15 O72'
_cell_volume   1448.90765534
_cell_formula_units_Z   3
loop_
 _symmetry_equiv_pos_site_id
 _symmetry_equiv_pos_as_xyz
  1  'x, y, z'
loop_
 _atom_site_type_symbol
 _atom_site_label
 _atom_site_symmetry_multiplicity
 _atom_site_fract_x
 _atom_site_fract_y
 _atom_site_fract_z
 _atom_site_occupancy
  Na  Na0  1  0.66672043  0.33212778  0.82779263  1
  Na  Na1  1  0.66322679  0.33405724  0.33198820  1
  Na  Na2  1  0.33482606  0.66697766  0.16288948  1
  Ti  Ti3  1  0.00295241  0.99361843  0.35407154  1
  Ti  Ti4  1  0.99734631  0.99967069  0.64279956  1
  Ti  Ti5  1  0.99885201  0.99073487  0.14347977  1
  Ti  Ti6  1  0.67132757  0.33182677  0.97574819  1
  Ti  Ti7  1  0.34139149  0.67381622  0.31185230  1
  Ti  Ti8  1  0.32092994  0.65735758  0.81015815  1
  Zn  Zn9  1  0.99898032  0.00426294  0.85424761  1
  Zn  Zn10  1  0.66619465  0.33169358  0.68210348  1
  Zn  Zn11  1  0.65932955  0.33300944  0.18833562  1
  Zn  Zn12  1  0.66625735  0.33401747  0.48670857  1
  Zn  Zn13  1  0.33199735  0.66273065  0.01524605  1
  Zn  Zn14  1  0.33365246  0.66656402  0.52236515  1
  P  P15  1  0.28631339  0.99841335  0.25007931  1
  P  P16  1  0.71525381  0.71393332  0.25043014  1
  P  P17  1  0.04643048  0.37599706  0.91789741  1
  S  S18  1  0.00265566  0.28706432  0.25065064  1
  S  S19  1  0.29167210  0.28936400  0.75054429  1
  S  S20  1  0.99825480  0.71084984  0.75119803  1
  S  S21  1  0.70738154  0.99857276  0.75094402  1
  S  S22  1  0.95986604  0.33347466  0.58394494  1
  S  S23  1  0.37228651  0.03938740  0.58414075  1
  S  S24  1  0.66650396  0.62649453  0.58406795  1
  S  S25  1  0.95629811  0.62074253  0.08450261  1
  S  S26  1  0.66702893  0.04343013  0.08461701  1
  S  S27  1  0.37590509  0.33379998  0.08439926  1
  S  S28  1  0.62269280  0.66572114  0.91682143  1
  S  S29  1  0.33309404  0.95563777  0.91677728  1
  S  S30  1  0.62572108  0.95855226  0.41598688  1
  S  S31  1  0.33179349  0.37653718  0.41531173  1
  S  S32  1  0.04375517  0.66486901  0.41578379  1
  O  O33  1  0.19109773  0.01957450  0.30584347  1
  O  O34  1  0.82927191  0.81215342  0.30586894  1
  O  O35  1  0.98067876  0.17865026  0.30483566  1
  O  O36  1  0.21493190  0.18232618  0.80446635  1
  O  O37  1  0.97096850  0.78871716  0.80505063  1
  O  O38  1  0.81606768  0.02938746  0.80416712  1
  O  O39  1  0.79280515  0.97055884  0.69690823  1
  O  O40  1  0.17871135  0.20835950  0.69698525  1
  O  O41  1  0.02876522  0.82312524  0.69721766  1
  O  O42  1  0.80066180  0.83272598  0.19391177  1
  O  O43  1  0.03196496  0.20703851  0.19631776  1
  O  O44  1  0.16738625  0.96940620  0.19427452  1
  O  O45  1  0.88029722  0.36244427  0.63735943  1
  O  O46  1  0.48162054  0.11897157  0.63721994  1
  O  O47  1  0.63719548  0.51734119  0.63748887  1
  O  O48  1  0.87725891  0.51428497  0.13860014  1
  O  O49  1  0.63743894  0.12157713  0.13830198  1
  O  O50  1  0.48217004  0.36258040  0.13847722  1
  O  O51  1  0.45973893  0.30437604  0.03058481  1
  O  O52  1  0.84396981  0.53785861  0.03050778  1
  O  O53  1  0.69505718  0.15798725  0.03012455  1
  O  O54  1  0.44057798  0.15225257  0.52994026  1
  O  O55  1  0.71155753  0.55934982  0.53006853  1
  O  O56  1  0.84754714  0.28892533  0.53007604  1
  O  O57  1  0.54936005  0.69432800  0.97161037  1
  O  O58  1  0.15043470  0.45740852  0.97373910  1
  O  O59  1  0.31065679  0.85630166  0.97187988  1
  O  O60  1  0.54988476  0.84967798  0.46907286  1
  O  O61  1  0.29941885  0.45016815  0.46881337  1
  O  O62  1  0.14988601  0.69840407  0.46922420  1
  O  O63  1  0.13535014  0.64404113  0.36147004  1
  O  O64  1  0.50834380  0.86532545  0.36142436  1
  O  O65  1  0.35592294  0.49376234  0.36107940  1
  O  O66  1  0.13532470  0.50403385  0.86147103  1
  O  O67  1  0.37193546  0.87596178  0.86342892  1
  O  O68  1  0.50447737  0.62998854  0.86377122  1
  O  O69  1  0.02513156  0.82754026  0.40571144  1
  O  O70  1  0.80363502  0.97704623  0.40434893  1
  O  O71  1  0.17005440  0.19838321  0.40390312  1
  O  O72  1  0.01111976  0.19191025  0.90613796  1
  O  O73  1  0.18316512  0.98274294  0.90762512  1
  O  O74  1  0.80245265  0.81213865  0.90721058  1
  O  O75  1  0.97687384  0.16752016  0.59509335  1
  O  O76  1  0.18966363  0.02284969  0.59570471  1
  O  O77  1  0.83297019  0.80963924  0.59514320  1
  O  O78  1  0.96634362  0.80083099  0.09086402  1
  O  O79  1  0.83492373  0.03356111  0.09136371  1
  O  O80  1  0.19548344  0.16647740  0.09226354  1
  O  O81  1  0.68037969  0.15250576  0.74309440  1
  O  O82  1  0.47391846  0.32045697  0.74299003  1
  O  O83  1  0.84741233  0.52833239  0.74405000  1
  O  O84  1  0.69692071  0.53143309  0.24739842  1
  O  O85  1  0.84481849  0.30683307  0.24660985  1
  O  O86  1  0.47115332  0.16067684  0.24707686  1
  O  O87  1  0.63271990  0.49381742  0.92403226  1
  O  O88  1  0.85597357  0.36643100  0.92529839  1
  O  O89  1  0.50347212  0.14032679  0.92316985  1
  O  O90  1  0.64085864  0.13500029  0.41812182  1
  O  O91  1  0.49178123  0.35830781  0.41759179  1
  O  O92  1  0.86438223  0.50594296  0.41848032  1
  O  O93  1  0.34886677  0.48750341  0.07795332  1
  O  O94  1  0.13898953  0.65417305  0.07796168  1
  O  O95  1  0.51386884  0.86258143  0.07670275  1
  O  O96  1  0.34300432  0.85992682  0.57617200  1
  O  O97  1  0.51656521  0.65622867  0.57628655  1
  O  O98  1  0.14003070  0.48373952  0.57611198  1
  O  O99  1  0.29599641  0.82386423  0.25824797  1
  O  O100  1  0.52830730  0.70026332  0.25840966  1
  O  O101  1  0.16828917  0.46722324  0.25706747  1
  O  O102  1  0.30447001  0.47030417  0.75840082  1
  O  O103  1  0.16834943  0.70052850  0.75830288  1
  O  O104  1  0.52869352  0.83161168  0.75896678  1
