# generated using pymatgen
data_Ta2Zn2SiS5O24
_symmetry_space_group_name_H-M   'P 1'
_cell_length_a   8.78710966
_cell_length_b   8.78039480
_cell_length_c   22.62716872
_cell_angle_alpha   89.84220753
_cell_angle_beta   89.98601996
_cell_angle_gamma   119.78247963
_symmetry_Int_Tables_number   1
_chemical_formula_structural   Ta2Zn2SiS5O24
_chemical_formula_sum   'Ta6 Zn6 Si3 S15 O72'
_cell_volume   1515.18720856
_cell_formula_units_Z   3
loop_
 _symmetry_equiv_pos_site_id
 _symmetry_equiv_pos_as_xyz
  1  'x, y, z'
loop_
 _atom_site_type_symbol
 _atom_site_label
 _atom_site_symmetry_multiplicity
 _atom_site_fract_x
 _atom_site_fract_y
 _atom_site_fract_z
 _atom_site_occupancy
  Ta  Ta0  1  0.00412607  0.00565317  0.14144630  1
  Ta  Ta1  1  0.65628591  0.33019639  0.97730139  1
  Ta  Ta2  1  0.67483171  0.32460587  0.47932509  1
  Ta  Ta3  1  0.33958482  0.66914049  0.52573646  1
  Ta  Ta4  1  0.34084590  0.67464705  0.31021860  1
  Ta  Ta5  1  0.32944220  0.66341974  0.80818797  1
  Zn  Zn6  1  0.99304313  0.00053554  0.35650528  1
  Zn  Zn7  1  0.00116925  0.00246031  0.85004177  1
  Zn  Zn8  1  0.99683463  0.00829142  0.64427040  1
  Zn  Zn9  1  0.67854643  0.33643661  0.68656696  1
  Zn  Zn10  1  0.66170727  0.33582803  0.18553526  1
  Zn  Zn11  1  0.33201501  0.65930934  0.02143449  1
  Si  Si12  1  0.95675392  0.32616522  0.58875335  1
  Si  Si13  1  0.38513119  0.34787631  0.08627994  1
  Si  Si14  1  0.62862481  0.95485212  0.41692518  1
  S  S15  1  0.28580105  0.00205190  0.25159552  1
  S  S16  1  0.71535421  0.70927102  0.25094662  1
  S  S17  1  0.99628860  0.28845916  0.25007513  1
  S  S18  1  0.29473697  0.28497233  0.75031987  1
  S  S19  1  0.99340050  0.71247817  0.75045350  1
  S  S20  1  0.71277332  0.00407822  0.75127759  1
  S  S21  1  0.37621174  0.04648904  0.58414843  1
  S  S22  1  0.67066098  0.61983524  0.58394121  1
  S  S23  1  0.95515549  0.61927529  0.08408784  1
  S  S24  1  0.66329860  0.04480247  0.08415395  1
  S  S25  1  0.62583767  0.67320880  0.91650902  1
  S  S26  1  0.04453893  0.37496519  0.91693898  1
  S  S27  1  0.32939697  0.95058032  0.91749569  1
  S  S28  1  0.33376295  0.38063372  0.41702021  1
  S  S29  1  0.04860534  0.66855264  0.41669008  1
  O  O30  1  0.20372450  0.02423777  0.30392758  1
  O  O31  1  0.81775328  0.79100799  0.30323789  1
  O  O32  1  0.97194215  0.18253940  0.30212826  1
  O  O33  1  0.21754227  0.18620785  0.80487943  1
  O  O34  1  0.97643905  0.79305961  0.80477464  1
  O  O35  1  0.81449583  0.02725696  0.80503752  1
  O  O36  1  0.77492368  0.95488752  0.69935240  1
  O  O37  1  0.18321996  0.22197567  0.69868179  1
  O  O38  1  0.03900961  0.82240939  0.69789406  1
  O  O39  1  0.79021225  0.82414343  0.19736165  1
  O  O40  1  0.02910962  0.20132139  0.19615978  1
  O  O41  1  0.16948481  0.96748369  0.19772420  1
  O  O42  1  0.87595294  0.38195771  0.64060925  1
  O  O43  1  0.48513831  0.11498165  0.63589982  1
  O  O44  1  0.62384441  0.50992883  0.63601544  1
  O  O45  1  0.88165863  0.51505493  0.13693469  1
  O  O46  1  0.64332627  0.12394285  0.13721708  1
  O  O47  1  0.49395272  0.35992889  0.14236437  1
  O  O48  1  0.47725722  0.30225935  0.02630874  1
  O  O49  1  0.83804922  0.53745950  0.03046202  1
  O  O50  1  0.70515046  0.16400743  0.03011329  1
  O  O51  1  0.46569027  0.15932391  0.52939634  1
  O  O52  1  0.68490587  0.52994414  0.52905257  1
  O  O53  1  0.83187989  0.30869553  0.52664986  1
  O  O54  1  0.54683662  0.69798322  0.96909596  1
  O  O55  1  0.15022808  0.45615334  0.96887320  1
  O  O56  1  0.30780290  0.84811424  0.97058304  1
  O  O57  1  0.51590504  0.82936689  0.47172191  1
  O  O58  1  0.30628718  0.46676693  0.46921476  1
  O  O59  1  0.15705761  0.68761293  0.46900478  1
  O  O60  1  0.12726067  0.63006193  0.36290925  1
  O  O61  1  0.49080514  0.85517170  0.35886898  1
  O  O62  1  0.36032746  0.49646176  0.36298474  1
  O  O63  1  0.12937062  0.49403320  0.86341526  1
  O  O64  1  0.36489491  0.86991932  0.86437537  1
  O  O65  1  0.50751085  0.63340455  0.86380899  1
  O  O66  1  0.03443547  0.82292888  0.40839100  1
  O  O67  1  0.81341112  0.97614552  0.40798009  1
  O  O68  1  0.18390496  0.21022811  0.40849522  1
  O  O69  1  0.01959776  0.20182117  0.90595932  1
  O  O70  1  0.18614508  0.98339382  0.90757037  1
  O  O71  1  0.80066362  0.81711091  0.90591646  1
  O  O72  1  0.97942438  0.15949951  0.58854535  1
  O  O73  1  0.20185621  0.02087950  0.58740408  1
  O  O74  1  0.82230087  0.79209829  0.58793387  1
  O  O75  1  0.96171596  0.79692572  0.09331227  1
  O  O76  1  0.82909495  0.02857627  0.09217434  1
  O  O77  1  0.18744958  0.15736451  0.09527511  1
  O  O78  1  0.67561614  0.14670417  0.74452567  1
  O  O79  1  0.47316258  0.31945434  0.74233596  1
  O  O80  1  0.84799958  0.53520221  0.74551850  1
  O  O81  1  0.68757208  0.53427830  0.24286382  1
  O  O82  1  0.84856094  0.31398517  0.23836810  1
  O  O83  1  0.46245813  0.14311078  0.24255832  1
  O  O84  1  0.64086105  0.50498114  0.92498765  1
  O  O85  1  0.86724354  0.36350106  0.92486498  1
  O  O86  1  0.50080949  0.13044836  0.92483788  1
  O  O87  1  0.62865024  0.14239463  0.42622155  1
  O  O88  1  0.49798840  0.37531023  0.42487414  1
  O  O89  1  0.87106825  0.50942489  0.42469659  1
  O  O90  1  0.34549007  0.49861304  0.07255895  1
  O  O91  1  0.13104184  0.65598899  0.07236035  1
  O  O92  1  0.51700661  0.87343171  0.07262059  1
  O  O93  1  0.36117882  0.86807907  0.57170969  1
  O  O94  1  0.50783253  0.63948179  0.57208441  1
  O  O95  1  0.14552621  0.50281917  0.56766938  1
  O  O96  1  0.29307515  0.83005816  0.25808147  1
  O  O97  1  0.53071816  0.69244896  0.25898177  1
  O  O98  1  0.16123670  0.46492640  0.25749460  1
  O  O99  1  0.31220695  0.47273291  0.76294065  1
  O  O100  1  0.16294622  0.69217278  0.76238739  1
  O  O101  1  0.52603446  0.83534302  0.76427914  1
