# generated using pymatgen
data_KIO3
_symmetry_space_group_name_H-M   'P 1'
_cell_length_a   7.67246903
_cell_length_b   7.69067194
_cell_length_c   7.68098005
_cell_angle_alpha   109.51812941
_cell_angle_beta   109.09692252
_cell_angle_gamma   109.38301585
_symmetry_Int_Tables_number   1
_chemical_formula_structural   KIO3
_chemical_formula_sum   'K4 I4 O12'
_cell_volume   350.66889374
_cell_formula_units_Z   4
loop_
 _symmetry_equiv_pos_site_id
 _symmetry_equiv_pos_as_xyz
  1  'x, y, z'
loop_
 _atom_site_type_symbol
 _atom_site_label
 _atom_site_symmetry_multiplicity
 _atom_site_fract_x
 _atom_site_fract_y
 _atom_site_fract_z
 _atom_site_occupancy
  K  K0  1  0.53445198  0.48599594  0.49159882  1
  K  K1  1  0.01171595  0.51902431  0.00101330  1
  K  K2  1  0.01419735  0.00135472  0.51278968  1
  K  K3  1  0.50763877  0.99678761  0.02402691  1
  I  I4  1  0.02194188  0.49897552  0.49508034  1
  I  I5  1  0.50895685  0.49566517  -0.00238925  1
  I  I6  1  0.51049128  0.99040538  0.51140320  1
  I  I7  1  0.00129602  0.00647821  0.00586752  1
  O  O8  1  0.85896775  0.53825215  0.29575553  1
  O  O9  1  0.81041163  0.28285419  0.47647532  1
  O  O10  1  0.11014132  0.34829476  0.34378988  1
  O  O11  1  0.35198726  0.27537754  0.01851272  1
  O  O12  1  0.54766943  0.35186375  0.78560092  1
  O  O13  1  0.29786829  0.53075192  0.84783310  1
  O  O14  1  0.34345987  0.84905310  0.59384662  1
  O  O15  1  0.54771993  0.78254734  0.35702383  1
  O  O16  1  0.84790768  0.08569584  0.84598755  1
  O  O17  1  0.97758129  0.78487635  0.79520402  1
  O  O18  1  0.80633227  0.85796318  0.05977967  1
  O  O19  1  0.30716620  0.97688103  0.29329932  1
