# generated using pymatgen
data_Na7Sc2Nb2Si5PO24
_symmetry_space_group_name_H-M   'P 1'
_cell_length_a   9.14329469
_cell_length_b   9.14352239
_cell_length_c   22.68559788
_cell_angle_alpha   90.00951725
_cell_angle_beta   89.93174037
_cell_angle_gamma   119.98100162
_symmetry_Int_Tables_number   1
_chemical_formula_structural   Na7Sc2Nb2Si5PO24
_chemical_formula_sum   'Na21 Sc6 Nb6 Si15 P3 O72'
_cell_volume   1642.78171260
_cell_formula_units_Z   3
loop_
 _symmetry_equiv_pos_site_id
 _symmetry_equiv_pos_as_xyz
  1  'x, y, z'
loop_
 _atom_site_type_symbol
 _atom_site_label
 _atom_site_symmetry_multiplicity
 _atom_site_fract_x
 _atom_site_fract_y
 _atom_site_fract_z
 _atom_site_occupancy
  Na  Na0  1  0.64068587  0.00945621  0.24994243  1
  Na  Na1  1  0.37031622  0.36212175  0.24826258  1
  Na  Na2  1  0.99004906  0.62815121  0.24871221  1
  Na  Na3  1  0.63735618  0.62853491  0.74880335  1
  Na  Na4  1  0.99000309  0.36026046  0.74891935  1
  Na  Na5  1  0.37175606  0.01070181  0.74866029  1
  Na  Na6  1  0.30539440  0.34104416  0.58268310  1
  Na  Na7  1  0.03737155  0.69618421  0.58188815  1
  Na  Na8  1  0.65809264  0.96183866  0.58215774  1
  Na  Na9  1  0.30082418  0.96350948  0.08092389  1
  Na  Na10  1  0.03943786  0.34338584  0.08257924  1
  Na  Na11  1  0.97342583  0.67620372  0.91567667  1
  Na  Na12  1  0.32354516  0.29448467  0.91564588  1
  Na  Na13  1  0.32443722  0.02778295  0.41567572  1
  Na  Na14  1  0.70493211  0.67516454  0.41569902  1
  Na  Na15  1  0.99709016  0.00288354  0.49583576  1
  Na  Na16  1  0.99157519  0.99778130  0.99662406  1
  Na  Na17  1  0.66722256  0.32698043  0.83036489  1
  Na  Na18  1  0.67277639  0.33266722  0.33074596  1
  Na  Na19  1  0.33735650  0.66248413  0.16232677  1
  Na  Na20  1  0.33443285  0.66675062  0.66296240  1
  Sc  Sc21  1  0.99617029  0.00196565  0.35151123  1
  Sc  Sc22  1  0.99841460  0.00356945  0.85183194  1
  Sc  Sc23  1  0.66587219  0.33308786  0.68438980  1
  Sc  Sc24  1  0.66758913  0.33871997  0.18449093  1
  Sc  Sc25  1  0.33206331  0.66292486  0.01819041  1
  Sc  Sc26  1  0.33446704  0.67005163  0.51769325  1
  Nb  Nb27  1  0.99954520  0.99915982  0.64767934  1
  Nb  Nb28  1  0.00068525  0.99626918  0.14756990  1
  Nb  Nb29  1  0.66631065  0.33024448  0.98085048  1
  Nb  Nb30  1  0.67454981  0.33219508  0.48100543  1
  Nb  Nb31  1  0.32993090  0.66913394  0.31389165  1
  Nb  Nb32  1  0.33005610  0.66947259  0.81412649  1
  Si  Si33  1  0.29304903  0.00191614  0.25192538  1
  Si  Si34  1  0.70817262  0.70758721  0.25165181  1
  Si  Si35  1  0.99887374  0.29069927  0.25031880  1
  Si  Si36  1  0.29310654  0.29233994  0.75166494  1
  Si  Si37  1  0.99801888  0.70733444  0.75197884  1
  Si  Si38  1  0.70778933  0.00062613  0.75123229  1
  Si  Si39  1  0.96190366  0.33412001  0.58542855  1
  Si  Si40  1  0.37487719  0.04120100  0.58399213  1
  Si  Si41  1  0.66550440  0.62465011  0.58415139  1
  Si  Si42  1  0.95804784  0.62665727  0.08412873  1
  Si  Si43  1  0.37551315  0.33777944  0.08476645  1
  Si  Si44  1  0.03857652  0.37071382  0.91838043  1
  Si  Si45  1  0.33466843  0.95991298  0.91892449  1
  Si  Si46  1  0.62907135  0.96119444  0.41808780  1
  Si  Si47  1  0.03912472  0.66593613  0.41831398  1
  P  P48  1  0.66679214  0.04136145  0.08443474  1
  P  P49  1  0.62402168  0.66792241  0.91749739  1
  P  P50  1  0.33233926  0.37478108  0.41753417  1
  O  O51  1  0.20984415  0.03383045  0.30896839  1
  O  O52  1  0.82499706  0.78980130  0.30866902  1
  O  O53  1  0.96578031  0.16921880  0.30532570  1
  O  O54  1  0.20872882  0.17449541  0.80830401  1
  O  O55  1  0.96772578  0.79162859  0.80907589  1
  O  O56  1  0.83104268  0.03392686  0.80550042  1
  O  O57  1  0.79805822  0.96433014  0.69161235  1
  O  O58  1  0.16545167  0.20121182  0.69265710  1
  O  O59  1  0.03556968  0.83409245  0.69286455  1
  O  O60  1  0.80338310  0.83905997  0.19427733  1
  O  O61  1  0.03509960  0.20128067  0.19091859  1
  O  O62  1  0.16543127  0.96409822  0.19304474  1
  O  O63  1  0.87819424  0.36812576  0.64212011  1
  O  O64  1  0.49034416  0.12349636  0.64144917  1
  O  O65  1  0.63355944  0.51002577  0.64178314  1
  O  O66  1  0.87702812  0.50832525  0.14121360  1
  O  O67  1  0.63747328  0.12067714  0.13942843  1
  O  O68  1  0.48383546  0.35545631  0.14260877  1
  O  O69  1  0.46829704  0.30033941  0.02635224  1
  O  O70  1  0.83393626  0.52861600  0.02558892  1
  O  O71  1  0.69788870  0.16418731  0.02973379  1
  O  O72  1  0.46634138  0.16847518  0.52551128  1
  O  O73  1  0.70084757  0.53257762  0.52570008  1
  O  O74  1  0.82969927  0.29849990  0.52781506  1
  O  O75  1  0.53871361  0.69093446  0.97073533  1
  O  O76  1  0.15687782  0.45995987  0.97474787  1
  O  O77  1  0.30389305  0.84265226  0.97540172  1
  O  O78  1  0.54148190  0.84397828  0.47501420  1
  O  O79  1  0.30938150  0.45680565  0.47266963  1
  O  O80  1  0.15630202  0.69698254  0.47498182  1
  O  O81  1  0.13443222  0.63618331  0.35912243  1
  O  O82  1  0.49874732  0.86426851  0.35957977  1
  O  O83  1  0.36312594  0.49290068  0.36189921  1
  O  O84  1  0.13474347  0.50104194  0.85968168  1
  O  O85  1  0.36425851  0.86521450  0.85930729  1
  O  O86  1  0.50819900  0.63444395  0.86096585  1
  O  O87  1  0.02057657  0.83236337  0.41133907  1
  O  O88  1  0.81029307  0.97437656  0.41142057  1
  O  O89  1  0.18264932  0.19563728  0.41103907  1
  O  O90  1  0.02579496  0.18972516  0.91153134  1
  O  O91  1  0.16881044  0.97958124  0.91146769  1
  O  O92  1  0.80442453  0.81566967  0.91092726  1
  O  O93  1  0.97108750  0.15733451  0.58883346  1
  O  O94  1  0.18661188  0.02867995  0.58905445  1
  O  O95  1  0.84174301  0.81273220  0.58903513  1
  O  O96  1  0.97668900  0.81739367  0.08934906  1
  O  O97  1  0.83450690  0.03552371  0.08814061  1
  O  O98  1  0.18535026  0.15850342  0.08905441  1
  O  O99  1  0.68250530  0.16256259  0.74449341  1
  O  O100  1  0.47990344  0.31623723  0.74470213  1
  O  O101  1  0.83736975  0.51986754  0.74483799  1
  O  O102  1  0.68401826  0.52036739  0.24444307  1
  O  O103  1  0.83617840  0.31534008  0.24359788  1
  O  O104  1  0.48136396  0.16041323  0.24366144  1
  O  O105  1  0.63513213  0.49921876  0.92240246  1
  O  O106  1  0.85471264  0.36729067  0.92337510  1
  O  O107  1  0.50548880  0.15198266  0.92363615  1
  O  O108  1  0.62995291  0.14402494  0.42248277  1
  O  O109  1  0.50004129  0.36479097  0.42122483  1
  O  O110  1  0.84721969  0.49517142  0.42261488  1
  O  O111  1  0.34333428  0.49487133  0.07833611  1
  O  O112  1  0.14730220  0.65306567  0.07751010  1
  O  O113  1  0.50942736  0.86915357  0.07582209  1
  O  O114  1  0.35027364  0.85338372  0.57773490  1
  O  O115  1  0.50201777  0.64797411  0.57736475  1
  O  O116  1  0.14810865  0.49571356  0.57698189  1
  O  O117  1  0.30407074  0.82409166  0.25610922  1
  O  O118  1  0.51918427  0.69298338  0.25701676  1
  O  O119  1  0.17563796  0.47879227  0.25662003  1
  O  O120  1  0.30661016  0.48090266  0.75701129  1
  O  O121  1  0.17578273  0.69578364  0.75623597  1
  O  O122  1  0.52059361  0.82348696  0.75656360  1
