# generated using pymatgen
data_LiMnO2
_symmetry_space_group_name_H-M   'P 1'
_cell_length_a   5.13937131
_cell_length_b   5.20865472
_cell_length_c   5.67819294
_cell_angle_alpha   90.00001247
_cell_angle_beta   89.99999333
_cell_angle_gamma   90.00009495
_symmetry_Int_Tables_number   1
_chemical_formula_structural   LiMnO2
_chemical_formula_sum   'Li4 Mn4 O8'
_cell_volume   152.00074278
_cell_formula_units_Z   4
loop_
 _symmetry_equiv_pos_site_id
 _symmetry_equiv_pos_as_xyz
  1  'x, y, z'
loop_
 _atom_site_type_symbol
 _atom_site_label
 _atom_site_symmetry_multiplicity
 _atom_site_fract_x
 _atom_site_fract_y
 _atom_site_fract_z
 _atom_site_occupancy
  Li  Li0  1  0.00000078  0.50000124  0.25967189  1
  Li  Li1  1  -0.00000210  0.50000162  0.75967329  1
  Li  Li2  1  0.50000267  0.00000948  0.99032131  1
  Li  Li3  1  0.50000051  0.00000950  0.49032269  1
  Mn  Mn4  1  0.49999652  0.50000930  0.74657593  1
  Mn  Mn5  1  0.00000185  0.00000324  0.00342598  1
  Mn  Mn6  1  0.50000228  0.50000828  0.24657694  1
  Mn  Mn7  1  -0.00000350  0.00000251  0.50342555  1
  O  O8  1  0.28871601  0.34723518  0.99659503  1
  O  O9  1  0.28871508  0.34723426  0.49659332  1
  O  O10  1  0.21128516  0.84723246  0.25340883  1
  O  O11  1  0.21128444  0.84723328  0.75340700  1
  O  O12  1  0.71129063  0.65277948  0.99659404  1
  O  O13  1  0.71129192  0.65278089  0.49659477  1
  O  O14  1  0.78871099  0.15277903  0.25340771  1
  O  O15  1  0.78871175  0.15277825  0.75340772  1
