# generated using pymatgen
data_SbI3
_symmetry_space_group_name_H-M   'P 1'
_cell_length_a   8.35662224
_cell_length_b   8.35662244
_cell_length_c   8.35662256
_cell_angle_alpha   53.71216566
_cell_angle_beta   53.71216517
_cell_angle_gamma   53.71216032
_symmetry_Int_Tables_number   1
_chemical_formula_structural   SbI3
_chemical_formula_sum   'Sb2 I6'
_cell_volume   351.97797437
_cell_formula_units_Z   2
loop_
 _symmetry_equiv_pos_site_id
 _symmetry_equiv_pos_as_xyz
  1  'x, y, z'
loop_
 _atom_site_type_symbol
 _atom_site_label
 _atom_site_symmetry_multiplicity
 _atom_site_fract_x
 _atom_site_fract_y
 _atom_site_fract_z
 _atom_site_occupancy
  Sb  Sb0  1  0.16764066  0.16764066  0.16764066  1
  Sb  Sb1  1  0.83235934  0.83235934  0.83235934  1
  I  I2  1  0.42078096  0.07015536  0.76048685  1
  I  I3  1  0.76048685  0.42078096  0.07015536  1
  I  I4  1  0.07015536  0.76048685  0.42078096  1
  I  I5  1  0.57921904  0.92984464  0.23951315  1
  I  I6  1  0.23951315  0.57921904  0.92984464  1
  I  I7  1  0.92984464  0.23951315  0.57921904  1
