# generated using pymatgen
data_Na10Ta4Si11Sn4SO48
_symmetry_space_group_name_H-M   'P 1'
_cell_length_a   17.99003754
_cell_length_b   8.99683522
_cell_length_c   22.78321779
_cell_angle_alpha   90.16579138
_cell_angle_beta   90.07889070
_cell_angle_gamma   119.99554787
_symmetry_Int_Tables_number   1
_chemical_formula_structural   Na10Ta4Si11Sn4SO48
_chemical_formula_sum   'Na30 Ta12 Si33 Sn12 S3 O144'
_cell_volume   3193.61739392
_cell_formula_units_Z   3
loop_
 _symmetry_equiv_pos_site_id
 _symmetry_equiv_pos_as_xyz
  1  'x, y, z'
loop_
 _atom_site_type_symbol
 _atom_site_label
 _atom_site_symmetry_multiplicity
 _atom_site_fract_x
 _atom_site_fract_y
 _atom_site_fract_z
 _atom_site_occupancy
  Na  Na0  1  0.32047353  0.00005414  0.24982678  1
  Na  Na1  1  0.82039388  0.99984848  0.25016978  1
  Na  Na2  1  0.81922927  0.63725223  0.74975102  1
  Na  Na3  1  0.49795111  0.36285424  0.74894642  1
  Na  Na4  1  0.01630487  0.70162468  0.58419514  1
  Na  Na5  1  0.33312463  0.96930203  0.58466502  1
  Na  Na6  1  0.83337569  0.96599732  0.58344523  1
  Na  Na7  1  0.33305946  0.69808898  0.08485658  1
  Na  Na8  1  0.83317719  0.69852226  0.08526209  1
  Na  Na9  1  0.01637942  0.33268933  0.08507464  1
  Na  Na10  1  0.51478893  0.33106624  0.08514148  1
  Na  Na11  1  0.98495043  0.66638449  0.91517380  1
  Na  Na12  1  0.34856214  0.03165581  0.91593187  1
  Na  Na13  1  0.85115865  0.03289202  0.91598041  1
  Na  Na14  1  0.48381917  0.30188508  0.41507256  1
  Na  Na15  1  0.98400057  0.30182228  0.41477519  1
  Na  Na16  1  0.34999567  0.66785124  0.41482722  1
  Na  Na17  1  0.84958743  0.66832550  0.41478449  1
  Na  Na18  1  0.00501032  0.00496612  0.49952854  1
  Na  Na19  1  0.50503384  0.00068031  0.50000061  1
  Na  Na20  1  0.00573188  0.00576794  0.00032693  1
  Na  Na21  1  0.50399909  0.99868836  0.00013426  1
  Na  Na22  1  0.33168312  0.33777539  0.83303421  1
  Na  Na23  1  0.83258845  0.32926202  0.83214300  1
  Na  Na24  1  0.33428729  0.33971442  0.33126130  1
  Na  Na25  1  0.83418223  0.33964023  0.33101318  1
  Na  Na26  1  0.16462113  0.66066675  0.16860538  1
  Na  Na27  1  0.66418829  0.66027559  0.16913670  1
  Na  Na28  1  0.16762872  0.66719103  0.66981817  1
  Na  Na29  1  0.66380489  0.66692384  0.66521988  1
  Ta  Ta30  1  0.50019297  0.99804663  0.85355909  1
  Ta  Ta31  1  0.50026042  0.99810542  0.64604578  1
  Ta  Ta32  1  0.83457551  0.33139092  0.68794053  1
  Ta  Ta33  1  0.33292909  0.33985428  0.97943637  1
  Ta  Ta34  1  0.83089053  0.33272560  0.98019849  1
  Ta  Ta35  1  0.33158594  0.33023883  0.48071466  1
  Ta  Ta36  1  0.83067342  0.32756192  0.48004326  1
  Ta  Ta37  1  0.16725996  0.67037065  0.01939349  1
  Ta  Ta38  1  0.66564290  0.66958050  0.01987853  1
  Ta  Ta39  1  0.16688282  0.66282992  0.52001250  1
  Ta  Ta40  1  0.66292148  0.66213954  0.52030657  1
  Ta  Ta41  1  0.66577747  0.67129982  0.81263787  1
  Si  Si42  1  0.35309137  0.70373832  0.25010244  1
  Si  Si43  1  0.85314327  0.70427974  0.25003388  1
  Si  Si44  1  0.00119895  0.29578933  0.24988235  1
  Si  Si45  1  0.50120926  0.29586902  0.24987124  1
  Si  Si46  1  0.64448721  0.28557798  0.75016018  1
  Si  Si47  1  0.00369077  0.70992872  0.75002616  1
  Si  Si48  1  0.49754708  0.70981924  0.74959919  1
  Si  Si49  1  0.35194538  0.99526781  0.74972277  1
  Si  Si50  1  0.85587138  0.00327021  0.75020632  1
  Si  Si51  1  0.48001942  0.33522115  0.58359758  1
  Si  Si52  1  0.97932061  0.33296699  0.58377238  1
  Si  Si53  1  0.18757153  0.04640752  0.58412466  1
  Si  Si54  1  0.68709076  0.04426164  0.58387739  1
  Si  Si55  1  0.33336594  0.61991821  0.58414257  1
  Si  Si56  1  0.83064948  0.61853987  0.58365981  1
  Si  Si57  1  0.48038383  0.62869788  0.08307223  1
  Si  Si58  1  0.98087932  0.62866655  0.08269579  1
  Si  Si59  1  0.33087470  0.04563900  0.08374894  1
  Si  Si60  1  0.83088437  0.04428145  0.08438356  1
  Si  Si61  1  0.18779478  0.32825758  0.08391078  1
  Si  Si62  1  0.68717970  0.32826985  0.08428367  1
  Si  Si63  1  0.31039636  0.66380740  0.91534110  1
  Si  Si64  1  0.80934764  0.66243056  0.91629785  1
  Si  Si65  1  0.02385088  0.37653825  0.91594267  1
  Si  Si66  1  0.52237373  0.37807014  0.91637740  1
  Si  Si67  1  0.16695630  0.96165938  0.91677728  1
  Si  Si68  1  0.66455513  0.95628654  0.91680759  1
  Si  Si69  1  0.30878496  0.95628021  0.41555859  1
  Si  Si70  1  0.80819761  0.95384941  0.41617821  1
  Si  Si71  1  0.16639754  0.37067742  0.41684783  1
  Si  Si72  1  0.66613684  0.37182750  0.41717243  1
  Si  Si73  1  0.02367147  0.67152817  0.41648570  1
  Si  Si74  1  0.52320143  0.67156927  0.41580773  1
  Sn  Sn75  1  0.99730559  0.99731276  0.35337953  1
  Sn  Sn76  1  0.49741067  0.99761315  0.35334549  1
  Sn  Sn77  1  0.99945367  -0.00026866  0.85352928  1
  Sn  Sn78  1  0.99983738  0.99657087  0.64680459  1
  Sn  Sn79  1  0.99882462  0.00242529  0.14666682  1
  Sn  Sn80  1  0.49812559  0.00202531  0.14666310  1
  Sn  Sn81  1  0.33526702  0.33446124  0.68462489  1
  Sn  Sn82  1  0.33908835  0.34619326  0.18480555  1
  Sn  Sn83  1  0.83894754  0.34619688  0.18516407  1
  Sn  Sn84  1  0.16582127  0.65382032  0.31491421  1
  Sn  Sn85  1  0.66585592  0.65378059  0.31506664  1
  Sn  Sn86  1  0.16804364  0.67529850  0.81469509  1
  S  S87  1  0.14559160  0.00012822  0.25009390  1
  S  S88  1  0.64559876  0.00012008  0.24997175  1
  S  S89  1  0.14624942  0.29237633  0.75000588  1
  O  O90  1  0.10737361  0.03035690  0.30335037  1
  O  O91  1  0.60756792  0.03051593  0.30329532  1
  O  O92  1  0.41198594  0.78713967  0.30938645  1
  O  O93  1  0.91203950  0.78715927  0.30931726  1
  O  O94  1  0.48132944  0.17388392  0.30863814  1
  O  O95  1  0.98127409  0.17394551  0.30865616  1
  O  O96  1  0.10772737  0.18422063  0.80315163  1
  O  O97  1  0.59783249  0.16630881  0.80727644  1
  O  O98  1  0.48627292  0.80647072  0.80701302  1
  O  O99  1  0.97883003  0.78689601  0.80811700  1
  O  O100  1  0.41666868  0.03292391  0.80711225  1
  O  O101  1  0.91233129  0.03718951  0.80973250  1
  O  O102  1  0.40198729  0.97427341  0.69180167  1
  O  O103  1  0.89363988  0.95904337  0.69143181  1
  O  O104  1  0.09210521  0.21484159  0.69655504  1
  O  O105  1  0.58131436  0.19821211  0.69348432  1
  O  O106  1  0.01751412  0.82361063  0.69081662  1
  O  O107  1  0.51531642  0.83465328  0.69291548  1
  O  O108  1  0.39412864  0.82612833  0.19147478  1
  O  O109  1  0.89429213  0.82640369  0.19130444  1
  O  O110  1  0.01810530  0.21249461  0.19063408  1
  O  O111  1  0.51851354  0.21275819  0.19065594  1
  O  O112  1  0.09218819  0.96931654  0.19667932  1
  O  O113  1  0.59232945  0.96983374  0.19657997  1
  O  O114  1  0.44219962  0.37124427  0.64294248  1
  O  O115  1  0.93219934  0.36839235  0.63942583  1
  O  O116  1  0.24988976  0.12157646  0.64082473  1
  O  O117  1  0.75244788  0.13717128  0.63958654  1
  O  O118  1  0.31271718  0.50221772  0.64158975  1
  O  O119  1  0.81802883  0.50145865  0.64164871  1
  O  O120  1  0.44386359  0.50367859  0.13935101  1
  O  O121  1  0.94252805  0.50234219  0.13847534  1
  O  O122  1  0.31354533  0.12179847  0.14368717  1
  O  O123  1  0.81332857  0.12221771  0.14348958  1
  O  O124  1  0.25029163  0.37723368  0.14056180  1
  O  O125  1  0.75065688  0.37747485  0.14022373  1
  O  O126  1  0.23604809  0.30469168  0.02636887  1
  O  O127  1  0.73591194  0.30477061  0.02627704  1
  O  O128  1  0.41646889  0.53342685  0.02684742  1
  O  O129  1  0.91745271  0.53539311  0.02486343  1
  O  O130  1  0.34950292  0.16826289  0.02586479  1
  O  O131  1  0.84855604  0.16729044  0.02606826  1
  O  O132  1  0.23591873  0.16698157  0.52673633  1
  O  O133  1  0.73568543  0.16674447  0.52688938  1
  O  O134  1  0.34831141  0.53292180  0.52492419  1
  O  O135  1  0.84936367  0.53070784  0.52621845  1
  O  O136  1  0.41736463  0.29935575  0.52594708  1
  O  O137  1  0.91762132  0.29972075  0.52595187  1
  O  O138  1  0.26769723  0.70142560  0.97419361  1
  O  O139  1  0.76581226  0.69810316  0.97382946  1
  O  O140  1  0.08164414  0.46802620  0.97523133  1
  O  O141  1  0.58251346  0.46887399  0.97435514  1
  O  O142  1  0.14972352  0.83148332  0.97293620  1
  O  O143  1  0.65257479  0.83392766  0.97323559  1
  O  O144  1  0.26497086  0.83264675  0.47361978  1
  O  O145  1  0.76546940  0.83221097  0.47425981  1
  O  O146  1  0.14959911  0.46723321  0.47329863  1
  O  O147  1  0.65003261  0.46829747  0.47334694  1
  O  O148  1  0.08183256  0.69454364  0.47558467  1
  O  O149  1  0.58349791  0.69582868  0.47367092  1
  O  O150  1  0.06211146  0.62293376  0.36011205  1
  O  O151  1  0.56182318  0.62281949  0.35956566  1
  O  O152  1  0.25239705  0.87774917  0.35632835  1
  O  O153  1  0.75264013  0.87818641  0.35634777  1
  O  O154  1  0.19166189  0.49704443  0.36105844  1
  O  O155  1  0.69214518  0.49692896  0.36086440  1
  O  O156  1  0.06174346  0.50094986  0.85963034  1
  O  O157  1  0.56849631  0.49918874  0.85862796  1
  O  O158  1  0.19057189  0.88426223  0.86045890  1
  O  O159  1  0.68415640  0.86500251  0.86063946  1
  O  O160  1  0.25085437  0.62718238  0.85834841  1
  O  O161  1  0.75066319  0.63655210  0.85800872  1
  O  O162  1  0.00897020  0.83573348  0.41245446  1
  O  O163  1  0.50906098  0.83631270  0.41225778  1
  O  O164  1  0.40468948  0.97516583  0.41385542  1
  O  O165  1  0.90484498  0.97578028  0.41375326  1
  O  O166  1  0.07875784  0.18659093  0.41157583  1
  O  O167  1  0.57900193  0.18687339  0.41153466  1
  O  O168  1  0.00838421  0.18187740  0.91218703  1
  O  O169  1  0.50942021  0.18533660  0.90889376  1
  O  O170  1  0.07871770  0.96996789  0.91160245  1
  O  O171  1  0.58087254  0.97635125  0.90921633  1
  O  O172  1  0.40462131  0.84098501  0.90920278  1
  O  O173  1  0.90450037  0.83423540  0.91245316  1
  O  O174  1  0.48502932  0.15852344  0.58973375  1
  O  O175  1  0.98467832  0.15893922  0.59022743  1
  O  O176  1  0.09092894  0.01783688  0.58764682  1
  O  O177  1  0.59319580  0.02493163  0.59131353  1
  O  O178  1  0.41633230  0.81579578  0.59026980  1
  O  O179  1  0.91743849  0.80923980  0.58739673  1
  O  O180  1  0.48597158  0.81384345  0.08858485  1
  O  O181  1  0.98525528  0.81283602  0.08828691  1
  O  O182  1  0.41701659  0.02457459  0.08624012  1
  O  O183  1  0.91719142  0.02506429  0.08614273  1
  O  O184  1  0.09091921  0.16414611  0.08782164  1
  O  O185  1  0.59090880  0.16398222  0.08767579  1
  O  O186  1  0.34909258  0.17554664  0.74548086  1
  O  O187  1  0.84388285  0.17017927  0.74185461  1
  O  O188  1  0.23168990  0.30651043  0.74477462  1
  O  O189  1  0.74139253  0.31619214  0.74263019  1
  O  O190  1  0.41520576  0.51632166  0.74578265  1
  O  O191  1  0.91290333  0.52304968  0.74172086  1
  O  O192  1  0.34204642  0.51289215  0.24616952  1
  O  O193  1  0.84206316  0.51328941  0.24620276  1
  O  O194  1  0.40899921  0.29501785  0.24555919  1
  O  O195  1  0.90892909  0.29501143  0.24557118  1
  O  O196  1  0.23233929  0.15355520  0.24513428  1
  O  O197  1  0.73249079  0.15372781  0.24505692  1
  O  O198  1  0.32262823  0.49777187  0.92528309  1
  O  O199  1  0.82313046  0.49646751  0.92336521  1
  O  O200  1  0.42604599  0.35175339  0.92420898  1
  O  O201  1  0.92708233  0.35664899  0.92561751  1
  O  O202  1  0.25405485  0.14666687  0.92609394  1
  O  O203  1  0.75387277  0.14140582  0.92439933  1
  O  O204  1  0.32438311  0.15086697  0.42484386  1
  O  O205  1  0.82422598  0.14973095  0.42513195  1
  O  O206  1  0.25402035  0.36094754  0.42601660  1
  O  O207  1  0.75383678  0.36107368  0.42655120  1
  O  O208  1  0.42764500  0.49769354  0.42577772  1
  O  O209  1  0.92752968  0.49752497  0.42626685  1
  O  O210  1  0.17879913  0.50230044  0.07408065  1
  O  O211  1  0.67894178  0.50240338  0.07385818  1
  O  O212  1  0.07352135  0.63882432  0.07389433  1
  O  O213  1  0.57337863  0.63918605  0.07380784  1
  O  O214  1  0.24906794  0.84974038  0.07496510  1
  O  O215  1  0.74921494  0.84955300  0.07485758  1
  O  O216  1  0.17882894  0.85519263  0.57424670  1
  O  O217  1  0.68307212  0.85901905  0.57559839  1
  O  O218  1  0.25068282  0.65078147  0.57411913  1
  O  O219  1  0.74880802  0.64814745  0.57614235  1
  O  O220  1  0.07178638  0.50905473  0.57627150  1
  O  O221  1  0.57450378  0.50391239  0.57463076  1
  O  O222  1  0.15556731  0.84637638  0.25506401  1
  O  O223  1  0.65573724  0.84664791  0.25494544  1
  O  O224  1  0.26132476  0.70475314  0.25442509  1
  O  O225  1  0.76136754  0.70494936  0.25436409  1
  O  O226  1  0.08546283  0.48676480  0.25375020  1
  O  O227  1  0.58565382  0.48673958  0.25376714  1
  O  O228  1  0.15360843  0.46228156  0.75538185  1
  O  O229  1  0.65411282  0.47801706  0.75752248  1
  O  O230  1  0.08583511  0.68302282  0.75447568  1
  O  O231  1  0.58301188  0.68636967  0.75802661  1
  O  O232  1  0.25957108  0.82187540  0.75368835  1
  O  O233  1  0.76121665  0.82650394  0.75813119  1
