# generated using pymatgen
data_Na4Ti3Zn(PO4)6
_symmetry_space_group_name_H-M   'P 1'
_cell_length_a   8.73860985
_cell_length_b   8.75103396
_cell_length_c   22.15241334
_cell_angle_alpha   90.00072378
_cell_angle_beta   89.99391920
_cell_angle_gamma   119.97393106
_symmetry_Int_Tables_number   1
_chemical_formula_structural   Na4Ti3Zn(PO4)6
_chemical_formula_sum   'Na12 Ti9 Zn3 P18 O72'
_cell_volume   1467.46387283
_cell_formula_units_Z   3
loop_
 _symmetry_equiv_pos_site_id
 _symmetry_equiv_pos_as_xyz
  1  'x, y, z'
loop_
 _atom_site_type_symbol
 _atom_site_label
 _atom_site_symmetry_multiplicity
 _atom_site_fract_x
 _atom_site_fract_y
 _atom_site_fract_z
 _atom_site_occupancy
  Na  Na0  1  0.64012383  0.00926020  0.24714210  1
  Na  Na1  1  0.36939054  0.35997771  0.24721724  1
  Na  Na2  1  0.99084882  0.63002182  0.24691370  1
  Na  Na3  1  0.99101910  0.36511612  0.74632369  1
  Na  Na4  1  0.37248797  0.00537889  0.74634696  1
  Na  Na5  1  0.70722286  0.67377471  0.41550713  1
  Na  Na6  1  0.00942770  0.00995869  0.49707801  1
  Na  Na7  1  0.00013051  0.00027987  0.00018904  1
  Na  Na8  1  0.66577887  0.34231839  0.83363993  1
  Na  Na9  1  0.66573231  0.32434454  0.33354742  1
  Na  Na10  1  0.33336109  0.66662911  0.16205809  1
  Na  Na11  1  0.34281261  0.66552306  0.66309091  1
  Ti  Ti12  1  0.00103347  0.99910004  0.85480704  1
  Ti  Ti13  1  0.99641259  0.99686331  0.64289494  1
  Ti  Ti14  1  0.00133489  0.00105560  0.14448118  1
  Ti  Ti15  1  0.66712247  0.33239770  0.98199648  1
  Ti  Ti16  1  0.66590993  0.32712417  0.48315891  1
  Ti  Ti17  1  0.33269033  0.66641879  0.02000826  1
  Ti  Ti18  1  0.33189744  0.66527601  0.52067067  1
  Ti  Ti19  1  0.33206482  0.66742425  0.31689093  1
  Ti  Ti20  1  0.33885700  0.66556266  0.81619066  1
  Zn  Zn21  1  0.00655121  0.00744284  0.35287301  1
  Zn  Zn22  1  0.66540247  0.34044416  0.68151627  1
  Zn  Zn23  1  0.66686507  0.33327370  0.17782795  1
  P  P24  1  0.29032942  -0.00013465  0.25067146  1
  P  P25  1  0.70913793  0.70939494  0.25160048  1
  P  P26  1  -0.00031416  0.29003098  0.25078163  1
  P  P27  1  0.28706318  0.28830883  0.75051046  1
  P  P28  1  0.99821258  0.71248766  0.75087561  1
  P  P29  1  0.71195262  0.99406141  0.75073530  1
  P  P30  1  0.95983125  0.33413881  0.58501987  1
  P  P31  1  0.37463800  0.03966621  0.58497855  1
  P  P32  1  0.66508767  0.62392142  0.58299551  1
  P  P33  1  0.95990958  0.62603903  0.08352897  1
  P  P34  1  0.66547449  0.03931465  0.08362543  1
  P  P35  1  0.37450763  0.33470057  0.08349974  1
  P  P36  1  0.62346962  0.66584941  0.91804934  1
  P  P37  1  0.04347782  0.37756418  0.91682189  1
  P  P38  1  0.33491941  0.95653914  0.91694162  1
  P  P39  1  0.62069392  0.95912252  0.41818988  1
  P  P40  1  0.33211878  0.37511140  0.41845541  1
  P  P41  1  0.04249057  0.66409029  0.41852241  1
  O  O42  1  0.21280878  0.03471779  0.30618940  1
  O  O43  1  0.81604289  0.78313955  0.30924258  1
  O  O44  1  0.96245066  0.17619334  0.30611445  1
  O  O45  1  0.19229143  0.16988778  0.80654170  1
  O  O46  1  0.97961173  0.80865643  0.80689738  1
  O  O47  1  0.83102069  0.02147490  0.80624191  1
  O  O48  1  0.80000451  0.96828921  0.69401350  1
  O  O49  1  0.16585156  0.20258673  0.69469607  1
  O  O50  1  0.03357068  0.83378017  0.69501744  1
  O  O51  1  0.79980470  0.83399260  0.19605705  1
  O  O52  1  0.03584072  0.20288495  0.19433512  1
  O  O53  1  0.16772933  0.96477985  0.19416036  1
  O  O54  1  0.89186837  0.36932440  0.64348948  1
  O  O55  1  0.47891749  0.10713052  0.64331032  1
  O  O56  1  0.62700135  0.51525373  0.63943040  1
  O  O57  1  0.89536930  0.52451006  0.14242757  1
  O  O58  1  0.62874498  0.10442301  0.14236102  1
  O  O59  1  0.47569315  0.37109098  0.14246127  1
  O  O60  1  0.46985690  0.30658104  0.02870712  1
  O  O61  1  0.83669768  0.53018998  0.02872501  1
  O  O62  1  0.69360980  0.16293073  0.02876392  1
  O  O63  1  0.46992150  0.16414493  0.52960846  1
  O  O64  1  0.69608312  0.53848623  0.52530418  1
  O  O65  1  0.83604290  0.30609688  0.52961837  1
  O  O66  1  0.53353817  0.69495333  0.97242190  1
  O  O67  1  0.16310717  0.46857177  0.97121674  1
  O  O68  1  0.30594352  0.83722685  0.97135684  1
  O  O69  1  0.52349728  0.83682187  0.47159162  1
  O  O70  1  0.31606103  0.47689380  0.47233572  1
  O  O71  1  0.16135268  0.68417012  0.47213547  1
  O  O72  1  0.13081732  0.63772700  0.35971814  1
  O  O73  1  0.50587244  0.87105172  0.35927983  1
  O  O74  1  0.36553404  0.49564923  0.36016938  1
  O  O75  1  0.13055665  0.49179383  0.85879793  1
  O  O76  1  0.36160806  0.86934496  0.85890903  1
  O  O77  1  0.50405603  0.63895803  0.86115386  1
  O  O78  1  0.01863196  0.82379633  0.41513242  1
  O  O79  1  0.79892043  0.96949998  0.41430759  1
  O  O80  1  0.16959161  0.19619392  0.41510621  1
  O  O81  1  0.02571430  0.19346527  0.90940696  1
  O  O82  1  0.16803477  0.97425958  0.90973779  1
  O  O83  1  0.80629574  0.83235374  0.90951934  1
  O  O84  1  0.97589909  0.16500271  0.58849106  1
  O  O85  1  0.18959859  0.02456514  0.58908099  1
  O  O86  1  0.83483329  0.81041978  0.58884566  1
  O  O87  1  0.97624757  0.81170133  0.08809672  1
  O  O88  1  0.83511735  0.02304068  0.08817440  1
  O  O89  1  0.18849481  0.16499527  0.08806944  1
  O  O90  1  0.69146531  0.15807713  0.74839267  1
  O  O91  1  0.46648803  0.30186583  0.74810714  1
  O  O92  1  0.84047017  0.52746089  0.74859740  1
  O  O93  1  0.68111272  0.52284583  0.24437516  1
  O  O94  1  0.84216496  0.32000815  0.24375222  1
  O  O95  1  0.47765510  0.15757610  0.24386807  1
  O  O96  1  0.63987863  0.49941569  0.92352048  1
  O  O97  1  0.85961291  0.36023002  0.92353953  1
  O  O98  1  0.50062872  0.14054716  0.92353370  1
  O  O99  1  0.63268509  0.14088632  0.42375859  1
  O  O100  1  0.50826962  0.37100124  0.42330125  1
  O  O101  1  0.85772116  0.49384392  0.42327433  1
  O  O102  1  0.35008386  0.49641501  0.07228836  1
  O  O103  1  0.14611721  0.64980443  0.07226455  1
  O  O104  1  0.50327874  0.85373498  0.07221854  1
  O  O105  1  0.35025927  0.85457880  0.57313155  1
  O  O106  1  0.50506651  0.65200223  0.57290662  1
  O  O107  1  0.14527155  0.49541442  0.57366425  1
  O  O108  1  0.30340487  0.82588810  0.25503781  1
  O  O109  1  0.52191721  0.69602493  0.25527457  1
  O  O110  1  0.17371034  0.47681056  0.25557584  1
  O  O111  1  0.29710201  0.47129251  0.75754867  1
  O  O112  1  0.17185282  0.70009574  0.75682787  1
  O  O113  1  0.52407985  0.82797181  0.75696463  1
