# generated using pymatgen
data_NaMgMnO2
_symmetry_space_group_name_H-M   'P 1'
_cell_length_a   7.27206439
_cell_length_b   6.02901313
_cell_length_c   7.27206333
_cell_angle_alpha   32.72840081
_cell_angle_beta   43.21441567
_cell_angle_gamma   32.72842391
_symmetry_Int_Tables_number   1
_chemical_formula_structural   NaMgMnO2
_chemical_formula_sum   'Na1 Mg1 Mn1 O2'
_cell_volume   92.95462374
_cell_formula_units_Z   1
loop_
 _symmetry_equiv_pos_site_id
 _symmetry_equiv_pos_as_xyz
  1  'x, y, z'
loop_
 _atom_site_type_symbol
 _atom_site_label
 _atom_site_symmetry_multiplicity
 _atom_site_fract_x
 _atom_site_fract_y
 _atom_site_fract_z
 _atom_site_occupancy
  Na  Na0  1  0.50000000  0.50000000  0.50000000  1
  Mg  Mg1  1  0.50000000  -0.00000000  0.50000000  1
  Mn  Mn2  1  0.00000000  -0.00000000  0.00000000  1
  O  O3  1  0.24971032  0.29227194  0.24971035  1
  O  O4  1  0.75028968  0.70772806  0.75028965  1
