# generated using pymatgen
data_CdH4NCl3
_symmetry_space_group_name_H-M   'P 1'
_cell_length_a   4.02391247
_cell_length_b   9.16824750
_cell_length_c   14.67617345
_cell_angle_alpha   90.00000000
_cell_angle_beta   90.00000000
_cell_angle_gamma   90.00000000
_symmetry_Int_Tables_number   1
_chemical_formula_structural   CdH4NCl3
_chemical_formula_sum   'Cd4 H16 N4 Cl12'
_cell_volume   541.43669956
_cell_formula_units_Z   4
loop_
 _symmetry_equiv_pos_site_id
 _symmetry_equiv_pos_as_xyz
  1  'x, y, z'
loop_
 _atom_site_type_symbol
 _atom_site_label
 _atom_site_symmetry_multiplicity
 _atom_site_fract_x
 _atom_site_fract_y
 _atom_site_fract_z
 _atom_site_occupancy
  Cd  Cd0  1  0.75000000  0.83478471  0.05714661  1
  Cd  Cd1  1  0.25000000  0.16521529  0.94285339  1
  Cd  Cd2  1  0.75000000  0.33478471  0.44285339  1
  Cd  Cd3  1  0.25000000  0.66521529  0.55714661  1
  H  H4  1  0.04622266  0.38489198  0.19377170  1
  H  H5  1  0.54622266  0.61510802  0.80622830  1
  H  H6  1  0.45377734  0.88489198  0.30622830  1
  H  H7  1  0.95377734  0.11510802  0.69377170  1
  H  H8  1  0.95377734  0.61510802  0.80622830  1
  H  H9  1  0.45377734  0.38489198  0.19377170  1
  H  H10  1  0.54622266  0.11510802  0.69377170  1
  H  H11  1  0.04622266  0.88489198  0.30622830  1
  H  H12  1  0.75000000  0.46096778  0.78136037  1
  H  H13  1  0.25000000  0.53903222  0.21863963  1
  H  H14  1  0.75000000  0.96096778  0.71863963  1
  H  H15  1  0.25000000  0.03903222  0.28136037  1
  H  H16  1  0.75000000  0.51980473  0.88875316  1
  H  H17  1  0.25000000  0.48019527  0.11124684  1
  H  H18  1  0.75000000  0.01980473  0.61124684  1
  H  H19  1  0.25000000  0.98019527  0.38875316  1
  N  N20  1  0.25000000  0.94793955  0.32179029  1
  N  N21  1  0.75000000  0.05206045  0.67820971  1
  N  N22  1  0.25000000  0.44793955  0.17820971  1
  N  N23  1  0.75000000  0.55206045  0.82179029  1
  Cl  Cl24  1  0.75000000  0.72925923  0.21798963  1
  Cl  Cl25  1  0.25000000  0.27074077  0.78201037  1
  Cl  Cl26  1  0.75000000  0.22925923  0.28201037  1
  Cl  Cl27  1  0.25000000  0.77074077  0.71798963  1
  Cl  Cl28  1  0.25000000  0.66984297  -0.00162406  1
  Cl  Cl29  1  0.75000000  0.33015703  0.00162406  1
  Cl  Cl30  1  0.25000000  0.16984297  0.50162406  1
  Cl  Cl31  1  0.75000000  0.83015703  0.49837594  1
  Cl  Cl32  1  0.75000000  0.97555056  0.89976646  1
  Cl  Cl33  1  0.25000000  0.02444944  0.10023354  1
  Cl  Cl34  1  0.75000000  0.47555056  0.60023354  1
  Cl  Cl35  1  0.25000000  0.52444944  0.39976646  1
