# generated using pymatgen
data_MgCr4O8
_symmetry_space_group_name_H-M   'P 1'
_cell_length_a   5.06351444
_cell_length_b   5.20398720
_cell_length_c   5.91905176
_cell_angle_alpha   93.87533235
_cell_angle_beta   75.42701260
_cell_angle_gamma   95.33168344
_symmetry_Int_Tables_number   1
_chemical_formula_structural   MgCr4O8
_chemical_formula_sum   'Mg1 Cr4 O8'
_cell_volume   150.14056372
_cell_formula_units_Z   1
loop_
 _symmetry_equiv_pos_site_id
 _symmetry_equiv_pos_as_xyz
  1  'x, y, z'
loop_
 _atom_site_type_symbol
 _atom_site_label
 _atom_site_symmetry_multiplicity
 _atom_site_fract_x
 _atom_site_fract_y
 _atom_site_fract_z
 _atom_site_occupancy
  Mg  Mg0  1  0.17460116  0.08058490  0.36600328  1
  Cr  Cr1  1  0.52539596  0.24394901  0.67485370  1
  Cr  Cr2  1  0.00375248  0.75112029  0.84823948  1
  Cr  Cr3  1  0.59776443  0.69917835  0.42303946  1
  Cr  Cr4  1  0.91387866  0.24954740  0.06820576  1
  O  O5  1  0.77299722  0.07375071  0.85253692  1
  O  O6  1  0.76380604  0.58006036  0.62757937  1
  O  O7  1  0.30888596  0.89491248  0.58444225  1
  O  O8  1  0.20114305  0.45083533  0.91024887  1
  O  O9  1  0.17548737  0.99273202  0.03947864  1
  O  O10  1  0.35816342  0.39665023  0.46077162  1
  O  O11  1  0.78001811  0.09560686  0.38179337  1
  O  O12  1  0.73660516  0.59107205  0.11994930  1
