# generated using pymatgen
data_Na2YGe(PO4)3
_symmetry_space_group_name_H-M   'P 1'
_cell_length_a   8.98463127
_cell_length_b   8.98463097
_cell_length_c   22.34171192
_cell_angle_alpha   90.47321916
_cell_angle_beta   89.52678084
_cell_angle_gamma   120.61789160
_symmetry_Int_Tables_number   1
_chemical_formula_structural   Na2YGe(PO4)3
_chemical_formula_sum   'Na12 Y6 Ge6 P18 O72'
_cell_volume   1551.99421381
_cell_formula_units_Z   6
loop_
 _symmetry_equiv_pos_site_id
 _symmetry_equiv_pos_as_xyz
  1  'x, y, z'
loop_
 _atom_site_type_symbol
 _atom_site_label
 _atom_site_symmetry_multiplicity
 _atom_site_fract_x
 _atom_site_fract_y
 _atom_site_fract_z
 _atom_site_occupancy
  Na  Na0  1  0.35672213  0.34544417  0.25114364  1
  Na  Na1  1  0.65455583  0.64327787  0.75114364  1
  Na  Na2  1  0.02338913  0.67877717  0.58447664  1
  Na  Na3  1  0.32122283  0.97661087  0.08447664  1
  Na  Na4  1  0.69005513  0.01211117  0.91781064  1
  Na  Na5  1  0.98788883  0.30994487  0.41781064  1
  Na  Na6  1  0.99827838  0.99843590  0.50313892  1
  Na  Na7  1  0.00156410  0.00172162  0.00313892  1
  Na  Na8  1  0.66494538  0.33176890  0.83647192  1
  Na  Na9  1  0.66823110  0.33505462  0.33647192  1
  Na  Na10  1  0.33161138  0.66510290  0.16980592  1
  Na  Na11  1  0.33489710  0.66838862  0.66980592  1
  Y  Y12  1  0.99550634  0.98669036  0.35622736  1
  Y  Y13  1  0.01330964  0.00449366  0.85622736  1
  Y  Y14  1  0.66217334  0.32002336  0.68956036  1
  Y  Y15  1  0.67997664  0.33782666  0.18956036  1
  Y  Y16  1  0.32883934  0.65335736  0.02289436  1
  Y  Y17  1  0.34664264  0.67116066  0.52289436  1
  Ge  Ge18  1  0.00467102  0.01102880  0.64789558  1
  Ge  Ge19  1  0.98897120  0.99532898  0.14789558  1
  Ge  Ge20  1  0.67133802  0.34436180  0.98122858  1
  Ge  Ge21  1  0.65563820  0.32866198  0.48122858  1
  Ge  Ge22  1  0.33800402  0.67769580  0.31456258  1
  Ge  Ge23  1  0.32230420  0.66199598  0.81456258  1
  P  P24  1  0.27989370  0.97453417  0.24747448  1
  P  P25  1  0.69093720  0.71927826  0.24838054  1
  P  P26  1  0.02200662  0.30257874  0.25341944  1
  P  P27  1  0.28072174  0.30906280  0.74838054  1
  P  P28  1  0.02546583  0.72010630  0.74747448  1
  P  P29  1  0.69742126  0.97799338  0.75341944  1
  P  P30  1  0.94656070  0.30786717  0.58080748  1
  P  P31  1  0.35760420  0.05261126  0.58171354  1
  P  P32  1  0.68867362  0.63591174  0.58675244  1
  P  P33  1  0.94738874  0.64239580  0.08171354  1
  P  P34  1  0.69213283  0.05343930  0.08080748  1
  P  P35  1  0.36408826  0.31132638  0.08675244  1
  P  P36  1  0.61322670  0.64120117  0.91414148  1
  P  P37  1  0.02427020  0.38594526  0.91504754  1
  P  P38  1  0.35533962  0.96924574  0.92008644  1
  P  P39  1  0.61405474  0.97572980  0.41504754  1
  P  P40  1  0.35879883  0.38677330  0.41414148  1
  P  P41  1  0.03075426  0.64466038  0.42008644  1
  O  O42  1  0.19958232  0.01122825  0.30068714  1
  O  O43  1  0.79332273  0.79152184  0.30479945  1
  O  O44  1  0.00621166  0.20966625  0.31141105  1
  O  O45  1  0.20847816  0.20667727  0.80479945  1
  O  O46  1  0.98877175  0.80041768  0.80068714  1
  O  O47  1  0.79033375  0.99378834  0.81141105  1
  O  O48  1  0.79560919  0.95122894  0.69802019  1
  O  O49  1  0.16830273  0.21448550  0.69102088  1
  O  O50  1  0.04874289  0.82726753  0.68812582  1
  O  O51  1  0.78551450  0.83169727  0.19102088  1
  O  O52  1  0.04877106  0.20439081  0.19802019  1
  O  O53  1  0.17273247  0.95125711  0.18812582  1
  O  O54  1  0.86624932  0.34456125  0.63402014  1
  O  O55  1  0.45998973  0.12485484  0.63813245  1
  O  O56  1  0.67287866  0.54299925  0.64474405  1
  O  O57  1  0.87514516  0.54001027  0.13813245  1
  O  O58  1  0.65543875  0.13375068  0.13402014  1
  O  O59  1  0.45700075  0.32712134  0.14474405  1
  O  O60  1  0.46227619  0.28456194  0.03135319  1
  O  O61  1  0.83496973  0.54781850  0.02435388  1
  O  O62  1  0.71540989  0.16060053  0.02145882  1
  O  O63  1  0.45218150  0.16503027  0.52435388  1
  O  O64  1  0.71543806  0.53772381  0.53135319  1
  O  O65  1  0.83939947  0.28459011  0.52145882  1
  O  O66  1  0.53291532  0.67789525  0.96735414  1
  O  O67  1  0.12665573  0.45818884  0.97146645  1
  O  O68  1  0.33954466  0.87633325  0.97807805  1
  O  O69  1  0.54181116  0.87334427  0.47146645  1
  O  O70  1  0.32210475  0.46708468  0.46735414  1
  O  O71  1  0.12366675  0.66045534  0.47807805  1
  O  O72  1  0.12894219  0.61789594  0.36468719  1
  O  O73  1  0.50163573  0.88115250  0.35768788  1
  O  O74  1  0.38207589  0.49393453  0.35479282  1
  O  O75  1  0.11884750  0.49836427  0.85768788  1
  O  O76  1  0.38210406  0.87105781  0.86468719  1
  O  O77  1  0.50606547  0.61792411  0.85479282  1
  O  O78  1  0.00093525  0.79542615  0.41460449  1
  O  O79  1  0.80142953  0.01699110  0.40882524  1
  O  O80  1  0.20161597  0.20262707  0.40966056  1
  O  O81  1  0.98300890  0.19857047  0.90882524  1
  O  O82  1  0.20457385  0.99906475  0.91460449  1
  O  O83  1  0.79737293  0.79838403  0.90966056  1
  O  O84  1  0.95246588  0.13736726  0.58941157  1
  O  O85  1  0.17978337  0.04681643  0.58700422  1
  O  O86  1  0.86399727  0.81739745  0.58874943  1
  O  O87  1  0.95318357  0.82021663  0.08700422  1
  O  O88  1  0.86263274  0.04753412  0.08941157  1
  O  O89  1  0.18260255  0.13600273  0.08874943  1
  O  O90  1  0.66760225  0.12875915  0.74793749  1
  O  O91  1  0.46809653  0.35032410  0.74215824  1
  O  O92  1  0.86828297  0.53596007  0.74299356  1
  O  O93  1  0.64967590  0.53190347  0.24215824  1
  O  O94  1  0.87124085  0.33239775  0.24793749  1
  O  O95  1  0.46403993  0.13171703  0.24299356  1
  O  O96  1  0.61913288  0.47070026  0.92274457  1
  O  O97  1  0.84645037  0.38014943  0.92033722  1
  O  O98  1  0.53066427  0.15073045  0.92208243  1
  O  O99  1  0.61985057  0.15354963  0.42033722  1
  O  O100  1  0.52929974  0.38086712  0.42274457  1
  O  O101  1  0.84926955  0.46933573  0.42208243  1
  O  O102  1  0.33426825  0.46209315  0.08127149  1
  O  O103  1  0.13476253  0.68365810  0.07549224  1
  O  O104  1  0.53494897  0.86929407  0.07632756  1
  O  O105  1  0.31634190  0.86523747  0.57549224  1
  O  O106  1  0.53790685  0.66573175  0.58127149  1
  O  O107  1  0.13070593  0.46505103  0.57632756  1
  O  O108  1  0.28579888  0.80403426  0.25607857  1
  O  O109  1  0.51311637  0.71348343  0.25367122  1
  O  O110  1  0.19733027  0.48406445  0.25541643  1
  O  O111  1  0.28651657  0.48688363  0.75367122  1
  O  O112  1  0.19596574  0.71420112  0.75607857  1
  O  O113  1  0.51593555  0.80266973  0.75541643  1
