# generated using pymatgen
data_KAg5S3
_symmetry_space_group_name_H-M   'P 1'
_cell_length_a   13.32530290
_cell_length_b   13.32531142
_cell_length_c   7.93105681
_cell_angle_alpha   90.00002264
_cell_angle_beta   89.99999975
_cell_angle_gamma   120.00012125
_symmetry_Int_Tables_number   1
_chemical_formula_structural   KAg5S3
_chemical_formula_sum   'K6 Ag30 S18'
_cell_volume   1219.59495522
_cell_formula_units_Z   6
loop_
 _symmetry_equiv_pos_site_id
 _symmetry_equiv_pos_as_xyz
  1  'x, y, z'
loop_
 _atom_site_type_symbol
 _atom_site_label
 _atom_site_symmetry_multiplicity
 _atom_site_fract_x
 _atom_site_fract_y
 _atom_site_fract_z
 _atom_site_occupancy
  K  K0  1  0.33333310  0.66666706  0.50111776  1
  K  K1  1  0.33333317  0.66666716  0.99888261  1
  K  K2  1  0.66666700  0.33333317  0.49888268  1
  K  K3  1  0.66666708  0.33333299  0.00111738  1
  K  K4  1  0.00000027  0.00000013  0.49999955  1
  K  K5  1  0.00000012  0.00000028  0.00000004  1
  Ag  Ag6  1  0.99482278  0.70140371  0.75000188  1
  Ag  Ag7  1  0.70658045  0.00517682  0.75000107  1
  Ag  Ag8  1  0.29859635  0.29341836  0.75000123  1
  Ag  Ag9  1  0.29341794  0.29859643  0.24999870  1
  Ag  Ag10  1  0.00517737  0.70658092  0.24999902  1
  Ag  Ag11  1  0.70140439  0.99482165  0.24999897  1
  Ag  Ag12  1  0.46502680  0.46502682  0.50000011  1
  Ag  Ag13  1  -0.00000009  0.53497497  -0.00000001  1
  Ag  Ag14  1  0.53497591  -0.00000016  0.00000029  1
  Ag  Ag15  1  0.53497571  -0.00000013  0.49999975  1
  Ag  Ag16  1  0.99999909  0.53497499  0.50000055  1
  Ag  Ag17  1  0.46502689  0.46502691  -0.00000004  1
  Ag  Ag18  1  0.18403688  0.85047608  0.50099233  1
  Ag  Ag19  1  0.14952248  0.33356153  0.50099276  1
  Ag  Ag20  1  0.66643926  0.81596171  0.50099203  1
  Ag  Ag21  1  0.81596282  0.66643922  0.49900816  1
  Ag  Ag22  1  0.66643918  0.81596232  0.99900800  1
  Ag  Ag23  1  0.18403677  0.85047599  0.99900768  1
  Ag  Ag24  1  0.14952172  0.33356141  0.99900728  1
  Ag  Ag25  1  0.85047649  0.18403783  0.00099254  1
  Ag  Ag26  1  0.33356120  0.14952259  0.00099245  1
  Ag  Ag27  1  0.33356187  0.14952347  0.49900725  1
  Ag  Ag28  1  0.85047664  0.18403804  0.49900748  1
  Ag  Ag29  1  0.81596254  0.66643925  0.00099206  1
  Ag  Ag30  1  0.63277312  0.63420515  0.24999994  1
  Ag  Ag31  1  0.36579404  0.99856599  0.24999838  1
  Ag  Ag32  1  0.00143189  0.36722727  0.24999836  1
  Ag  Ag33  1  0.36722714  0.00143244  0.75000167  1
  Ag  Ag34  1  0.99856525  0.36579404  0.75000134  1
  Ag  Ag35  1  0.63420553  0.63277298  0.75000012  1
  S  S36  1  0.55200525  0.77774224  0.25000012  1
  S  S37  1  0.22225780  0.77426301  0.25000007  1
  S  S38  1  0.22573670  0.44799484  0.25000001  1
  S  S39  1  0.44799502  0.22573715  0.74999996  1
  S  S40  1  0.77426269  0.22225739  0.74999998  1
  S  S41  1  0.77774264  0.55200536  0.75000007  1
  S  S42  1  0.53348815  0.41688702  0.25000007  1
  S  S43  1  0.58311254  0.11660092  0.25000006  1
  S  S44  1  0.88339857  0.46651161  0.25000004  1
  S  S45  1  0.46651139  0.88339888  0.74999993  1
  S  S46  1  0.11660094  0.58311238  0.74999991  1
  S  S47  1  0.41688715  0.53348835  0.74999999  1
  S  S48  1  0.86628743  0.78326164  0.25000007  1
  S  S49  1  0.21673853  0.08302588  0.24999998  1
  S  S50  1  0.91697454  0.13371313  0.25000013  1
  S  S51  1  0.13371385  0.91697701  0.74999828  1
  S  S52  1  0.08302590  0.21673852  0.74999992  1
  S  S53  1  0.78326180  0.86628731  0.75000006  1
