# generated using pymatgen
data_MgTi(FeO2)4
_symmetry_space_group_name_H-M   'P 1'
_cell_length_a   6.20826339
_cell_length_b   6.26783869
_cell_length_c   6.36761788
_cell_angle_alpha   56.27236797
_cell_angle_beta   55.34228872
_cell_angle_gamma   55.66043114
_symmetry_Int_Tables_number   1
_chemical_formula_structural   MgTi(FeO2)4
_chemical_formula_sum   'Mg1 Ti1 Fe4 O8'
_cell_volume   157.94625744
_cell_formula_units_Z   1
loop_
 _symmetry_equiv_pos_site_id
 _symmetry_equiv_pos_as_xyz
  1  'x, y, z'
loop_
 _atom_site_type_symbol
 _atom_site_label
 _atom_site_symmetry_multiplicity
 _atom_site_fract_x
 _atom_site_fract_y
 _atom_site_fract_z
 _atom_site_occupancy
  Mg  Mg0  1  0.00000000  0.00000000  0.00000000  1
  Ti  Ti1  1  0.50000000  0.50000000  0.00000000  1
  Fe  Fe2  1  0.18013900  0.14157100  0.14779700  1
  Fe  Fe3  1  0.50000000  0.00000000  0.50000000  1
  Fe  Fe4  1  0.50000000  0.50000000  0.50000000  1
  Fe  Fe5  1  0.81986100  0.85842900  0.85220300  1
  O  O6  1  0.26492400  0.28157700  0.27233300  1
  O  O7  1  0.27291400  0.76009900  0.20516000  1
  O  O8  1  0.28183700  0.23635700  0.77636200  1
  O  O9  1  0.75633300  0.24616600  0.22782600  1
  O  O10  1  0.24366700  0.75383400  0.77217400  1
  O  O11  1  0.71816300  0.76364300  0.22363800  1
  O  O12  1  0.72708600  0.23990100  0.79484000  1
  O  O13  1  0.73507600  0.71842300  0.72766700  1
