# generated using pymatgen
data_Ta2Si3Ge2(SO8)3
_symmetry_space_group_name_H-M   'P 1'
_cell_length_a   8.65176080
_cell_length_b   8.66871966
_cell_length_c   22.41673703
_cell_angle_alpha   88.92869185
_cell_angle_beta   90.87151507
_cell_angle_gamma   119.55120698
_symmetry_Int_Tables_number   1
_chemical_formula_structural   Ta2Si3Ge2(SO8)3
_chemical_formula_sum   'Ta6 Si9 Ge6 S9 O72'
_cell_volume   1462.25322902
_cell_formula_units_Z   3
loop_
 _symmetry_equiv_pos_site_id
 _symmetry_equiv_pos_as_xyz
  1  'x, y, z'
loop_
 _atom_site_type_symbol
 _atom_site_label
 _atom_site_symmetry_multiplicity
 _atom_site_fract_x
 _atom_site_fract_y
 _atom_site_fract_z
 _atom_site_occupancy
  Ta  Ta0  1  0.99110716  0.00971242  0.64125447  1
  Ta  Ta1  1  0.01271422  0.01494282  0.13868362  1
  Ta  Ta2  1  0.65676959  0.33456115  0.97405654  1
  Ta  Ta3  1  0.67559399  0.33362566  0.47792481  1
  Ta  Ta4  1  0.33145539  0.66783395  0.30872949  1
  Ta  Ta5  1  0.34492385  0.67730589  0.80521167  1
  Si  Si6  1  0.98177225  0.28152272  0.24885768  1
  Si  Si7  1  0.30047780  0.28457598  0.74830612  1
  Si  Si8  1  0.73183228  0.02035749  0.75211053  1
  Si  Si9  1  0.96673674  0.35838097  0.58558881  1
  Si  Si10  1  0.66886546  0.61225196  0.58576631  1
  Si  Si11  1  0.95615001  0.61750382  0.08208837  1
  Si  Si12  1  0.39875166  0.35719519  0.08390054  1
  Si  Si13  1  0.31577498  0.94096592  0.91656658  1
  Si  Si14  1  0.61483444  0.94329453  0.41953277  1
  Ge  Ge15  1  0.97638109  0.00877381  0.35715490  1
  Ge  Ge16  1  0.02704015  0.01933149  0.84882616  1
  Ge  Ge17  1  0.67574143  0.34174572  0.69077605  1
  Ge  Ge18  1  0.68754708  0.34989345  0.18162949  1
  Ge  Ge19  1  0.30693815  0.65672005  0.02261376  1
  Ge  Ge20  1  0.35773012  0.67764699  0.53207638  1
  S  S21  1  0.28747523  0.00978020  0.25158555  1
  S  S22  1  0.71778503  0.71069097  0.25099147  1
  S  S23  1  0.99303327  0.71192229  0.75069524  1
  S  S24  1  0.38166736  0.04330894  0.58330300  1
  S  S25  1  0.65669078  0.04243341  0.08324981  1
  S  S26  1  0.62438894  0.67910751  0.91703298  1
  S  S27  1  0.04862541  0.37432446  0.91693838  1
  S  S28  1  0.32236867  0.36949599  0.41615409  1
  S  S29  1  0.04794911  0.67899282  0.41477545  1
  O  O30  1  0.20405379  0.03113161  0.30516182  1
  O  O31  1  0.82775725  0.78778960  0.30583146  1
  O  O32  1  0.95740066  0.16096561  0.30895664  1
  O  O33  1  0.21685210  0.16511104  0.80883003  1
  O  O34  1  0.96375172  0.78988949  0.80470847  1
  O  O35  1  0.84739030  0.03397868  0.81257725  1
  O  O36  1  0.80592513  0.96799992  0.69339637  1
  O  O37  1  0.16788094  0.18914041  0.69192226  1
  O  O38  1  0.03217973  0.82289712  0.69697447  1
  O  O39  1  0.79248965  0.82407193  0.19805141  1
  O  O40  1  0.02175594  0.18952875  0.19312941  1
  O  O41  1  0.17121763  0.96939407  0.19759060  1
  O  O42  1  0.86853550  0.37788794  0.64256572  1
  O  O43  1  0.49335756  0.11492528  0.63614360  1
  O  O44  1  0.63091003  0.48424730  0.64261170  1
  O  O45  1  0.87747022  0.49778257  0.14235328  1
  O  O46  1  0.62659203  0.12051744  0.13737463  1
  O  O47  1  0.51114695  0.36982729  0.14521219  1
  O  O48  1  0.47605893  0.30498701  0.02662270  1
  O  O49  1  0.83059711  0.52436502  0.02457929  1
  O  O50  1  0.69885496  0.15860374  0.03009665  1
  O  O51  1  0.46089312  0.15602258  0.52810733  1
  O  O52  1  0.68824199  0.52075183  0.52426360  1
  O  O53  1  0.83648615  0.30752716  0.52523285  1
  O  O54  1  0.54149367  0.69938183  0.97071628  1
  O  O55  1  0.15915908  0.44941395  0.97235498  1
  O  O56  1  0.29853629  0.82188850  0.97656015  1
  O  O57  1  0.51047865  0.81469424  0.47578107  1
  O  O58  1  0.28618069  0.44299154  0.46844383  1
  O  O59  1  0.15374163  0.70652221  0.46815157  1
  O  O60  1  0.12802773  0.64208777  0.36116262  1
  O  O61  1  0.49491589  0.85097877  0.35940229  1
  O  O62  1  0.35111215  0.48521181  0.36166060  1
  O  O63  1  0.12679345  0.48894331  0.86454857  1
  O  O64  1  0.35213140  0.85014321  0.85990288  1
  O  O65  1  0.50718851  0.63775084  0.86353741  1
  O  O66  1  0.03121594  0.83948575  0.40244475  1
  O  O67  1  0.81050283  0.96083790  0.41034440  1
  O  O68  1  0.16846761  0.18817543  0.40562660  1
  O  O69  1  0.02735353  0.19614765  0.91098867  1
  O  O70  1  0.13999358  0.96271748  0.90616964  1
  O  O71  1  0.80068239  0.82888424  0.90851286  1
  O  O72  1  0.98431922  0.17924437  0.58999240  1
  O  O73  1  0.20425951  0.02371864  0.58882058  1
  O  O74  1  0.84650778  0.80403023  0.59290040  1
  O  O75  1  0.97002949  0.80932181  0.09620988  1
  O  O76  1  0.82109395  0.02609964  0.09211854  1
  O  O77  1  0.20174685  0.17899470  0.09371276  1
  O  O78  1  0.70420728  0.18646226  0.73901979  1
  O  O79  1  0.49414000  0.31049945  0.73839253  1
  O  O80  1  0.83803065  0.53452832  0.74536603  1
  O  O81  1  0.69221370  0.53113937  0.24482808  1
  O  O82  1  0.80313267  0.29703127  0.23827057  1
  O  O83  1  0.46400621  0.15940432  0.24238791  1
  O  O84  1  0.63847123  0.51059414  0.92235087  1
  O  O85  1  0.87038022  0.35852064  0.92579831  1
  O  O86  1  0.49435874  0.13582059  0.92796078  1
  O  O87  1  0.63435531  0.13824112  0.42639797  1
  O  O88  1  0.48527906  0.35601806  0.42112691  1
  O  O89  1  0.86811674  0.51759160  0.41995357  1
  O  O90  1  0.37457448  0.52580664  0.06822334  1
  O  O91  1  0.15161203  0.64173360  0.07555354  1
  O  O92  1  0.50656708  0.86570867  0.07540641  1
  O  O93  1  0.35998814  0.86461567  0.57394422  1
  O  O94  1  0.49578781  0.63693664  0.57812518  1
  O  O95  1  0.15369677  0.52834951  0.56607841  1
  O  O96  1  0.30129359  0.84209104  0.25843544  1
  O  O97  1  0.53581386  0.69305642  0.25944021  1
  O  O98  1  0.15701776  0.47597238  0.26190923  1
  O  O99  1  0.30615772  0.47344311  0.76252615  1
  O  O100  1  0.15342792  0.68933246  0.75890264  1
  O  O101  1  0.53451820  0.84189494  0.76086340  1
