# generated using pymatgen
data_K2PdF4
_symmetry_space_group_name_H-M   'P 1'
_cell_length_a   4.26289199
_cell_length_b   5.57603289
_cell_length_c   5.57603269
_cell_angle_alpha   64.20901252
_cell_angle_beta   89.07654881
_cell_angle_gamma   89.07655140
_symmetry_Int_Tables_number   1
_chemical_formula_structural   K2PdF4
_chemical_formula_sum   'K2 Pd1 F4'
_cell_volume   119.31791917
_cell_formula_units_Z   1
loop_
 _symmetry_equiv_pos_site_id
 _symmetry_equiv_pos_as_xyz
  1  'x, y, z'
loop_
 _atom_site_type_symbol
 _atom_site_label
 _atom_site_symmetry_multiplicity
 _atom_site_fract_x
 _atom_site_fract_y
 _atom_site_fract_z
 _atom_site_occupancy
  K  K0  1  0.28009819  0.65107748  0.65107748  1
  K  K1  1  0.71990181  0.34892252  0.34892252  1
  Pd  Pd2  1  -0.00000000  -0.00000000  -0.00000000  1
  F  F3  1  0.77829912  0.86954317  0.34693711  1
  F  F4  1  0.22170088  0.65306289  0.13045683  1
  F  F5  1  0.22170088  0.13045683  0.65306289  1
  F  F6  1  0.77829912  0.34693711  0.86954317  1
