# generated using pymatgen
data_Na2TiZnSi(SO6)2
_symmetry_space_group_name_H-M   'P 1'
_cell_length_a   8.83519475
_cell_length_b   8.90354694
_cell_length_c   22.16655392
_cell_angle_alpha   89.92844700
_cell_angle_beta   90.00000000
_cell_angle_gamma   119.74637140
_symmetry_Int_Tables_number   1
_chemical_formula_structural   Na2TiZnSi(SO6)2
_chemical_formula_sum   'Na12 Ti6 Zn6 Si6 S12 O72'
_cell_volume   1513.95099978
_cell_formula_units_Z   6
loop_
 _symmetry_equiv_pos_site_id
 _symmetry_equiv_pos_as_xyz
  1  'x, y, z'
loop_
 _atom_site_type_symbol
 _atom_site_label
 _atom_site_symmetry_multiplicity
 _atom_site_fract_x
 _atom_site_fract_y
 _atom_site_fract_z
 _atom_site_occupancy
  Na  Na0  1  0.99402952  0.62939357  0.24208388  1
  Na  Na1  1  0.63536405  0.62939357  0.74208388  1
  Na  Na2  1  0.65171382  0.96073925  0.57610601  1
  Na  Na3  1  0.30902643  0.96073925  0.07610601  1
  Na  Na4  1  0.69740141  0.02736567  0.91031536  1
  Na  Na5  1  0.32996327  0.02736567  0.41031536  1
  Na  Na6  1  0.98668157  0.99682838  0.49308045  1
  Na  Na7  1  0.01014681  0.99682838  0.99308045  1
  Na  Na8  1  0.65942050  0.31589657  0.82699764  1
  Na  Na9  1  0.65647707  0.31589657  0.32699764  1
  Na  Na10  1  0.33177863  0.64813981  0.16027297  1
  Na  Na11  1  0.31636018  0.64813981  0.66027297  1
  Ti  Ti12  1  0.98467352  0.98590465  0.64737300  1
  Ti  Ti13  1  0.00123112  0.98590465  0.14737300  1
  Ti  Ti14  1  0.67085095  0.34315505  0.98003113  1
  Ti  Ti15  1  0.67230510  0.34315505  0.48003113  1
  Ti  Ti16  1  0.34937334  0.69449974  0.31406425  1
  Ti  Ti17  1  0.34512540  0.69449974  0.81406425  1
  Zn  Zn18  1  0.99817319  0.00960535  0.34937908  1
  Zn  Zn19  1  0.01143217  0.00960535  0.84937908  1
  Zn  Zn20  1  0.66124231  0.32162230  0.68329336  1
  Zn  Zn21  1  0.66038099  0.32162230  0.18329336  1
  Zn  Zn22  1  0.30632040  0.66648007  0.01619844  1
  Zn  Zn23  1  0.36015866  0.66648007  0.51619844  1
  Si  Si24  1  0.29902146  0.01033007  0.25439374  1
  Si  Si25  1  0.71130861  0.01033007  0.75439374  1
  Si  Si26  1  0.66362784  0.61843567  0.58946410  1
  Si  Si27  1  0.95480883  0.61843567  0.08946410  1
  Si  Si28  1  0.33037125  0.97294361  0.92069761  1
  Si  Si29  1  0.64257136  0.97294361  0.42069761  1
  S  S30  1  0.70410990  0.71130947  0.25115631  1
  S  S31  1  0.00789679  0.29547143  0.25012277  1
  S  S32  1  0.28757464  0.29547143  0.75012277  1
  S  S33  1  0.00719957  0.71130947  0.75115631  1
  S  S34  1  0.96076465  0.33296598  0.58286946  1
  S  S35  1  0.36565403  0.04210136  0.58194825  1
  S  S36  1  0.67644833  0.04210136  0.08194825  1
  S  S37  1  0.37220233  0.33296598  0.08286946  1
  S  S38  1  0.61532304  0.65753461  0.91809381  1
  S  S39  1  0.04104570  0.38020473  0.91776452  1
  S  S40  1  0.33915803  0.38020473  0.41776452  1
  S  S41  1  0.04221057  0.65753461  0.41809381  1
  O  O42  1  0.20693339  0.01734865  0.31553574  1
  O  O43  1  0.80973618  0.79236110  0.30455488  1
  O  O44  1  0.98581437  0.19936827  0.30556139  1
  O  O45  1  0.21355390  0.19936827  0.80556139  1
  O  O46  1  0.98262492  0.79236110  0.80455488  1
  O  O47  1  0.81041525  0.01734865  0.81553574  1
  O  O48  1  0.80963456  0.97091922  0.69478989  1
  O  O49  1  0.18206911  0.20199618  0.69584241  1
  O  O50  1  0.03279603  0.82022370  0.69560446  1
  O  O51  1  0.78742767  0.82022370  0.19560446  1
  O  O52  1  0.01992707  0.20199618  0.19584241  1
  O  O53  1  0.16128466  0.97091922  0.19478989  1
  O  O54  1  0.88422531  0.35424399  0.63816895  1
  O  O55  1  0.47974499  0.11684226  0.63437425  1
  O  O56  1  0.65246511  0.51917202  0.65041047  1
  O  O57  1  0.86670791  0.51917202  0.15041047  1
  O  O58  1  0.63709827  0.11684226  0.13437425  1
  O  O59  1  0.47001968  0.35424399  0.13816895  1
  O  O60  1  0.45844848  0.29909855  0.02914591  1
  O  O61  1  0.82655152  0.51307241  0.02997852  1
  O  O62  1  0.69294151  0.14627077  0.02572894  1
  O  O63  1  0.45333025  0.14627077  0.52572894  1
  O  O64  1  0.68652190  0.51307241  0.52997852  1
  O  O65  1  0.84065107  0.29909855  0.52914591  1
  O  O66  1  0.52494978  0.67488892  0.97029212  1
  O  O67  1  0.13869344  0.45154571  0.97320684  1
  O  O68  1  0.31662988  0.86982711  0.98129511  1
  O  O69  1  0.55319623  0.86982711  0.48129511  1
  O  O70  1  0.31285128  0.45154571  0.47320684  1
  O  O71  1  0.14993814  0.67488892  0.47029212  1
  O  O72  1  0.12219192  0.63614712  0.36050884  1
  O  O73  1  0.49783011  0.86269659  0.36237458  1
  O  O74  1  0.35595961  0.48522064  0.36350230  1
  O  O75  1  0.12926003  0.48522064  0.86350230  1
  O  O76  1  0.36486548  0.86269659  0.86237458  1
  O  O77  1  0.51395421  0.63614712  0.86050884  1
  O  O78  1  0.01980338  0.81032701  0.41412726  1
  O  O79  1  0.83048548  0.99474985  0.40993944  1
  O  O80  1  0.19623480  0.19951746  0.41347482  1
  O  O81  1  0.00328266  0.19951746  0.91347482  1
  O  O82  1  0.16426437  0.99474985  0.90993944  1
  O  O83  1  0.79052363  0.81032701  0.91412726  1
  O  O84  1  0.96953759  0.16652373  0.58632733  1
  O  O85  1  0.19755501  0.04218885  0.58778558  1
  O  O86  1  0.84862982  0.81930472  0.59193683  1
  O  O87  1  0.97067490  0.81930472  0.09193683  1
  O  O88  1  0.84463384  0.04218885  0.08778558  1
  O  O89  1  0.19698614  0.16652373  0.08632733  1
  O  O90  1  0.67746673  0.16787279  0.74374555  1
  O  O91  1  0.46860240  0.32685953  0.74621733  1
  O  O92  1  0.85608004  0.53780352  0.74541627  1
  O  O93  1  0.68172448  0.53780352  0.24541627  1
  O  O94  1  0.85825813  0.32685953  0.24621733  1
  O  O95  1  0.49040705  0.16787279  0.24374555  1
  O  O96  1  0.63150443  0.49702956  0.92144632  1
  O  O97  1  0.86291311  0.36982846  0.92098516  1
  O  O98  1  0.52116948  0.15881183  0.92355077  1
  O  O99  1  0.63764335  0.15881183  0.42355077  1
  O  O100  1  0.50691635  0.36982846  0.42098516  1
  O  O101  1  0.86552613  0.49702956  0.42144632  1
  O  O102  1  0.34889883  0.48193169  0.07314868  1
  O  O103  1  0.15475379  0.66110800  0.08432892  1
  O  O104  1  0.53152528  0.86309573  0.07597262  1
  O  O105  1  0.33156944  0.86309573  0.57597262  1
  O  O106  1  0.50635322  0.66110800  0.58432892  1
  O  O107  1  0.13303186  0.48193169  0.57314868  1
  O  O108  1  0.30058234  0.81831423  0.25812154  1
  O  O109  1  0.52711586  0.69704503  0.25497409  1
  O  O110  1  0.17179480  0.47021746  0.25191973  1
  O  O111  1  0.29842167  0.47021746  0.75191973  1
  O  O112  1  0.16992817  0.69704503  0.75497409  1
  O  O113  1  0.51773089  0.81831423  0.75812154  1
