# generated using pymatgen
data_NaMgNiIO6
_symmetry_space_group_name_H-M   'P 1'
_cell_length_a   5.16362058
_cell_length_b   5.17037751
_cell_length_c   5.01197927
_cell_angle_alpha   89.96160885
_cell_angle_beta   90.01876954
_cell_angle_gamma   120.04422988
_symmetry_Int_Tables_number   1
_chemical_formula_structural   NaMgNiIO6
_chemical_formula_sum   'Na1 Mg1 Ni1 I1 O6'
_cell_volume   115.83042346
_cell_formula_units_Z   1
loop_
 _symmetry_equiv_pos_site_id
 _symmetry_equiv_pos_as_xyz
  1  'x, y, z'
loop_
 _atom_site_type_symbol
 _atom_site_label
 _atom_site_symmetry_multiplicity
 _atom_site_fract_x
 _atom_site_fract_y
 _atom_site_fract_z
 _atom_site_occupancy
  Na  Na0  1  0.99842000  0.99920900  0.00000000  1
  Mg  Mg1  1  0.32976700  0.66488400  0.00000300  1
  Ni  Ni2  1  0.33358300  0.66680900  0.49999300  1
  I  I3  1  0.66609500  0.33303000  0.49999700  1
  O  O4  1  0.98553100  0.36611000  0.72364000  1
  O  O5  1  0.63327000  0.01449700  0.27617800  1
  O  O6  1  0.98553300  0.61942000  0.27636100  1
  O  O7  1  0.37976700  0.36629200  0.27619400  1
  O  O8  1  0.63326700  0.61877700  0.72383000  1
  O  O9  1  0.37976700  0.01347300  0.72380500  1
