# generated using pymatgen
data_Rb3IO
_symmetry_space_group_name_H-M   'P 1'
_cell_length_a   7.90128681
_cell_length_b   7.90130272
_cell_length_c   19.71391187
_cell_angle_alpha   90.00240118
_cell_angle_beta   89.99696374
_cell_angle_gamma   119.99955188
_symmetry_Int_Tables_number   1
_chemical_formula_structural   Rb3IO
_chemical_formula_sum   'Rb18 I6 O6'
_cell_volume   1065.86433420
_cell_formula_units_Z   6
loop_
 _symmetry_equiv_pos_site_id
 _symmetry_equiv_pos_as_xyz
  1  'x, y, z'
loop_
 _atom_site_type_symbol
 _atom_site_label
 _atom_site_symmetry_multiplicity
 _atom_site_fract_x
 _atom_site_fract_y
 _atom_site_fract_z
 _atom_site_occupancy
  Rb  Rb0  1  0.33175761  0.16587730  0.41879435  1
  Rb  Rb1  1  0.33180673  0.16590267  0.08116656  1
  Rb  Rb2  1  0.83409963  0.66819397  0.08116636  1
  Rb  Rb3  1  0.16587801  0.33175723  0.58121315  1
  Rb  Rb4  1  0.66824494  0.83412198  0.58121397  1
  Rb  Rb5  1  0.16590673  0.83409602  0.91883161  1
  Rb  Rb6  1  0.83412311  0.66824281  0.41879520  1
  Rb  Rb7  1  0.83409643  0.16590534  0.08116553  1
  Rb  Rb8  1  0.83412337  0.16587786  0.41879601  1
  Rb  Rb9  1  0.48169258  0.51830817  0.75002255  1
  Rb  Rb10  1  0.66819562  0.83409735  0.91882980  1
  Rb  Rb11  1  0.16590422  0.33180655  0.91882991  1
  Rb  Rb12  1  0.51831036  0.48169237  0.24998267  1
  Rb  Rb13  1  0.96337868  0.48168817  0.24998185  1
  Rb  Rb14  1  0.51831252  0.03662113  0.24998164  1
  Rb  Rb15  1  0.48168982  0.96337742  0.75002260  1
  Rb  Rb16  1  0.03662352  0.51831224  0.75002251  1
  Rb  Rb17  1  0.16587838  0.83412236  0.58121325  1
  I  I18  1  0.33332252  0.66665801  0.41233364  1
  I  I19  1  0.66665548  0.33335376  0.91231706  1
  I  I20  1  0.66665688  0.33333710  0.58758784  1
  I  I21  1  0.33333087  0.66665328  0.08771005  1
  I  I22  1  0.00004093  0.99996699  0.74994912  1
  I  I23  1  0.99996022  0.00002900  0.25006319  1
  O  O24  1  0.33333691  0.66666569  0.65923624  1
  O  O25  1  0.66666698  0.33333515  0.15917610  1
  O  O26  1  0.66666927  0.33333314  0.34076918  1
  O  O27  1  0.33333600  0.66666522  0.84082312  1
  O  O28  1  0.00000161  0.99999976  0.50000595  1
  O  O29  1  0.00000108  1.00000096  0.99999801  1
