# generated using pymatgen
data_Na2LaTaSi(PO6)2
_symmetry_space_group_name_H-M   'P 1'
_cell_length_a   9.29300829
_cell_length_b   9.29300794
_cell_length_c   22.99699549
_cell_angle_alpha   90.25857485
_cell_angle_beta   89.74142509
_cell_angle_gamma   119.16045091
_symmetry_Int_Tables_number   1
_chemical_formula_structural   Na2LaTaSi(PO6)2
_chemical_formula_sum   'Na12 La6 Ta6 Si6 P12 O72'
_cell_volume   1734.28579474
_cell_formula_units_Z   6
loop_
 _symmetry_equiv_pos_site_id
 _symmetry_equiv_pos_as_xyz
  1  'x, y, z'
loop_
 _atom_site_type_symbol
 _atom_site_label
 _atom_site_symmetry_multiplicity
 _atom_site_fract_x
 _atom_site_fract_y
 _atom_site_fract_z
 _atom_site_occupancy
  Na  Na0  1  0.98167059  0.64510541  0.24204906  1
  Na  Na1  1  0.35489459  0.01832941  0.74204906  1
  Na  Na2  1  0.64298167  0.97237283  0.58275086  1
  Na  Na3  1  0.02762717  0.35701833  0.08275086  1
  Na  Na4  1  0.00558729  0.69298669  0.91535448  1
  Na  Na5  1  0.30701331  0.99441271  0.41535448  1
  Na  Na6  1  0.99087464  0.98035950  0.50099487  1
  Na  Na7  1  0.01964050  0.00912536  0.00099487  1
  Na  Na8  1  0.67606479  0.31749197  0.83545410  1
  Na  Na9  1  0.68250803  0.32393521  0.33545410  1
  Na  Na10  1  0.35969865  0.69293035  0.16794987  1
  Na  Na11  1  0.30706965  0.64030135  0.66794987  1
  La  La12  1  0.98598532  0.00797821  0.35353153  1
  La  La13  1  0.99202179  0.01401468  0.85353153  1
  La  La14  1  0.67710544  0.34459360  0.68676823  1
  La  La15  1  0.65540640  0.32289456  0.18676823  1
  La  La16  1  0.34479520  0.67834219  0.02031769  1
  La  La17  1  0.32165781  0.65520480  0.52031769  1
  Ta  Ta18  1  0.00147820  0.99788473  0.64827260  1
  Ta  Ta19  1  0.00211527  0.99852180  0.14827260  1
  Ta  Ta20  1  0.65956445  0.33029580  0.98182403  1
  Ta  Ta21  1  0.66970420  0.34043555  0.48182403  1
  Ta  Ta22  1  0.32744360  0.65414848  0.31491385  1
  Ta  Ta23  1  0.34585152  0.67255640  0.81491385  1
  Si  Si24  1  0.02243946  0.31315828  0.24758657  1
  Si  Si25  1  0.68684172  0.97756054  0.74758657  1
  Si  Si26  1  0.36506301  0.05152784  0.58553805  1
  Si  Si27  1  0.94847216  0.63493699  0.08553805  1
  Si  Si28  1  0.35162529  0.97470219  0.91610423  1
  Si  Si29  1  0.02529781  0.64837471  0.41610423  1
  P  P30  1  0.28005255  0.97205909  0.25318684  1
  P  P31  1  0.69481839  0.72297208  0.24768559  1
  P  P32  1  0.27702792  0.30518161  0.74768559  1
  P  P33  1  0.02794091  0.71994745  0.75318684  1
  P  P34  1  0.94885494  0.30085947  0.58173898  1
  P  P35  1  0.69793449  0.64713683  0.58219262  1
  P  P36  1  0.69914053  0.05114506  0.08173898  1
  P  P37  1  0.35286317  0.30206551  0.08219262  1
  P  P38  1  0.61856947  0.63569320  0.91483093  1
  P  P39  1  0.02675039  0.39006244  0.92006742  1
  P  P40  1  0.60993756  0.97324961  0.42006742  1
  P  P41  1  0.36430680  0.38143053  0.41483093  1
  O  O42  1  0.20778391  0.98472611  0.31056492  1
  O  O43  1  0.80243634  0.78275756  0.30177097  1
  O  O44  1  0.99681058  0.21406325  0.30632660  1
  O  O45  1  0.21724244  0.19756366  0.80177097  1
  O  O46  1  0.01527389  0.79221609  0.81056492  1
  O  O47  1  0.78593675  0.00318942  0.80632660  1
  O  O48  1  0.79926523  0.96591016  0.69025413  1
  O  O49  1  0.15463850  0.19702743  0.69527364  1
  O  O50  1  0.03905136  0.84380010  0.70095274  1
  O  O51  1  0.80297257  0.84536150  0.19527364  1
  O  O52  1  0.03408984  0.20073477  0.19025413  1
  O  O53  1  0.15619990  0.96094864  0.20095274  1
  O  O54  1  0.88046852  0.32396943  0.63839872  1
  O  O55  1  0.46351748  0.12693569  0.64465565  1
  O  O56  1  0.66382121  0.55214030  0.63829261  1
  O  O57  1  0.87306431  0.53648252  0.14465565  1
  O  O58  1  0.67603057  0.11953148  0.13839872  1
  O  O59  1  0.44785970  0.33617879  0.13829261  1
  O  O60  1  0.46287824  0.29230138  0.02970784  1
  O  O61  1  0.81864567  0.52078032  0.02880843  1
  O  O62  1  0.70554952  0.17044452  0.02998994  1
  O  O63  1  0.47921968  0.18135433  0.52880843  1
  O  O64  1  0.70769862  0.53712176  0.52970784  1
  O  O65  1  0.82955548  0.29445048  0.52998994  1
  O  O66  1  0.55583477  0.67030272  0.97058639  1
  O  O67  1  0.10893789  0.45777425  0.97816398  1
  O  O68  1  0.30597204  0.85445807  0.97062474  1
  O  O69  1  0.54222575  0.89106211  0.47816398  1
  O  O70  1  0.32969728  0.44416523  0.47058639  1
  O  O71  1  0.14554193  0.69402796  0.47062474  1
  O  O72  1  0.13995975  0.63006000  0.35848210  1
  O  O73  1  0.49236826  0.86441056  0.36841370  1
  O  O74  1  0.37393212  0.50115337  0.36234054  1
  O  O75  1  0.13558944  0.50763174  0.86841370  1
  O  O76  1  0.36994000  0.86004025  0.85848210  1
  O  O77  1  0.49884663  0.62606788  0.86234054  1
  O  O78  1  0.99689808  0.80499248  0.40938347  1
  O  O79  1  0.78889088  0.01256594  0.41479525  1
  O  O80  1  0.23616742  0.20217123  0.40459021  1
  O  O81  1  0.98743406  0.21110912  0.91479525  1
  O  O82  1  0.19500752  0.00310192  0.90938347  1
  O  O83  1  0.79782877  0.76383258  0.90459021  1
  O  O84  1  0.93814911  0.12505905  0.58333080  1
  O  O85  1  0.17960123  0.03951029  0.59252952  1
  O  O86  1  0.86905798  0.81050717  0.58767806  1
  O  O87  1  0.96048971  0.82039877  0.09252952  1
  O  O88  1  0.87494095  0.06185089  0.08333080  1
  O  O89  1  0.18949283  0.13094202  0.08767806  1
  O  O90  1  0.63051508  0.11650539  0.74485149  1
  O  O91  1  0.45204561  0.34009446  0.73668343  1
  O  O92  1  0.88833625  0.54618103  0.74530874  1
  O  O93  1  0.65990554  0.54795439  0.23668343  1
  O  O94  1  0.88349461  0.36948492  0.24485149  1
  O  O95  1  0.45381897  0.11166375  0.24530874  1
  O  O96  1  0.61157369  0.46280358  0.92022523  1
  O  O97  1  0.85626258  0.39378969  0.92058823  1
  O  O98  1  0.52838783  0.14862253  0.92597506  1
  O  O99  1  0.60621031  0.14373742  0.42058823  1
  O  O100  1  0.53719642  0.38842631  0.42022523  1
  O  O101  1  0.85137747  0.47161217  0.42597506  1
  O  O102  1  0.30265830  0.43288517  0.07162352  1
  O  O103  1  0.12989807  0.65183743  0.08015167  1
  O  O104  1  0.56632144  0.87306979  0.07556985  1
  O  O105  1  0.34816257  0.87010193  0.58015167  1
  O  O106  1  0.56711483  0.69734170  0.57162352  1
  O  O107  1  0.12693021  0.43367856  0.57556985  1
  O  O108  1  0.27873980  0.80112940  0.25206350  1
  O  O109  1  0.53063800  0.72857169  0.25572473  1
  O  O110  1  0.20656285  0.49066065  0.25620723  1
  O  O111  1  0.27142831  0.46936200  0.75572473  1
  O  O112  1  0.19887060  0.72126020  0.75206350  1
  O  O113  1  0.50933935  0.79343715  0.75620723  1
