# generated using pymatgen
data_Na3Y2(PO4)3
_symmetry_space_group_name_H-M   'P 1'
_cell_length_a   9.34277709
_cell_length_b   9.34277674
_cell_length_c   23.30853879
_cell_angle_alpha   89.75741901
_cell_angle_beta   90.24258100
_cell_angle_gamma   120.03558790
_symmetry_Int_Tables_number   1
_chemical_formula_structural   Na3Y2(PO4)3
_chemical_formula_sum   'Na18 Y12 P18 O72'
_cell_volume   1761.31322897
_cell_formula_units_Z   6
loop_
 _symmetry_equiv_pos_site_id
 _symmetry_equiv_pos_as_xyz
  1  'x, y, z'
loop_
 _atom_site_type_symbol
 _atom_site_label
 _atom_site_symmetry_multiplicity
 _atom_site_fract_x
 _atom_site_fract_y
 _atom_site_fract_z
 _atom_site_occupancy
  Na  Na0  1  0.00011060  0.99987241  0.50000799  1
  Na  Na1  1  0.00012759  0.99988940  0.00000799  1
  Na  Na2  1  0.63140623  0.31702482  0.83356091  1
  Na  Na3  1  0.68297518  0.36859377  0.33356091  1
  Na  Na4  1  0.33334861  0.66636782  0.16669908  1
  Na  Na5  1  0.33363218  0.66665139  0.66669908  1
  Na  Na6  1  0.63811116  0.00309799  0.24989299  1
  Na  Na7  1  0.35889469  0.35819723  0.25005106  1
  Na  Na8  1  0.64180277  0.64110531  0.75005106  1
  Na  Na9  1  0.99690201  0.36188884  0.74989299  1
  Na  Na10  1  0.02871224  0.69305666  0.58263639  1
  Na  Na11  1  0.66776934  0.97317657  0.58289831  1
  Na  Na12  1  0.30694334  0.97128776  0.08263639  1
  Na  Na13  1  0.02682343  0.33223066  0.08289831  1
  Na  Na14  1  0.97023821  0.66351680  0.91828453  1
  Na  Na15  1  0.69638169  0.02957409  0.91671916  1
  Na  Na16  1  0.97042591  0.30361831  0.41671916  1
  Na  Na17  1  0.33648320  0.02976179  0.41828453  1
  Y  Y18  1  0.98995099  0.98448647  0.34956022  1
  Y  Y19  1  0.01551353  0.01004901  0.84956022  1
  Y  Y20  1  0.01559679  0.00929382  0.65039254  1
  Y  Y21  1  0.99070618  0.98440321  0.15039254  1
  Y  Y22  1  0.65365201  0.32550149  0.68265349  1
  Y  Y23  1  0.67449851  0.34634799  0.18265349  1
  Y  Y24  1  0.65930177  0.34074338  0.98412669  1
  Y  Y25  1  0.65925662  0.34069823  0.48412669  1
  Y  Y26  1  0.34379415  0.66096062  0.01616652  1
  Y  Y27  1  0.33903938  0.65620585  0.51616652  1
  Y  Y28  1  0.32873122  0.66611856  0.31714604  1
  Y  Y29  1  0.33388144  0.67126878  0.81714604  1
  P  P30  1  0.30633351  0.00349327  0.24968568  1
  P  P31  1  0.68875033  0.69415708  0.25068716  1
  P  P32  1  0.99948399  0.29603379  0.24930391  1
  P  P33  1  0.30584292  0.31124967  0.75068716  1
  P  P34  1  0.99650673  0.69366649  0.74968568  1
  P  P35  1  0.70396621  0.00051601  0.74930391  1
  P  P36  1  0.96291220  0.33318494  0.58351406  1
  P  P37  1  0.36267519  0.02366693  0.57876767  1
  P  P38  1  0.67188372  0.64187056  0.58778890  1
  P  P39  1  0.97633307  0.63732481  0.07876767  1
  P  P40  1  0.66681506  0.03708780  0.08351406  1
  P  P41  1  0.35812944  0.32811628  0.08778890  1
  P  P42  1  0.64192844  0.67180889  0.91171758  1
  P  P43  1  0.02613651  0.36327508  0.91750056  1
  P  P44  1  0.33441897  0.96451360  0.92095832  1
  P  P45  1  0.63672492  0.97386349  0.41750056  1
  P  P46  1  0.32819111  0.35807156  0.41171758  1
  P  P47  1  0.03548640  0.66558103  0.42095832  1
  O  O48  1  0.21620681  0.01650502  0.30360500  1
  O  O49  1  0.78960163  0.77806717  0.30481149  1
  O  O50  1  0.97992520  0.18931485  0.30322402  1
  O  O51  1  0.22193283  0.21039837  0.80481149  1
  O  O52  1  0.98349498  0.78379319  0.80360500  1
  O  O53  1  0.81068515  0.02007480  0.80322402  1
  O  O54  1  0.79221140  0.98330331  0.69556005  1
  O  O55  1  0.20080996  0.22241827  0.69738159  1
  O  O56  1  0.01342218  0.79555674  0.69516736  1
  O  O57  1  0.77758173  0.79919004  0.19738159  1
  O  O58  1  0.01669669  0.20778860  0.19556005  1
  O  O59  1  0.20444326  0.98657782  0.19516736  1
  O  O60  1  0.87701109  0.35325344  0.63736616  1
  O  O61  1  0.47465255  0.12106290  0.62971251  1
  O  O62  1  0.65526301  0.54750996  0.64403179  1
  O  O63  1  0.87893710  0.52534745  0.12971251  1
  O  O64  1  0.64674656  0.12298891  0.13736616  1
  O  O65  1  0.45249004  0.34473699  0.14403179  1
  O  O66  1  0.45461849  0.31410535  0.03665760  1
  O  O67  1  0.88179939  0.56149680  0.02223770  1
  O  O68  1  0.68551458  0.14363311  0.02961076  1
  O  O69  1  0.43850320  0.11820061  0.52223770  1
  O  O70  1  0.68589465  0.54538151  0.53665760  1
  O  O71  1  0.85636689  0.31448542  0.52961076  1
  O  O72  1  0.54702419  0.68914880  0.96279257  1
  O  O73  1  0.12765513  0.44881675  0.97196967  1
  O  O74  1  0.31716365  0.86660315  0.97684673  1
  O  O75  1  0.55118325  0.87234487  0.47196967  1
  O  O76  1  0.31085120  0.45297581  0.46279257  1
  O  O77  1  0.13339685  0.68283635  0.47684673  1
  O  O78  1  0.12799441  0.64434675  0.36991934  1
  O  O79  1  0.53241258  0.88473072  0.36357310  1
  O  O80  1  0.34356865  0.45166405  0.35528180  1
  O  O81  1  0.11526928  0.46758742  0.86357310  1
  O  O82  1  0.35565325  0.87200559  0.86991934  1
  O  O83  1  0.54833595  0.65643135  0.85528180  1
  O  O84  1  0.02740313  0.82658738  0.41522995  1
  O  O85  1  0.81604305  0.00404395  0.41473562  1
  O  O86  1  0.16877637  0.18388735  0.41243949  1
  O  O87  1  0.99595605  0.18395695  0.91473562  1
  O  O88  1  0.17341262  0.97259687  0.91522995  1
  O  O89  1  0.81611265  0.83122363  0.91243949  1
  O  O90  1  0.97376098  0.17303258  0.58680602  1
  O  O91  1  0.18405502  0.99365991  0.58390599  1
  O  O92  1  0.83246614  0.81509448  0.58701968  1
  O  O93  1  0.00634009  0.81594498  0.08390599  1
  O  O94  1  0.82696742  0.02623902  0.08680602  1
  O  O95  1  0.18490552  0.16753386  0.08701968  1
  O  O96  1  0.69043102  0.15919413  0.74593946  1
  O  O97  1  0.48330880  0.33887533  0.74805764  1
  O  O98  1  0.83517168  0.52093223  0.74775719  1
  O  O99  1  0.66112467  0.51669120  0.24805764  1
  O  O100  1  0.84080587  0.30956898  0.24593946  1
  O  O101  1  0.47906777  0.16482832  0.24775719  1
  O  O102  1  0.66739164  0.52073331  0.91718936  1
  O  O103  1  0.85261434  0.35037498  0.91930507  1
  O  O104  1  0.49173341  0.13810141  0.92164176  1
  O  O105  1  0.64962502  0.14738566  0.41930507  1
  O  O106  1  0.47926669  0.33260836  0.41718936  1
  O  O107  1  0.86189859  0.50826659  0.42164176  1
  O  O108  1  0.32902759  0.47734442  0.08263052  1
  O  O109  1  0.14845701  0.64817353  0.07956162  1
  O  O110  1  0.50867092  0.86451960  0.08012853  1
  O  O111  1  0.35182647  0.85154299  0.57956162  1
  O  O112  1  0.52265558  0.67097241  0.58263052  1
  O  O113  1  0.13548040  0.49132908  0.58012853  1
  O  O114  1  0.33746331  0.85514738  0.25267611  1
  O  O115  1  0.51669725  0.68279920  0.25199988  1
  O  O116  1  0.15852092  0.46763883  0.25250707  1
  O  O117  1  0.31720080  0.48330275  0.75199988  1
  O  O118  1  0.14485262  0.66253669  0.75267611  1
  O  O119  1  0.53236117  0.84147908  0.75250707  1
