# generated using pymatgen
data_Na2ZrSiGe(PO6)2
_symmetry_space_group_name_H-M   'P 1'
_cell_length_a   8.78548806
_cell_length_b   8.80110517
_cell_length_c   22.37486385
_cell_angle_alpha   90.01222817
_cell_angle_beta   90.31433329
_cell_angle_gamma   119.83904863
_symmetry_Int_Tables_number   1
_chemical_formula_structural   Na2ZrSiGe(PO6)2
_chemical_formula_sum   'Na12 Zr6 Si6 Ge6 P12 O72'
_cell_volume   1500.67684108
_cell_formula_units_Z   6
loop_
 _symmetry_equiv_pos_site_id
 _symmetry_equiv_pos_as_xyz
  1  'x, y, z'
loop_
 _atom_site_type_symbol
 _atom_site_label
 _atom_site_symmetry_multiplicity
 _atom_site_fract_x
 _atom_site_fract_y
 _atom_site_fract_z
 _atom_site_occupancy
  Na  Na0  1  0.00216030  0.64747855  0.24904001  1
  Na  Na1  1  0.36500849  0.99760470  0.75687866  1
  Na  Na2  1  0.66057285  0.96619331  0.59133061  1
  Na  Na3  1  0.03914804  0.33434008  0.08450142  1
  Na  Na4  1  0.96718750  0.66852046  0.92076241  1
  Na  Na5  1  0.32711739  0.02846777  0.41900963  1
  Na  Na6  1  -0.00060910  0.98817759  0.49966283  1
  Na  Na7  1  0.00137522  0.99827427  0.99788959  1
  Na  Na8  1  0.66726995  0.32437433  0.84060946  1
  Na  Na9  1  0.66786713  0.32777425  0.32560977  1
  Na  Na10  1  0.36300882  0.68280124  0.16367889  1
  Na  Na11  1  0.32550891  0.63943667  0.67398817  1
  Zr  Zr12  1  0.99437958  0.00346372  0.34780184  1
  Zr  Zr13  1  0.00598616  -0.00009081  0.65210513  1
  Zr  Zr14  1  0.99704478  0.99204045  0.14310194  1
  Zr  Zr15  1  0.67001205  0.33297657  0.69475238  1
  Zr  Zr16  1  0.67300008  0.34110526  0.47494143  1
  Zr  Zr17  1  0.32418744  0.66372652  0.52172474  1
  Si  Si18  1  0.00075809  0.30647887  0.24202913  1
  Si  Si19  1  0.70660931  0.98476791  0.75814090  1
  Si  Si20  1  0.37094112  0.04427648  0.58277314  1
  Si  Si21  1  0.95204599  0.61311208  0.07625247  1
  Si  Si22  1  0.33675148  0.96255786  0.91792122  1
  Si  Si23  1  0.04216618  0.66281095  0.40760377  1
  Ge  Ge24  1  0.00628468  0.00916744  0.85872786  1
  Ge  Ge25  1  0.67011122  0.33171886  0.17995563  1
  Ge  Ge26  1  0.65551371  0.33001606  0.97930611  1
  Ge  Ge27  1  0.32766496  0.67297493  0.01818661  1
  Ge  Ge28  1  0.32625218  0.65861245  0.30881379  1
  Ge  Ge29  1  0.34460130  0.67640286  0.82065024  1
  P  P30  1  0.31197588  0.00696232  0.24877873  1
  P  P31  1  0.69188299  0.69384312  0.24618355  1
  P  P32  1  0.28404704  0.29882575  0.76085625  1
  P  P33  1  0.00836283  0.71151386  0.76362677  1
  P  P34  1  0.95955293  0.33248397  0.58607035  1
  P  P35  1  0.67028828  0.62550895  0.58566373  1
  P  P36  1  0.65126628  0.04495936  0.07850463  1
  P  P37  1  0.39169605  0.34567211  0.08012672  1
  P  P38  1  0.61706370  0.66821287  0.92070325  1
  P  P39  1  0.05057151  0.38006295  0.91876454  1
  P  P40  1  0.61428805  0.94495561  0.41314629  1
  P  P41  1  0.33370298  0.38378814  0.41002099  1
  O  O42  1  0.23330881  0.03234876  0.30711346  1
  O  O43  1  0.82014370  0.77565683  0.29985704  1
  O  O44  1  0.97106270  0.18034440  0.29896718  1
  O  O45  1  0.20405578  0.16707337  0.81326764  1
  O  O46  1  0.98833856  0.79772425  0.82103943  1
  O  O47  1  0.84082290  0.01511671  0.81342829  1
  O  O48  1  0.78342570  0.96643587  0.69368934  1
  O  O49  1  0.17841048  0.21671210  0.70263315  1
  O  O50  1  0.04164519  0.83275276  0.70883886  1
  O  O51  1  0.77937120  0.81155298  0.19121901  1
  O  O52  1  0.02606847  0.21666390  0.18236712  1
  O  O53  1  0.17215852  0.96096100  0.19818172  1
  O  O54  1  0.86996285  0.34733508  0.64288634  1
  O  O55  1  0.48499029  0.14211802  0.64320188  1
  O  O56  1  0.66712697  0.52684304  0.64238099  1
  O  O57  1  0.86214125  0.48919595  0.13528489  1
  O  O58  1  0.62356323  0.12570723  0.13627688  1
  O  O59  1  0.50297998  0.36607611  0.13644323  1
  O  O60  1  0.46797952  0.31187328  0.02311461  1
  O  O61  1  0.83694675  0.52300383  0.01534208  1
  O  O62  1  0.69003742  0.16606818  0.02386515  1
  O  O63  1  0.46445501  0.14511072  0.52076285  1
  O  O64  1  0.68364082  0.53520408  0.52828077  1
  O  O65  1  0.85514257  0.32300729  0.52915059  1
  O  O66  1  0.52750712  0.69500850  0.97602694  1
  O  O67  1  0.15653818  0.45208822  0.97848277  1
  O  O68  1  0.28294310  0.81848394  0.97217042  1
  O  O69  1  0.54282015  0.85735054  0.47418418  1
  O  O70  1  0.32761713  0.47322257  0.46764513  1
  O  O71  1  0.15804695  0.68481760  0.46754371  1
  O  O72  1  0.13982156  0.65512415  0.34613077  1
  O  O73  1  0.49507395  0.84316060  0.35964519  1
  O  O74  1  0.34510550  0.48647536  0.35278350  1
  O  O75  1  0.14411040  0.51283865  0.86750456  1
  O  O76  1  0.37027774  0.87931733  0.85680568  1
  O  O77  1  0.50630974  0.63843281  0.86357791  1
  O  O78  1  0.03159650  0.84271302  0.40811763  1
  O  O79  1  0.79865122  0.96694483  0.40821498  1
  O  O80  1  0.16855298  0.19852409  0.40905440  1
  O  O81  1  0.03221376  0.19602018  0.91136422  1
  O  O82  1  0.15458906  0.97906332  0.91336912  1
  O  O83  1  0.80612546  0.83092984  0.91680041  1
  O  O84  1  0.96131128  0.15832471  0.58750718  1
  O  O85  1  0.17763988  0.02184522  0.58639356  1
  O  O86  1  0.83133372  0.81186595  0.58682361  1
  O  O87  1  0.97665421  0.80806959  0.08189752  1
  O  O88  1  0.81874598  0.02766973  0.08368932  1
  O  O89  1  0.20385174  0.18298554  0.08540826  1
  O  O90  1  0.67328568  0.15395539  0.75516473  1
  O  O91  1  0.46920338  0.32017431  0.75410148  1
  O  O92  1  0.84445990  0.53182366  0.75640146  1
  O  O93  1  0.67754170  0.51287068  0.23682942  1
  O  O94  1  0.82595320  0.33090981  0.23681267  1
  O  O95  1  0.48594406  0.17516506  0.23610239  1
  O  O96  1  0.64061911  0.50220116  0.92361542  1
  O  O97  1  0.86501501  0.36285404  0.92097962  1
  O  O98  1  0.51207891  0.15768093  0.92571269  1
  O  O99  1  0.62681689  0.12717467  0.41295280  1
  O  O100  1  0.49343714  0.35394696  0.41127219  1
  O  O101  1  0.85131472  0.48852081  0.41062630  1
  O  O102  1  0.37235325  0.51246063  0.07610141  1
  O  O103  1  0.14827306  0.62646083  0.07351542  1
  O  O104  1  0.48591441  0.86106270  0.07232541  1
  O  O105  1  0.36339720  0.85439801  0.58388160  1
  O  O106  1  0.50511742  0.64325883  0.58415960  1
  O  O107  1  0.14538200  0.48894300  0.58512753  1
  O  O108  1  0.33657949  0.84408266  0.25270029  1
  O  O109  1  0.51364000  0.68218752  0.25603078  1
  O  O110  1  0.17428271  0.50466523  0.24990781  1
  O  O111  1  0.29021572  0.47480854  0.76881222  1
  O  O112  1  0.17565383  0.69326137  0.76513969  1
  O  O113  1  0.50898092  0.80932049  0.76279801  1
