# generated using pymatgen
data_Na3Ta2In2SiP5O24
_symmetry_space_group_name_H-M   'P 1'
_cell_length_a   8.92743254
_cell_length_b   8.91775742
_cell_length_c   22.71132218
_cell_angle_alpha   90.01343296
_cell_angle_beta   89.98218957
_cell_angle_gamma   120.02450733
_symmetry_Int_Tables_number   1
_chemical_formula_structural   Na3Ta2In2SiP5O24
_chemical_formula_sum   'Na9 Ta6 In6 Si3 P15 O72'
_cell_volume   1565.48155736
_cell_formula_units_Z   3
loop_
 _symmetry_equiv_pos_site_id
 _symmetry_equiv_pos_as_xyz
  1  'x, y, z'
loop_
 _atom_site_type_symbol
 _atom_site_label
 _atom_site_symmetry_multiplicity
 _atom_site_fract_x
 _atom_site_fract_y
 _atom_site_fract_z
 _atom_site_occupancy
  Na  Na0  1  0.35433578  0.99006667  0.75251196  1
  Na  Na1  1  0.67362127  0.97770264  0.58829343  1
  Na  Na2  1  0.68141330  0.69997854  0.08289797  1
  Na  Na3  1  0.02195669  0.00113643  0.50523166  1
  Na  Na4  1  0.01683015  0.00688992  0.00541704  1
  Na  Na5  1  0.67912302  0.34743233  0.83984273  1
  Na  Na6  1  0.66362784  0.33105988  0.33883331  1
  Na  Na7  1  0.32116142  0.66630898  0.17386701  1
  Na  Na8  1  0.32788217  0.64656824  0.67296780  1
  Ta  Ta9  1  0.00055811  0.99994227  0.35401310  1
  Ta  Ta10  1  0.99455877  0.99931590  0.85456677  1
  Ta  Ta11  1  0.66821060  0.33300048  0.68676261  1
  Ta  Ta12  1  0.67102889  0.33453435  0.18817677  1
  Ta  Ta13  1  0.32766938  0.66654043  0.02003239  1
  Ta  Ta14  1  0.33049911  0.66658510  0.51976296  1
  In  In15  1  0.00103995  0.99703201  0.64866639  1
  In  In16  1  0.00691101  0.00435559  0.14968530  1
  In  In17  1  0.66826550  0.33382733  0.98139957  1
  In  In18  1  0.66206069  0.33282216  0.47997225  1
  In  In19  1  0.33286825  0.66655882  0.31466955  1
  In  In20  1  0.33744524  0.66546985  0.81588930  1
  Si  Si21  1  0.70788819  0.00077504  0.74727855  1
  Si  Si22  1  0.36919574  0.03993792  0.58197212  1
  Si  Si23  1  0.95971117  0.62576416  0.08299599  1
  P  P24  1  0.29514140  0.00340718  0.25020964  1
  P  P25  1  0.70801940  0.70576967  0.24868259  1
  P  P26  1  0.99612970  0.28995899  0.24991749  1
  P  P27  1  0.29230085  0.29126167  0.74998465  1
  P  P28  1  0.99457552  0.70546020  0.75145230  1
  P  P29  1  0.95960653  0.33956705  0.58208153  1
  P  P30  1  0.66210777  0.62131983  0.58139269  1
  P  P31  1  0.66253405  0.04154521  0.08301373  1
  P  P32  1  0.37654696  0.33491015  0.08251386  1
  P  P33  1  0.62890916  0.66909840  0.91719894  1
  P  P34  1  0.04349822  0.37272915  0.91560884  1
  P  P35  1  0.33064081  0.96025433  0.91493341  1
  P  P36  1  0.62830818  0.95711410  0.41577592  1
  P  P37  1  0.32996215  0.37339324  0.41471165  1
  P  P38  1  0.04200132  0.66875740  0.41525109  1
  O  O39  1  0.19727731  0.02606125  0.30507716  1
  O  O40  1  0.83126935  0.80470094  0.30253964  1
  O  O41  1  0.97390424  0.17089572  0.30485970  1
  O  O42  1  0.20260117  0.16732915  0.80464578  1
  O  O43  1  0.97259165  0.80054448  0.80681719  1
  O  O44  1  0.83687799  0.02443641  0.80492294  1
  O  O45  1  0.78109734  0.97325770  0.68683418  1
  O  O46  1  0.19088490  0.21305492  0.69436811  1
  O  O47  1  0.03876941  0.82002316  0.69781574  1
  O  O48  1  0.78211390  0.80373356  0.19133537  1
  O  O49  1  0.02130887  0.21292508  0.19426350  1
  O  O50  1  0.19107239  0.97436459  0.19485138  1
  O  O51  1  0.86892905  0.36851571  0.63795392  1
  O  O52  1  0.49989816  0.13621892  0.64146628  1
  O  O53  1  0.63996948  0.50722534  0.63738018  1
  O  O54  1  0.86078154  0.49640470  0.14152798  1
  O  O55  1  0.63417712  0.13107634  0.13864742  1
  O  O56  1  0.49894247  0.36436145  0.13733847  1
  O  O57  1  0.44911441  0.30259686  0.02710585  1
  O  O58  1  0.83667141  0.54790293  0.02748813  1
  O  O59  1  0.69157519  0.14394948  0.02794349  1
  O  O60  1  0.45768495  0.14757911  0.52484586  1
  O  O61  1  0.69627394  0.54961084  0.52658088  1
  O  O62  1  0.84955225  0.30718216  0.52820233  1
  O  O63  1  0.54030824  0.69342691  0.97367183  1
  O  O64  1  0.16375480  0.46851810  0.97083590  1
  O  O65  1  0.31026204  0.83539291  0.96858546  1
  O  O66  1  0.53736372  0.84112868  0.47254386  1
  O  O67  1  0.30537850  0.46729539  0.47002687  1
  O  O68  1  0.16298904  0.69440207  0.47059471  1
  O  O69  1  0.11929509  0.64181363  0.36038995  1
  O  O70  1  0.52007805  0.87647128  0.36188352  1
  O  O71  1  0.35287259  0.47562639  0.35933598  1
  O  O72  1  0.12166311  0.47855025  0.86070517  1
  O  O73  1  0.35333993  0.88595925  0.85735939  1
  O  O74  1  0.52539166  0.64814484  0.86228503  1
  O  O75  1  0.03471152  0.84217505  0.40961112  1
  O  O76  1  0.80803030  0.96239367  0.40892657  1
  O  O77  1  0.15714570  0.19083754  0.40923587  1
  O  O78  1  0.03908470  0.19365342  0.91013532  1
  O  O79  1  0.15851989  0.96662202  0.91190452  1
  O  O80  1  0.81098984  0.84200994  0.91110682  1
  O  O81  1  0.98084093  0.18194125  0.58976118  1
  O  O82  1  0.17586794  0.00214694  0.58813398  1
  O  O83  1  0.80611488  0.80948386  0.58786229  1
  O  O84  1  0.98520684  0.81668561  0.08967828  1
  O  O85  1  0.81101250  0.00413788  0.09103187  1
  O  O86  1  0.19154271  0.19108550  0.09027239  1
  O  O87  1  0.69972517  0.18535586  0.74259926  1
  O  O88  1  0.47332332  0.29844764  0.74448970  1
  O  O89  1  0.82214205  0.53041372  0.74419148  1
  O  O90  1  0.69891647  0.52399172  0.24420949  1
  O  O91  1  0.82097034  0.29404677  0.24474884  1
  O  O92  1  0.47375904  0.17618491  0.24476516  1
  O  O93  1  0.65810922  0.51517804  0.92074818  1
  O  O94  1  0.86039472  0.33859179  0.92245890  1
  O  O95  1  0.48503449  0.14035108  0.92258516  1
  O  O96  1  0.66515776  0.14220574  0.42175187  1
  O  O97  1  0.48234441  0.34329891  0.42004173  1
  O  O98  1  0.85946322  0.51787371  0.42297843  1
  O  O99  1  0.37823742  0.51392034  0.07622585  1
  O  O100  1  0.14954809  0.63481697  0.07424667  1
  O  O101  1  0.49279570  0.85660775  0.07629502  1
  O  O102  1  0.36969451  0.85022674  0.57537880  1
  O  O103  1  0.48797319  0.62812447  0.57539378  1
  O  O104  1  0.14084871  0.50756454  0.57586740  1
  O  O105  1  0.32581121  0.85101745  0.25692845  1
  O  O106  1  0.52640207  0.67626851  0.25572174  1
  O  O107  1  0.14596806  0.47405772  0.25601479  1
  O  O108  1  0.32194119  0.47249414  0.75675130  1
  O  O109  1  0.14743057  0.67558202  0.75904041  1
  O  O110  1  0.50939577  0.84804068  0.75410936  1
