# generated using pymatgen
data_MgFe4(OF)4
_symmetry_space_group_name_H-M   'P 1'
_cell_length_a   5.81439181
_cell_length_b   5.34336035
_cell_length_c   5.83045011
_cell_angle_alpha   109.58191690
_cell_angle_beta   91.26064442
_cell_angle_gamma   88.00812682
_symmetry_Int_Tables_number   1
_chemical_formula_structural   MgFe4(OF)4
_chemical_formula_sum   'Mg1 Fe4 O4 F4'
_cell_volume   170.55257205
_cell_formula_units_Z   1
loop_
 _symmetry_equiv_pos_site_id
 _symmetry_equiv_pos_as_xyz
  1  'x, y, z'
loop_
 _atom_site_type_symbol
 _atom_site_label
 _atom_site_symmetry_multiplicity
 _atom_site_fract_x
 _atom_site_fract_y
 _atom_site_fract_z
 _atom_site_occupancy
  Mg  Mg0  1  0.93192674  0.40887219  0.73561649  1
  Fe  Fe1  1  0.44798405  0.49427958  0.51339984  1
  Fe  Fe2  1  0.15316984  0.98285785  0.14008838  1
  Fe  Fe3  1  0.71290922  0.97361050  0.87303006  1
  Fe  Fe4  1  0.93839219  0.51792838  0.26946369  1
  O  O5  1  0.01976225  0.21008188  0.96826054  1
  O  O6  1  0.13307077  0.29400513  0.43627803  1
  O  O7  1  0.77317802  0.66373072  0.56724603  1
  O  O8  1  0.90514970  0.73465815  0.05610778  1
  F  F9  1  0.37620439  0.79513859  0.88650186  1
  F  F10  1  0.25210902  0.73807038  0.34718132  1
  F  F11  1  0.62308948  0.24701769  0.68118015  1
  F  F12  1  0.60805435  0.27308197  0.18189585  1
