# generated using pymatgen
data_Na3Ta3GaSi3(PO8)3
_symmetry_space_group_name_H-M   'P 1'
_cell_length_a   8.79357629
_cell_length_b   8.81451164
_cell_length_c   22.62534492
_cell_angle_alpha   89.98712135
_cell_angle_beta   90.07466746
_cell_angle_gamma   119.90237305
_symmetry_Int_Tables_number   1
_chemical_formula_structural   Na3Ta3GaSi3(PO8)3
_chemical_formula_sum   'Na9 Ta9 Ga3 Si9 P9 O72'
_cell_volume   1520.25209071
_cell_formula_units_Z   3
loop_
 _symmetry_equiv_pos_site_id
 _symmetry_equiv_pos_as_xyz
  1  'x, y, z'
loop_
 _atom_site_type_symbol
 _atom_site_label
 _atom_site_symmetry_multiplicity
 _atom_site_fract_x
 _atom_site_fract_y
 _atom_site_fract_z
 _atom_site_occupancy
  Na  Na0  1  0.63855798  0.00292932  0.24856408  1
  Na  Na1  1  0.37288594  0.36272200  0.24735067  1
  Na  Na2  1  0.70674515  0.67511967  0.41396061  1
  Na  Na3  1  0.00727201  0.00717863  0.49328673  1
  Na  Na4  1  0.00215613  0.00179754  0.99937233  1
  Na  Na5  1  0.66713745  0.33334891  0.82926327  1
  Na  Na6  1  0.67597211  0.33702868  0.33127618  1
  Na  Na7  1  0.32749270  0.66417285  0.16431461  1
  Na  Na8  1  0.33546582  0.66588311  0.66522530  1
  Ta  Ta9  1  0.00097096  0.00119960  0.85520344  1
  Ta  Ta10  1  0.99804372  0.99781893  0.64378781  1
  Ta  Ta11  1  0.99846803  0.99851900  0.14477702  1
  Ta  Ta12  1  0.66092741  0.33148940  0.97696059  1
  Ta  Ta13  1  0.66762912  0.33493818  0.47841686  1
  Ta  Ta14  1  0.33430677  0.66361654  0.02094872  1
  Ta  Ta15  1  0.33571821  0.66477470  0.52039045  1
  Ta  Ta16  1  0.33229129  0.66693553  0.31430514  1
  Ta  Ta17  1  0.33321618  0.66651384  0.81175997  1
  Ga  Ga18  1  0.99868265  0.99605847  0.35560006  1
  Ga  Ga19  1  0.66436439  0.33508344  0.68505985  1
  Ga  Ga20  1  0.67331922  0.34868451  0.18379349  1
  Si  Si21  1  0.71685814  0.70597801  0.25207806  1
  Si  Si22  1  0.66326616  0.61474212  0.58644374  1
  Si  Si23  1  0.38063880  0.33398758  0.08609243  1
  Si  Si24  1  0.62101463  0.66775591  0.91612366  1
  Si  Si25  1  0.04610688  0.38038366  0.91612031  1
  Si  Si26  1  0.33336330  0.95168858  0.91660992  1
  Si  Si27  1  0.62662983  0.95996217  0.41632807  1
  Si  Si28  1  0.32140859  0.36618034  0.41589903  1
  Si  Si29  1  0.04668783  0.67198704  0.41740293  1
  P  P30  1  0.28655253  0.99990023  0.25080476  1
  P  P31  1  0.99483928  0.28628368  0.25012337  1
  P  P32  1  0.29374514  0.28798691  0.74898684  1
  P  P33  1  0.99468242  0.70645505  0.74907747  1
  P  P34  1  0.71180262  0.00669981  0.74867341  1
  P  P35  1  0.95156858  0.33573192  0.58631196  1
  P  P36  1  0.38433168  0.04817046  0.58610660  1
  P  P37  1  0.95283369  0.61767816  0.08432126  1
  P  P38  1  0.66491819  0.04936422  0.08566614  1
  O  O39  1  0.20688773  0.03806966  0.30419031  1
  O  O40  1  0.82614233  0.79716951  0.31074629  1
  O  O41  1  0.96313521  0.17225752  0.30426461  1
  O  O42  1  0.19742516  0.17438839  0.80389650  1
  O  O43  1  0.97551734  0.80195377  0.80385313  1
  O  O44  1  0.82564134  0.02581152  0.80374769  1
  O  O45  1  0.80364897  0.97634032  0.69453269  1
  O  O46  1  0.17319475  0.19823243  0.69467518  1
  O  O47  1  0.02500357  0.82837403  0.69481486  1
  O  O48  1  0.80518287  0.83741244  0.19436226  1
  O  O49  1  0.03324652  0.20218564  0.19454124  1
  O  O50  1  0.17135608  0.97312165  0.19455931  1
  O  O51  1  0.87112857  0.36278820  0.64103504  1
  O  O52  1  0.49398603  0.12500130  0.64082254  1
  O  O53  1  0.63158430  0.49857057  0.64334262  1
  O  O54  1  0.87811369  0.50841782  0.13993893  1
  O  O55  1  0.63912699  0.12715582  0.14260511  1
  O  O56  1  0.49039429  0.36440033  0.14595372  1
  O  O57  1  0.47234725  0.30510454  0.02761528  1
  O  O58  1  0.84029954  0.53485809  0.02892196  1
  O  O59  1  0.69625713  0.16281923  0.03027881  1
  O  O60  1  0.46599950  0.16149277  0.52982698  1
  O  O61  1  0.69727284  0.53414117  0.52540347  1
  O  O62  1  0.83766563  0.30126245  0.52977042  1
  O  O63  1  0.53243010  0.70028645  0.97439156  1
  O  O64  1  0.16875785  0.46936965  0.97423817  1
  O  O65  1  0.30082916  0.83266829  0.97504091  1
  O  O66  1  0.52786601  0.83006906  0.47253114  1
  O  O67  1  0.30400538  0.47000151  0.47332053  1
  O  O68  1  0.16619478  0.69364665  0.47484219  1
  O  O69  1  0.13495679  0.63331199  0.35897366  1
  O  O70  1  0.50167535  0.86960654  0.35673047  1
  O  O71  1  0.37020293  0.49978480  0.35770240  1
  O  O72  1  0.13725026  0.50209589  0.85796652  1
  O  O73  1  0.36434910  0.86173655  0.85819271  1
  O  O74  1  0.49831430  0.63489570  0.85806855  1
  O  O75  1  0.01750311  0.83536911  0.41175405  1
  O  O76  1  0.81100849  0.96888014  0.41074392  1
  O  O77  1  0.15445239  0.18020128  0.40827597  1
  O  O78  1  0.02624403  0.18819165  0.90695262  1
  O  O79  1  0.16314986  0.97539889  0.90686661  1
  O  O80  1  0.81332196  0.83910472  0.90697950  1
  O  O81  1  0.97558071  0.17076895  0.59253926  1
  O  O82  1  0.19770027  0.03044191  0.59258239  1
  O  O83  1  0.83884338  0.81412154  0.59274497  1
  O  O84  1  0.97125401  0.80356138  0.09113483  1
  O  O85  1  0.83084037  0.02662269  0.09092847  1
  O  O86  1  0.18278925  0.15964324  0.09077359  1
  O  O87  1  0.69363341  0.16834190  0.74261664  1
  O  O88  1  0.47308681  0.30340314  0.74502160  1
  O  O89  1  0.83442605  0.52588222  0.74419454  1
  O  O90  1  0.68224451  0.50859270  0.24526899  1
  O  O91  1  0.83042177  0.30210656  0.24055694  1
  O  O92  1  0.47432957  0.15629574  0.24327594  1
  O  O93  1  0.64328715  0.49717462  0.92469672  1
  O  O94  1  0.85423030  0.35846922  0.92537384  1
  O  O95  1  0.50612237  0.14389000  0.92414639  1
  O  O96  1  0.63679655  0.14724112  0.42455645  1
  O  O97  1  0.50718534  0.36568197  0.42493656  1
  O  O98  1  0.85343878  0.49422480  0.42470983  1
  O  O99  1  0.35552102  0.50539379  0.07749290  1
  O  O100  1  0.14015956  0.64619769  0.07678056  1
  O  O101  1  0.50344877  0.86422325  0.07752251  1
  O  O102  1  0.35441565  0.86133458  0.57668281  1
  O  O103  1  0.49575418  0.64612717  0.57752985  1
  O  O104  1  0.13669197  0.49570735  0.57728039  1
  O  O105  1  0.30424255  0.83164551  0.25447035  1
  O  O106  1  0.51768634  0.69106394  0.25485405  1
  O  O107  1  0.16622948  0.46883303  0.25467737  1
  O  O108  1  0.30556920  0.46992802  0.75539914  1
  O  O109  1  0.16627202  0.69644313  0.75492708  1
  O  O110  1  0.53049063  0.83590905  0.75493446  1
