# generated using pymatgen
data_Na3CaTa5Si6(SO12)3
_symmetry_space_group_name_H-M   'P 1'
_cell_length_a   8.92878116
_cell_length_b   8.92878086
_cell_length_c   23.05207067
_cell_angle_alpha   90.12616043
_cell_angle_beta   89.87383957
_cell_angle_gamma   119.98948264
_symmetry_Int_Tables_number   1
_chemical_formula_structural   Na3CaTa5Si6(SO12)3
_chemical_formula_sum   'Na6 Ca2 Ta10 Si12 S6 O72'
_cell_volume   1591.73046832
_cell_formula_units_Z   2
loop_
 _symmetry_equiv_pos_site_id
 _symmetry_equiv_pos_as_xyz
  1  'x, y, z'
loop_
 _atom_site_type_symbol
 _atom_site_label
 _atom_site_symmetry_multiplicity
 _atom_site_fract_x
 _atom_site_fract_y
 _atom_site_fract_z
 _atom_site_occupancy
  Na  Na0  1  0.00511665  0.99463584  0.50007257  1
  Na  Na1  1  0.00536416  0.99488335  0.00007257  1
  Na  Na2  1  0.66739897  0.31669572  0.83092458  1
  Na  Na3  1  0.68330428  0.33260103  0.33092458  1
  Na  Na4  1  0.31424090  0.64308995  0.16308574  1
  Na  Na5  1  0.35691005  0.68575910  0.66308574  1
  Ca  Ca6  1  0.65766570  0.32210009  0.68702279  1
  Ca  Ca7  1  0.67789991  0.34233430  0.18702279  1
  Ta  Ta8  1  0.99707726  0.00668572  0.35928335  1
  Ta  Ta9  1  0.99331428  0.00292274  0.85928335  1
  Ta  Ta10  1  0.98637344  0.99010174  0.64231837  1
  Ta  Ta11  1  0.00989826  0.01362656  0.14231837  1
  Ta  Ta12  1  0.66498948  0.34682744  0.97770268  1
  Ta  Ta13  1  0.65317256  0.33501052  0.47770268  1
  Ta  Ta14  1  0.32308416  0.65950464  0.01615548  1
  Ta  Ta15  1  0.34049536  0.67691584  0.51615548  1
  Ta  Ta16  1  0.32367959  0.65655039  0.31521662  1
  Ta  Ta17  1  0.34344961  0.67632041  0.81521662  1
  Si  Si18  1  0.00259400  0.29061480  0.25199786  1
  Si  Si19  1  0.70938520  0.99740600  0.75199786  1
  Si  Si20  1  0.37517390  0.03879678  0.58485046  1
  Si  Si21  1  0.65742116  0.61764513  0.58472657  1
  Si  Si22  1  0.96120322  0.62482610  0.08485046  1
  Si  Si23  1  0.38235487  0.34257884  0.08472657  1
  Si  Si24  1  0.61868582  0.66778091  0.91714598  1
  Si  Si25  1  0.04180917  0.38381050  0.91422347  1
  Si  Si26  1  0.33955643  0.95947165  0.91604490  1
  Si  Si27  1  0.61618950  0.95819083  0.41422347  1
  Si  Si28  1  0.33221909  0.38131418  0.41714598  1
  Si  Si29  1  0.04052835  0.66044357  0.41604490  1
  S  S30  1  0.27666862  0.98970024  0.25121139  1
  S  S31  1  0.71217261  0.72281051  0.25227546  1
  S  S32  1  0.27718949  0.28782739  0.75227546  1
  S  S33  1  0.01029976  0.72333138  0.75121139  1
  S  S34  1  0.96324291  0.33527753  0.58223405  1
  S  S35  1  0.66472247  0.03675709  0.08223405  1
  O  O36  1  0.18153252  -0.00470747  0.30326868  1
  O  O37  1  0.81744548  0.81439720  0.30481437  1
  O  O38  1  0.00450577  0.17212705  0.30699895  1
  O  O39  1  0.18560280  0.18255452  0.80481437  1
  O  O40  1  0.00470747  0.81846748  0.80326868  1
  O  O41  1  0.82787295  -0.00450577  0.80699895  1
  O  O42  1  0.81256699  0.98037924  0.69355474  1
  O  O43  1  0.17703392  0.20097096  0.69895777  1
  O  O44  1  0.02875044  0.82689746  0.69685354  1
  O  O45  1  0.79902904  0.82296608  0.19895777  1
  O  O46  1  0.01962076  0.18743301  0.19355474  1
  O  O47  1  0.17310254  0.97124956  0.19685354  1
  O  O48  1  0.89808395  0.36692816  0.63557659  1
  O  O49  1  0.48237742  0.09096017  0.64254711  1
  O  O50  1  0.62673875  0.52232202  0.64402547  1
  O  O51  1  0.90903983  0.51762258  0.14254711  1
  O  O52  1  0.63307184  0.10191605  0.13557659  1
  O  O53  1  0.47767798  0.37326125  0.14402547  1
  O  O54  1  0.47426425  0.30605355  0.02705331  1
  O  O55  1  0.83312751  0.52631754  0.02723935  1
  O  O56  1  0.69901526  0.14827282  0.03079354  1
  O  O57  1  0.47368246  0.16687249  0.52723935  1
  O  O58  1  0.69394645  0.52573575  0.52705331  1
  O  O59  1  0.85172718  0.30098474  0.53079354  1
  O  O60  1  0.53253763  0.70298509  0.97266311  1
  O  O61  1  0.16558679  0.47122982  0.97038102  1
  O  O62  1  0.30510013  0.83506989  0.97100374  1
  O  O63  1  0.52877018  0.83441321  0.47038102  1
  O  O64  1  0.29701491  0.46746237  0.47266311  1
  O  O65  1  0.16493011  0.69489987  0.47100374  1
  O  O66  1  0.13469473  0.63258753  0.35797462  1
  O  O67  1  0.49724013  0.86458354  0.35673787  1
  O  O68  1  0.36255225  0.50055056  0.35885531  1
  O  O69  1  0.13541646  0.50275987  0.85673787  1
  O  O70  1  0.36741247  0.86530527  0.85797462  1
  O  O71  1  0.49944944  0.63744775  0.85885531  1
  O  O72  1  0.01985325  0.83006884  0.40487454  1
  O  O73  1  0.80810545  0.97509093  0.40695371  1
  O  O74  1  0.16757927  0.18429760  0.40900473  1
  O  O75  1  0.02490907  0.19189455  0.90695371  1
  O  O76  1  0.16993116  0.98014675  0.90487454  1
  O  O77  1  0.81570240  0.83242073  0.90900473  1
  O  O78  1  0.98151324  0.17343708  0.58892538  1
  O  O79  1  0.18223195  0.02826732  0.59312180  1
  O  O80  1  0.83624116  0.81781375  0.59006346  1
  O  O81  1  0.97173268  0.81776805  0.09312180  1
  O  O82  1  0.82656292  0.01848676  0.08892538  1
  O  O83  1  0.18218625  0.16375884  0.09006346  1
  O  O84  1  0.69680629  0.16643869  0.75677196  1
  O  O85  1  0.44960908  0.31065117  0.75271340  1
  O  O86  1  0.85654001  0.55516981  0.74981145  1
  O  O87  1  0.68934883  0.55039092  0.25271340  1
  O  O88  1  0.83356131  0.30319371  0.25677196  1
  O  O89  1  0.44483019  0.14345999  0.24981145  1
  O  O90  1  0.63859323  0.49695742  0.92369422  1
  O  O91  1  0.85203630  0.35715205  0.92535050  1
  O  O92  1  0.50907402  0.14676624  0.92620684  1
  O  O93  1  0.64284795  0.14796370  0.42535050  1
  O  O94  1  0.50304258  0.36140677  0.42369422  1
  O  O95  1  0.85323376  0.49092598  0.42620684  1
  O  O96  1  0.34619519  0.50158715  0.06982708  1
  O  O97  1  0.16052496  0.67115127  0.06862131  1
  O  O98  1  0.51882673  0.85957753  0.07239551  1
  O  O99  1  0.32884873  0.83947504  0.56862131  1
  O  O100  1  0.49841285  0.65380481  0.56982708  1
  O  O101  1  0.14042247  0.48117327  0.57239551  1
  O  O102  1  0.29028425  0.82888929  0.25362993  1
  O  O103  1  0.54141882  0.71696416  0.25591673  1
  O  O104  1  0.18528131  0.48051421  0.25632602  1
  O  O105  1  0.28303584  0.45858118  0.75591673  1
  O  O106  1  0.17111071  0.70971575  0.75362993  1
  O  O107  1  0.51948579  0.81471869  0.75632602  1
