# generated using pymatgen
data_Na6Hf2Mg2Si3(SO8)3
_symmetry_space_group_name_H-M   'P 1'
_cell_length_a   9.07530064
_cell_length_b   9.08004567
_cell_length_c   22.53395848
_cell_angle_alpha   89.90941443
_cell_angle_beta   90.71892269
_cell_angle_gamma   119.57908928
_symmetry_Int_Tables_number   1
_chemical_formula_structural   Na6Hf2Mg2Si3(SO8)3
_chemical_formula_sum   'Na18 Hf6 Mg6 Si9 S9 O72'
_cell_volume   1614.74259412
_cell_formula_units_Z   3
loop_
 _symmetry_equiv_pos_site_id
 _symmetry_equiv_pos_as_xyz
  1  'x, y, z'
loop_
 _atom_site_type_symbol
 _atom_site_label
 _atom_site_symmetry_multiplicity
 _atom_site_fract_x
 _atom_site_fract_y
 _atom_site_fract_z
 _atom_site_occupancy
  Na  Na0  1  0.37305754  0.34921694  0.24459085  1
  Na  Na1  1  0.00014564  0.64130316  0.23448928  1
  Na  Na2  1  0.98698001  0.34504327  0.74070390  1
  Na  Na3  1  0.38886201  0.03072646  0.74476207  1
  Na  Na4  1  0.29685165  0.33288788  0.58222462  1
  Na  Na5  1  0.65622277  0.98479745  0.59567563  1
  Na  Na6  1  0.29950107  0.95792259  0.06977780  1
  Na  Na7  1  0.65785474  0.67675505  0.07960452  1
  Na  Na8  1  0.99074983  0.68738654  0.91795905  1
  Na  Na9  1  0.31872027  0.27777328  0.90501749  1
  Na  Na10  1  0.99147879  0.30353873  0.43123960  1
  Na  Na11  1  0.32108310  0.04189171  0.41543778  1
  Na  Na12  1  0.01260852  0.00285967  0.50480604  1
  Na  Na13  1  0.00924395  0.01041363  0.99122274  1
  Na  Na14  1  0.64725866  0.30926788  0.82141535  1
  Na  Na15  1  0.64081706  0.32020187  0.32934552  1
  Na  Na16  1  0.31730047  0.65357579  0.15341741  1
  Na  Na17  1  0.32154562  0.66503176  0.65889232  1
  Hf  Hf18  1  0.00387064  0.01330667  0.64918546  1
  Hf  Hf19  1  0.01627609  0.00209521  0.14443148  1
  Hf  Hf20  1  0.65645717  0.32598650  0.98331403  1
  Hf  Hf21  1  0.65259274  0.33019600  0.48623031  1
  Hf  Hf22  1  0.34047416  0.66831981  0.31512729  1
  Hf  Hf23  1  0.35117472  0.68414841  0.81044778  1
  Mg  Mg24  1  0.01876855  0.01239627  0.35046481  1
  Mg  Mg25  1  0.01583933  0.01099047  0.84533501  1
  Mg  Mg26  1  0.65904440  0.31672554  0.68440657  1
  Mg  Mg27  1  0.65627257  0.32739008  0.18058088  1
  Mg  Mg28  1  0.30690657  0.65717720  0.02016381  1
  Mg  Mg29  1  0.31230917  0.64890031  0.52293168  1
  Si  Si30  1  0.30715870  0.00262866  0.25309906  1
  Si  Si31  1  0.30624915  0.30364338  0.75343133  1
  Si  Si32  1  0.71334118  0.00252022  0.75149945  1
  Si  Si33  1  0.96023586  0.33652912  0.58575422  1
  Si  Si34  1  0.36274168  0.02376573  0.58452413  1
  Si  Si35  1  0.95784086  0.62009206  0.08832369  1
  Si  Si36  1  0.37139679  0.34368390  0.08616044  1
  Si  Si37  1  0.32942906  0.96124208  0.91976821  1
  Si  Si38  1  0.33442882  0.37068895  0.41744100  1
  S  S39  1  0.71084394  0.71614015  0.25238041  1
  S  S40  1  0.99560312  0.29138798  0.25329090  1
  S  S41  1  0.99705508  0.70632287  0.75346303  1
  S  S42  1  0.67012983  0.62753472  0.58499446  1
  S  S43  1  0.66971398  0.04211766  0.08555950  1
  S  S44  1  0.62805634  0.66801862  0.92032256  1
  S  S45  1  0.03869850  0.37377312  0.91756863  1
  S  S46  1  0.63230884  0.96045583  0.41739896  1
  S  S47  1  0.03964298  0.66665896  0.41460209  1
  O  O48  1  0.21612020  0.02533999  0.31081442  1
  O  O49  1  0.81449252  0.81094106  0.30360502  1
  O  O50  1  0.97986689  0.19685916  0.30789912  1
  O  O51  1  0.22855343  0.18828211  0.81172669  1
  O  O52  1  0.98310048  0.78277147  0.80881925  1
  O  O53  1  0.82967845  0.01585442  0.80670068  1
  O  O54  1  0.79187542  0.97260974  0.68894326  1
  O  O55  1  0.17490273  0.20688187  0.69460814  1
  O  O56  1  0.02601475  0.82029806  0.70176011  1
  O  O57  1  0.78198625  0.81081868  0.19618204  1
  O  O58  1  0.01802265  0.20426779  0.20109145  1
  O  O59  1  0.17651479  0.97110148  0.19434402  1
  O  O60  1  0.86589931  0.35291791  0.64222597  1
  O  O61  1  0.47776317  0.11461217  0.64193671  1
  O  O62  1  0.64765077  0.52243182  0.63609349  1
  O  O63  1  0.86902516  0.51734173  0.14761263  1
  O  O64  1  0.64481942  0.12339165  0.13743795  1
  O  O65  1  0.47708566  0.36727663  0.14690589  1
  O  O66  1  0.46352521  0.29973302  0.02977204  1
  O  O67  1  0.83816156  0.52712399  0.02863642  1
  O  O68  1  0.69586619  0.14663401  0.03108398  1
  O  O69  1  0.45261737  0.15760547  0.52474162  1
  O  O70  1  0.68977549  0.54297959  0.52929952  1
  O  O71  1  0.84587129  0.31391161  0.52245396  1
  O  O72  1  0.54978686  0.68435808  0.97411072  1
  O  O73  1  0.14786356  0.45717497  0.96935853  1
  O  O74  1  0.31084728  0.85113345  0.97826010  1
  O  O75  1  0.55617230  0.86659744  0.47113483  1
  O  O76  1  0.31311395  0.46962895  0.47262551  1
  O  O77  1  0.14951767  0.69576701  0.46635012  1
  O  O78  1  0.12621675  0.64499746  0.36007862  1
  O  O79  1  0.51524578  0.87263040  0.36433883  1
  O  O80  1  0.35304627  0.48139370  0.35524737  1
  O  O81  1  0.11474965  0.47663447  0.86297147  1
  O  O82  1  0.34505191  0.86140353  0.86073429  1
  O  O83  1  0.51521643  0.63983713  0.86714480  1
  O  O84  1  0.01350803  0.81248112  0.40683681  1
  O  O85  1  0.80207747  0.98446436  0.40732481  1
  O  O86  1  0.16409234  0.18122908  0.41433109  1
  O  O87  1  0.01676968  0.20285037  0.91304334  1
  O  O88  1  0.15940116  0.98208736  0.91498568  1
  O  O89  1  0.79985459  0.80930951  0.91311677  1
  O  O90  1  0.96227670  0.15030927  0.58541521  1
  O  O91  1  0.17538661  0.01214190  0.58750487  1
  O  O92  1  0.82489188  0.79635552  0.58721832  1
  O  O93  1  0.95882603  0.80995535  0.08957965  1
  O  O94  1  0.82363762  0.02402134  0.09188871  1
  O  O95  1  0.18220671  0.16621530  0.08888950  1
  O  O96  1  0.69210222  0.16972965  0.74776656  1
  O  O97  1  0.49120847  0.32873884  0.74234578  1
  O  O98  1  0.85380628  0.53700338  0.74537927  1
  O  O99  1  0.69628851  0.54629859  0.25085428  1
  O  O100  1  0.85409684  0.32410740  0.24719940  1
  O  O101  1  0.49035065  0.16975436  0.24509835  1
  O  O102  1  0.63999810  0.50511740  0.92231972  1
  O  O103  1  0.86977720  0.36659341  0.92387821  1
  O  O104  1  0.49997944  0.15547884  0.92148091  1
  O  O105  1  0.64388921  0.13366395  0.41809282  1
  O  O106  1  0.50503043  0.34536547  0.41787249  1
  O  O107  1  0.87499100  0.50485879  0.41767530  1
  O  O108  1  0.36358052  0.51389432  0.07399854  1
  O  O109  1  0.15307634  0.66922353  0.08278314  1
  O  O110  1  0.52279359  0.87171460  0.07813814  1
  O  O111  1  0.36370409  0.85005078  0.57167375  1
  O  O112  1  0.52081625  0.65002584  0.57654815  1
  O  O113  1  0.15633045  0.48369766  0.58154560  1
  O  O114  1  0.30648894  0.81765177  0.25549378  1
  O  O115  1  0.53242246  0.68928562  0.25593465  1
  O  O116  1  0.15898821  0.46378129  0.25546119  1
  O  O117  1  0.29464437  0.48035605  0.75915010  1
  O  O118  1  0.15752904  0.69102798  0.75594588  1
  O  O119  1  0.51341847  0.83688788  0.75339645  1
