# generated using pymatgen
data_YSnP(SO6)2
_symmetry_space_group_name_H-M   'P 1'
_cell_length_a   9.02196727
_cell_length_b   9.05006309
_cell_length_c   23.27730941
_cell_angle_alpha   89.60787230
_cell_angle_beta   90.00000000
_cell_angle_gamma   119.89735732
_symmetry_Int_Tables_number   1
_chemical_formula_structural   YSnP(SO6)2
_chemical_formula_sum   'Y6 Sn6 P6 S12 O72'
_cell_volume   1647.59699824
_cell_formula_units_Z   6
loop_
 _symmetry_equiv_pos_site_id
 _symmetry_equiv_pos_as_xyz
  1  'x, y, z'
loop_
 _atom_site_type_symbol
 _atom_site_label
 _atom_site_symmetry_multiplicity
 _atom_site_fract_x
 _atom_site_fract_y
 _atom_site_fract_z
 _atom_site_occupancy
  Y  Y0  1  0.00189781  0.00223012  0.35892075  1
  Y  Y1  1  0.00033231  0.00223012  0.85892075  1
  Y  Y2  1  0.67683020  0.33914426  0.69270456  1
  Y  Y3  1  0.66231506  0.33914426  0.19270456  1
  Y  Y4  1  0.32901453  0.65541108  0.02537089  1
  Y  Y5  1  0.32639555  0.65541108  0.52537089  1
  Sn  Sn6  1  0.99991657  0.00147476  0.64904997  1
  Sn  Sn7  1  0.00155819  0.00147476  0.14904997  1
  Sn  Sn8  1  0.66423750  0.33203974  0.98296316  1
  Sn  Sn9  1  0.66780323  0.33203974  0.48296316  1
  Sn  Sn10  1  0.34648837  0.66234605  0.31568210  1
  Sn  Sn11  1  0.31585668  0.66234605  0.81568210  1
  P  P12  1  0.70820895  0.72536543  0.24987589  1
  P  P13  1  0.01715648  0.72536543  0.74987589  1
  P  P14  1  0.94330905  0.31029548  0.58344931  1
  P  P15  1  0.36698743  0.31029548  0.08344931  1
  P  P16  1  0.02936990  0.38298001  0.91806312  1
  P  P17  1  0.35360911  0.38298001  0.41806312  1
  S  S18  1  0.28340577  0.97828019  0.25125795  1
  S  S19  1  0.01709204  0.30112991  0.24998859  1
  S  S20  1  0.28403787  0.30112991  0.74998859  1
  S  S21  1  0.69487442  0.97828019  0.75125795  1
  S  S22  1  0.36869956  0.05040068  0.58400365  1
  S  S23  1  0.68414619  0.63360117  0.58360698  1
  S  S24  1  0.94945597  0.63360117  0.08360698  1
  S  S25  1  0.68170211  0.05040068  0.08400365  1
  S  S26  1  0.61230181  0.64997235  0.91588324  1
  S  S27  1  0.35205554  0.96593224  0.91734485  1
  S  S28  1  0.61387569  0.96593224  0.41734485  1
  S  S29  1  0.03766955  0.64997235  0.41588324  1
  O  O30  1  0.20413432  0.00970715  0.30107366  1
  O  O31  1  0.81837843  0.81109519  0.30191845  1
  O  O32  1  0.99052977  0.19471050  0.30083896  1
  O  O33  1  0.20418074  0.19471050  0.80083896  1
  O  O34  1  0.99271675  0.81109519  0.80191845  1
  O  O35  1  0.80557283  0.00970715  0.80107366  1
  O  O36  1  0.77401300  0.95142313  0.69803346  1
  O  O37  1  0.17431651  0.22469057  0.69742504  1
  O  O38  1  0.04597471  0.83778195  0.69380296  1
  O  O39  1  0.79180725  0.83778195  0.19380296  1
  O  O40  1  0.05037406  0.22469057  0.19742504  1
  O  O41  1  0.17741013  0.95142313  0.19803346  1
  O  O42  1  0.85634324  0.33485463  0.63512417  1
  O  O43  1  0.47368380  0.13105968  0.63439616  1
  O  O44  1  0.65147985  0.52387132  0.63393664  1
  O  O45  1  0.87239247  0.52387132  0.13393664  1
  O  O46  1  0.65737689  0.13105968  0.13439616  1
  O  O47  1  0.47851238  0.33485463  0.13512417  1
  O  O48  1  0.45037369  0.28177197  0.02759285  1
  O  O49  1  0.84256852  0.55525766  0.03074302  1
  O  O50  1  0.71333771  0.15943417  0.03065919  1
  O  O51  1  0.44609746  0.15943417  0.53065919  1
  O  O52  1  0.71269014  0.55525766  0.53074302  1
  O  O53  1  0.83139928  0.28177197  0.52759285  1
  O  O54  1  0.53449838  0.67866671  0.96647162  1
  O  O55  1  0.14360368  0.46830634  0.96924951  1
  O  O56  1  0.32704450  0.85992021  0.96796435  1
  O  O57  1  0.53287471  0.85992021  0.46796435  1
  O  O58  1  0.32470166  0.46830634  0.46924951  1
  O  O59  1  0.14416733  0.67866671  0.46647162  1
  O  O60  1  0.11937280  0.62524621  0.36297690  1
  O  O61  1  0.50613388  0.88884858  0.36428198  1
  O  O62  1  0.38683790  0.49620277  0.36188893  1
  O  O63  1  0.10936387  0.49620277  0.86188893  1
  O  O64  1  0.38271370  0.88884858  0.86428198  1
  O  O65  1  0.50587241  0.62524621  0.86297690  1
  O  O66  1  0.01262723  0.79684638  0.40802001  1
  O  O67  1  0.78476055  0.98730242  0.40929224  1
  O  O68  1  0.20123035  0.20670630  0.40738446  1
  O  O69  1  0.00547595  0.20670630  0.90738446  1
  O  O70  1  0.20254187  0.98730242  0.90929224  1
  O  O71  1  0.78421915  0.79684638  0.90802001  1
  O  O72  1  0.96141263  0.14762325  0.59212007  1
  O  O73  1  0.19537388  0.03428406  0.59001254  1
  O  O74  1  0.84231592  0.80311036  0.59072152  1
  O  O75  1  0.96079444  0.80311036  0.09072152  1
  O  O76  1  0.83891017  0.03428406  0.09001254  1
  O  O77  1  0.18621062  0.14762325  0.09212007  1
  O  O78  1  0.66681240  0.12273684  0.74287517  1
  O  O79  1  0.45255945  0.31969988  0.74104046  1
  O  O80  1  0.86356108  0.54907393  0.74092825  1
  O  O81  1  0.68551385  0.54907393  0.24092825  1
  O  O82  1  0.86714143  0.31969988  0.24104046  1
  O  O83  1  0.45592544  0.12273684  0.24287517  1
  O  O84  1  0.62651778  0.49277827  0.92327519  1
  O  O85  1  0.84962976  0.36703323  0.92707944  1
  O  O86  1  0.50788380  0.13805083  0.92324001  1
  O  O87  1  0.63016803  0.13805083  0.42324001  1
  O  O88  1  0.51740447  0.36703323  0.42707944  1
  O  O89  1  0.86626149  0.49277827  0.42327519  1
  O  O90  1  0.34393987  0.46388021  0.07404074  1
  O  O91  1  0.12247466  0.66127096  0.07541100  1
  O  O92  1  0.53283193  0.88152318  0.07508664  1
  O  O93  1  0.34869025  0.88152318  0.57508664  1
  O  O94  1  0.53879530  0.66127096  0.57541100  1
  O  O95  1  0.11993933  0.46388021  0.57404074  1
  O  O96  1  0.29349684  0.81942789  0.25985461  1
  O  O97  1  0.52785709  0.71069917  0.25577122  1
  O  O98  1  0.17097130  0.47450067  0.25730358  1
  O  O99  1  0.30352837  0.47450067  0.75730358  1
  O  O100  1  0.18284108  0.71069917  0.75577122  1
  O  O101  1  0.52593005  0.81942789  0.75985461  1
