# generated using pymatgen
data_Na2TaAl3P4(SO12)2
_symmetry_space_group_name_H-M   'P 1'
_cell_length_a   8.45449400
_cell_length_b   8.45550299
_cell_length_c   22.05008896
_cell_angle_alpha   89.97172820
_cell_angle_beta   89.86950384
_cell_angle_gamma   119.94952062
_symmetry_Int_Tables_number   1
_chemical_formula_structural   Na2TaAl3P4(SO12)2
_chemical_formula_sum   'Na6 Ta3 Al9 P12 S6 O72'
_cell_volume   1365.79914058
_cell_formula_units_Z   3
loop_
 _symmetry_equiv_pos_site_id
 _symmetry_equiv_pos_as_xyz
  1  'x, y, z'
loop_
 _atom_site_type_symbol
 _atom_site_label
 _atom_site_symmetry_multiplicity
 _atom_site_fract_x
 _atom_site_fract_y
 _atom_site_fract_z
 _atom_site_occupancy
  Na  Na0  1  0.99654395  0.99570918  0.49968267  1
  Na  Na1  1  0.00347673  0.00004355  0.99892959  1
  Na  Na2  1  0.66663400  0.33250792  0.82981380  1
  Na  Na3  1  0.67463523  0.33681638  0.33238683  1
  Na  Na4  1  0.33058373  0.65949967  0.16165353  1
  Na  Na5  1  0.33358999  0.66655872  0.66608249  1
  Ta  Ta6  1  0.66448347  0.33980179  0.97896047  1
  Ta  Ta7  1  0.33122870  0.66681324  0.31121382  1
  Ta  Ta8  1  0.33270087  0.66699044  0.80980851  1
  Al  Al9  1  0.98147101  0.98914456  0.35241666  1
  Al  Al10  1  0.00046607  0.00012213  0.85235966  1
  Al  Al11  1  0.00052254  0.00026724  0.65264298  1
  Al  Al12  1  0.99847151  0.00173911  0.14528805  1
  Al  Al13  1  0.66680128  0.33386003  0.69101100  1
  Al  Al14  1  0.67768243  0.35002029  0.18522535  1
  Al  Al15  1  0.67422484  0.33307259  0.48018955  1
  Al  Al16  1  0.32563726  0.65799859  0.01895057  1
  Al  Al17  1  0.33492342  0.67634393  0.51768794  1
  P  P18  1  0.72370676  0.71392828  0.24815103  1
  P  P19  1  0.98768059  0.27288586  0.24872659  1
  P  P20  1  0.28514634  0.27577595  0.74854203  1
  P  P21  1  0.99028198  0.71481290  0.74858197  1
  P  P22  1  0.72450988  0.00962039  0.74857685  1
  P  P23  1  0.96424181  0.63009224  0.08626372  1
  P  P24  1  0.37242885  0.33400581  0.08750517  1
  P  P25  1  0.62502327  0.68036519  0.91832135  1
  P  P26  1  0.04960034  0.37183806  0.91798607  1
  P  P27  1  0.32314346  0.94815121  0.91880128  1
  P  P28  1  0.62605944  0.96011442  0.41996798  1
  P  P29  1  0.03978089  0.66976830  0.41983003  1
  S  S30  1  0.28699719  0.01021524  0.24939221  1
  S  S31  1  0.95600041  0.33346616  0.58339795  1
  S  S32  1  0.37956791  0.04749744  0.58319353  1
  S  S33  1  0.66582649  0.62015178  0.58286109  1
  S  S34  1  0.66501250  0.04144449  0.08592644  1
  S  S35  1  0.33256762  0.37338565  0.41946772  1
  O  O36  1  0.20661616  0.03303521  0.30531486  1
  O  O37  1  0.83136057  0.79452966  0.30639574  1
  O  O38  1  0.96950634  0.16790804  0.30733062  1
  O  O39  1  0.20278539  0.16734857  0.80636705  1
  O  O40  1  0.96443615  0.79703420  0.80643885  1
  O  O41  1  0.83239302  0.03522697  0.80634904  1
  O  O42  1  0.79850621  0.96750712  0.69125424  1
  O  O43  1  0.16932230  0.20192321  0.69133896  1
  O  O44  1  0.03284489  0.83087623  0.69124053  1
  O  O45  1  0.80222300  0.83408838  0.19240128  1
  O  O46  1  0.03269482  0.19778178  0.19270662  1
  O  O47  1  0.17337750  0.96872219  0.19499890  1
  O  O48  1  0.87327505  0.36621072  0.63739480  1
  O  O49  1  0.49368949  0.12882892  0.63734982  1
  O  O50  1  0.63431981  0.50634611  0.63731852  1
  O  O51  1  0.87410795  0.50390495  0.14036781  1
  O  O52  1  0.63437594  0.12698781  0.13932326  1
  O  O53  1  0.49714431  0.36233206  0.14132959  1
  O  O54  1  0.46032724  0.29928752  0.02898520  1
  O  O55  1  0.84033190  0.53873539  0.02867246  1
  O  O56  1  0.69902699  0.15563883  0.02983224  1
  O  O57  1  0.46315912  0.16069970  0.52798991  1
  O  O58  1  0.69562258  0.53601242  0.52778575  1
  O  O59  1  0.84217209  0.30227322  0.52837664  1
  O  O60  1  0.53421358  0.70087460  0.97463782  1
  O  O61  1  0.16315500  0.46128767  0.97382129  1
  O  O62  1  0.30115545  0.83432823  0.97461894  1
  O  O63  1  0.53561274  0.83389873  0.47427973  1
  O  O64  1  0.30032222  0.45960152  0.47250782  1
  O  O65  1  0.16334311  0.69851804  0.47417605  1
  O  O66  1  0.12758644  0.63279297  0.36189872  1
  O  O67  1  0.50455574  0.87022330  0.36198224  1
  O  O68  1  0.36788557  0.48901397  0.36321114  1
  O  O69  1  0.12821084  0.49434992  0.86064416  1
  O  O70  1  0.36542367  0.87026399  0.86084462  1
  O  O71  1  0.50463032  0.63501218  0.86076846  1
  O  O72  1  0.02821244  0.84196496  0.40802887  1
  O  O73  1  0.81361066  0.97842004  0.40979924  1
  O  O74  1  0.17041753  0.19429396  0.40969946  1
  O  O75  1  0.02565067  0.18448455  0.90837244  1
  O  O76  1  0.16043629  0.97364827  0.90894665  1
  O  O77  1  0.81417353  0.84068716  0.90887578  1
  O  O78  1  0.97518993  0.16875027  0.58976195  1
  O  O79  1  0.19476048  0.02635690  0.58952163  1
  O  O80  1  0.83004870  0.80443137  0.58923377  1
  O  O81  1  0.97572924  0.81571874  0.09283202  1
  O  O82  1  0.83109031  0.02631431  0.09108761  1
  O  O83  1  0.18479266  0.16146953  0.09293885  1
  O  O84  1  0.69340110  0.17196275  0.73992537  1
  O  O85  1  0.47843596  0.30651531  0.73994610  1
  O  O86  1  0.82818034  0.52160255  0.74003373  1
  O  O87  1  0.69029462  0.51943602  0.24206732  1
  O  O88  1  0.82406270  0.30235652  0.24131304  1
  O  O89  1  0.47193646  0.16473644  0.24248637  1
  O  O90  1  0.64092077  0.50271141  0.92329667  1
  O  O91  1  0.85779001  0.35568625  0.92455793  1
  O  O92  1  0.50005496  0.13962104  0.92463689  1
  O  O93  1  0.63940431  0.14700426  0.42693427  1
  O  O94  1  0.49852738  0.35899331  0.42613882  1
  O  O95  1  0.85136380  0.49793027  0.42689147  1
  O  O96  1  0.36032514  0.50610164  0.07613659  1
  O  O97  1  0.15025210  0.64625125  0.07550853  1
  O  O98  1  0.50230893  0.86160575  0.07732586  1
  O  O99  1  0.36042269  0.86194690  0.57578947  1
  O  O100  1  0.49912076  0.63818452  0.57495374  1
  O  O101  1  0.14084567  0.49873999  0.57480746  1
  O  O102  1  0.30615611  0.83961351  0.25576203  1
  O  O103  1  0.52716258  0.69284521  0.25764879  1
  O  O104  1  0.16329923  0.47112087  0.25791232  1
  O  O105  1  0.30783215  0.47179299  0.75564977  1
  O  O106  1  0.16386850  0.69236106  0.75550461  1
  O  O107  1  0.52855503  0.83610704  0.75562446  1
