# generated using pymatgen
data_Na6La2Nb6Si9(SO16)3
_symmetry_space_group_name_H-M   'P 1'
_cell_length_a   18.19311643
_cell_length_b   9.15371512
_cell_length_c   23.10983241
_cell_angle_alpha   90.12076159
_cell_angle_beta   89.75917920
_cell_angle_gamma   120.13803465
_symmetry_Int_Tables_number   1
_chemical_formula_structural   Na6La2Nb6Si9(SO16)3
_chemical_formula_sum   'Na18 La6 Nb18 Si27 S9 O144'
_cell_volume   3328.29894935
_cell_formula_units_Z   3
loop_
 _symmetry_equiv_pos_site_id
 _symmetry_equiv_pos_as_xyz
  1  'x, y, z'
loop_
 _atom_site_type_symbol
 _atom_site_label
 _atom_site_symmetry_multiplicity
 _atom_site_fract_x
 _atom_site_fract_y
 _atom_site_fract_z
 _atom_site_occupancy
  Na  Na0  1  0.32496062  0.01978320  0.25702470  1
  Na  Na1  1  0.68737826  0.37568688  0.24452925  1
  Na  Na2  1  0.49011097  0.62074461  0.24899916  1
  Na  Na3  1  0.82401700  0.63091195  0.75506437  1
  Na  Na4  1  0.99075463  0.35814539  0.74676067  1
  Na  Na5  1  0.18794050  0.00357224  0.74123390  1
  Na  Na6  1  0.00336127  0.01126851  0.50080999  1
  Na  Na7  1  0.50870905  0.99685813  0.50113695  1
  Na  Na8  1  0.00824770  0.02030254  0.00027971  1
  Na  Na9  1  0.50365916  0.99541361  0.99938408  1
  Na  Na10  1  0.34399631  0.32913874  0.83365733  1
  Na  Na11  1  0.82802411  0.31953143  0.82483063  1
  Na  Na12  1  0.32679684  0.33991293  0.33224927  1
  Na  Na13  1  0.84356700  0.35850286  0.33827904  1
  Na  Na14  1  0.16704989  0.64640022  0.16676571  1
  Na  Na15  1  0.67342012  0.67415066  0.16488345  1
  Na  Na16  1  0.17556299  0.67232085  0.66221741  1
  Na  Na17  1  0.65538580  0.67159704  0.65977391  1
  La  La18  1  0.50047521  0.00180411  0.36233167  1
  La  La19  1  0.00050581  0.00056961  0.86158398  1
  La  La20  1  0.34195787  0.33784252  0.67633347  1
  La  La21  1  0.82264678  0.31463309  0.67742800  1
  La  La22  1  0.32242573  0.33121911  0.17836579  1
  La  La23  1  0.83883317  0.34264298  0.17828852  1
  Nb  Nb24  1  0.00219648  0.98613102  0.36107660  1
  Nb  Nb25  1  0.50202900  0.01791276  0.85926739  1
  Nb  Nb26  1  0.99693358  0.99076164  0.64361454  1
  Nb  Nb27  1  0.49825934  0.01941405  0.63940355  1
  Nb  Nb28  1  0.00020969  0.99379689  0.14526251  1
  Nb  Nb29  1  0.49711986  0.00216829  0.14398933  1
  Nb  Nb30  1  0.33145403  0.35252707  0.97650454  1
  Nb  Nb31  1  0.82474299  0.30218079  0.97901540  1
  Nb  Nb32  1  0.33273917  0.34634209  0.48444421  1
  Nb  Nb33  1  0.83141075  0.30932513  0.47701878  1
  Nb  Nb34  1  0.17185615  0.66237427  0.01245450  1
  Nb  Nb35  1  0.65719181  0.66061384  0.02168292  1
  Nb  Nb36  1  0.15737791  0.65112674  0.52147641  1
  Nb  Nb37  1  0.66573008  0.67092262  0.51427831  1
  Nb  Nb38  1  0.16349113  0.65805875  0.31331716  1
  Nb  Nb39  1  0.66862295  0.65394791  0.31873916  1
  Nb  Nb40  1  0.16853933  0.68343005  0.81721812  1
  Nb  Nb41  1  0.66054186  0.66516277  0.81041831  1
  Si  Si42  1  0.13851798  0.98287152  0.25289318  1
  Si  Si43  1  0.35000930  0.71017959  0.25015492  1
  Si  Si44  1  0.85579108  0.72086192  0.25387053  1
  Si  Si45  1  0.50461469  0.30182674  0.24841074  1
  Si  Si46  1  0.63797008  0.28958592  0.75153347  1
  Si  Si47  1  0.00403208  0.70793937  0.74888196  1
  Si  Si48  1  0.35643183  0.99242270  0.75292065  1
  Si  Si49  1  0.85006642  0.99071305  0.75058663  1
  Si  Si50  1  0.48824511  0.34596138  0.57858209  1
  Si  Si51  1  0.97862856  0.32329811  0.58493507  1
  Si  Si52  1  0.18283426  0.02993007  0.58332185  1
  Si  Si53  1  0.68039858  0.02724840  0.58063130  1
  Si  Si54  1  0.33240891  0.63792638  0.58284193  1
  Si  Si55  1  0.47828981  0.63314292  0.08490331  1
  Si  Si56  1  0.83300760  0.02619439  0.08180220  1
  Si  Si57  1  0.17975826  0.33600819  0.08070772  1
  Si  Si58  1  0.68288099  0.33457862  0.08349606  1
  Si  Si59  1  0.31379530  0.66930861  0.91301505  1
  Si  Si60  1  0.01654261  0.38767824  0.91683473  1
  Si  Si61  1  0.52055096  0.38407815  0.91764494  1
  Si  Si62  1  0.17481431  0.96761600  0.92348126  1
  Si  Si63  1  0.66349983  0.94589058  0.91480014  1
  Si  Si64  1  0.81220355  0.95330308  0.41564205  1
  Si  Si65  1  0.16892591  0.37876901  0.41570149  1
  Si  Si66  1  0.67651091  0.38240961  0.42265133  1
  Si  Si67  1  0.02015359  0.65520129  0.41796901  1
  Si  Si68  1  0.51480541  0.64436972  0.41618581  1
  S  S69  1  0.64458779  0.98817007  0.24671393  1
  S  S70  1  0.00602033  0.28352475  0.25343418  1
  S  S71  1  0.14542525  0.30277198  0.74711629  1
  S  S72  1  0.50374917  0.72560180  0.75508709  1
  S  S73  1  0.83351610  0.64148499  0.58096848  1
  S  S74  1  0.99090933  0.64576125  0.07853794  1
  S  S75  1  0.33253820  0.02410622  0.08165464  1
  S  S76  1  0.80043533  0.64336394  0.91925170  1
  S  S77  1  0.29941897  0.95478878  0.41840046  1
  O  O78  1  0.08854266  0.00503338  0.30845357  1
  O  O79  1  0.60920984  0.01271506  0.30020451  1
  O  O80  1  0.40826623  0.79602743  0.30494315  1
  O  O81  1  0.91473601  0.82861084  0.30871895  1
  O  O82  1  0.49310199  0.18955367  0.30374450  1
  O  O83  1  0.00072079  0.18679562  0.30495875  1
  O  O84  1  0.10902323  0.20690116  0.80080576  1
  O  O85  1  0.58917079  0.17159644  0.80853280  1
  O  O86  1  0.50209376  0.81475746  0.80733856  1
  O  O87  1  0.99206474  0.79467972  0.80499539  1
  O  O88  1  0.41460117  0.99966813  0.80872608  1
  O  O89  1  0.90707753  0.02161396  0.80633269  1
  O  O90  1  0.40515706  0.98186356  0.69382036  1
  O  O91  1  0.90411998  0.96783181  0.69386124  1
  O  O92  1  0.09124085  0.20892782  0.69591744  1
  O  O93  1  0.58348880  0.19044863  0.69323381  1
  O  O94  1  0.01526723  0.83476738  0.69177320  1
  O  O95  1  0.51277874  0.81622739  0.70081719  1
  O  O96  1  0.40435257  0.84043050  0.19282283  1
  O  O97  1  0.90637589  0.83183270  0.19420994  1
  O  O98  1  0.01326337  0.20429827  0.19845369  1
  O  O99  1  0.51506868  0.19550040  0.19059743  1
  O  O100  1  0.08331745  0.97802773  0.19399848  1
  O  O101  1  0.59082201  0.97502189  0.19531475  1
  O  O102  1  0.46495573  0.39306887  0.63991398  1
  O  O103  1  0.95569327  0.37094388  0.64600596  1
  O  O104  1  0.22913121  0.08179457  0.64546992  1
  O  O105  1  0.73024567  0.06901337  0.64020412  1
  O  O106  1  0.30658756  0.52496599  0.63971795  1
  O  O107  1  0.82031288  0.56266718  0.63883142  1
  O  O108  1  0.45523414  0.53971511  0.14579990  1
  O  O109  1  0.96412761  0.55735837  0.13470769  1
  O  O110  1  0.31818624  0.07505982  0.13871266  1
  O  O111  1  0.81176064  0.09739290  0.13846202  1
  O  O112  1  0.22964170  0.39427475  0.14011352  1
  O  O113  1  0.73031473  0.37452179  0.14536122  1
  O  O114  1  0.23509936  0.31119704  0.02713547  1
  O  O115  1  0.74235288  0.31111401  0.03190360  1
  O  O116  1  0.41245162  0.52111709  0.03129135  1
  O  O117  1  0.93165315  0.55118331  0.03161117  1
  O  O118  1  0.34269996  0.14081164  0.03454079  1
  O  O119  1  0.84809922  0.16270730  0.02660308  1
  O  O120  1  0.23888928  0.17082389  0.53170252  1
  O  O121  1  0.73668504  0.16557604  0.52765764  1
  O  O122  1  0.34881146  0.53460529  0.52788714  1
  O  O123  1  0.84463644  0.54557157  0.53451734  1
  O  O124  1  0.41805925  0.31576710  0.52782986  1
  O  O125  1  0.91337613  0.30400742  0.53125321  1
  O  O126  1  0.26763379  0.68330352  0.97198220  1
  O  O127  1  0.75228929  0.65569913  0.96774573  1
  O  O128  1  0.08150629  0.50623668  0.96843819  1
  O  O129  1  0.57932548  0.47219353  0.97330449  1
  O  O130  1  0.17647577  0.85278785  0.97587072  1
  O  O131  1  0.65557447  0.83081746  0.96990158  1
  O  O132  1  0.25089661  0.84636023  0.46671225  1
  O  O133  1  0.76858719  0.84712347  0.47316375  1
  O  O134  1  0.15555329  0.47901088  0.46898757  1
  O  O135  1  0.67875383  0.50385478  0.47302781  1
  O  O136  1  0.07909525  0.68563298  0.47320350  1
  O  O137  1  0.57976684  0.65661766  0.46738242  1
  O  O138  1  0.07032227  0.63693871  0.36030647  1
  O  O139  1  0.56619292  0.63603315  0.35554967  1
  O  O140  1  0.25596548  0.87028053  0.36103873  1
  O  O141  1  0.74915502  0.85711574  0.35963433  1
  O  O142  1  0.18084363  0.49986792  0.35765456  1
  O  O143  1  0.68197635  0.48976983  0.35983650  1
  O  O144  1  0.06504242  0.49598167  0.85660466  1
  O  O145  1  0.56971759  0.50364361  0.86083534  1
  O  O146  1  0.18093789  0.86985060  0.86191019  1
  O  O147  1  0.68074872  0.85984302  0.85755692  1
  O  O148  1  0.24867004  0.63851065  0.85943027  1
  O  O149  1  0.75747884  0.63485262  0.86248238  1
  O  O150  1  0.00924518  0.82421722  0.41050184  1
  O  O151  1  0.50684782  0.80866832  0.42368412  1
  O  O152  1  0.38427600  0.97480910  0.42056067  1
  O  O153  1  0.90812577  0.98448043  0.40758282  1
  O  O154  1  0.08411768  0.19069764  0.40680938  1
  O  O155  1  0.59308054  0.20302956  0.42665622  1
  O  O156  1  0.00579210  0.20576820  0.92546311  1
  O  O157  1  0.50947723  0.19378561  0.91025120  1
  O  O158  1  0.09164170  0.98113395  0.92791508  1
  O  O159  1  0.58319624  0.97668164  0.90844142  1
  O  O160  1  0.40799439  0.83251021  0.90873029  1
  O  O161  1  0.88594311  0.79256326  0.92190427  1
  O  O162  1  0.48819506  0.16394001  0.58514098  1
  O  O163  1  0.98682017  0.15189369  0.59041602  1
  O  O164  1  0.08877258  0.01932458  0.58947949  1
  O  O165  1  0.58953831  0.02314788  0.58962924  1
  O  O166  1  0.42031502  0.82045957  0.59216995  1
  O  O167  1  0.91593971  0.81160674  0.58315620  1
  O  O168  1  0.48709101  0.82165434  0.08974337  1
  O  O169  1  0.99321149  0.81284813  0.08427216  1
  O  O170  1  0.41395539  0.01648370  0.08291164  1
  O  O171  1  0.92080703  0.01786275  0.09191913  1
  O  O172  1  0.08877384  0.15704246  0.09079572  1
  O  O173  1  0.58977991  0.15732801  0.08818481  1
  O  O174  1  0.33847319  0.14875877  0.75577563  1
  O  O175  1  0.83819462  0.15203341  0.74593547  1
  O  O176  1  0.23123733  0.32607301  0.74281887  1
  O  O177  1  0.73577413  0.33710641  0.75281884  1
  O  O178  1  0.42988204  0.55282029  0.75665577  1
  O  O179  1  0.92300420  0.52097739  0.74465100  1
  O  O180  1  0.33822832  0.52537670  0.24556909  1
  O  O181  1  0.84024034  0.52951043  0.25401749  1
  O  O182  1  0.42268870  0.32369159  0.24368770  1
  O  O183  1  0.93226344  0.30856611  0.25200505  1
  O  O184  1  0.23553301  0.13317663  0.25228293  1
  O  O185  1  0.73062993  0.13724084  0.24175891  1
  O  O186  1  0.32069054  0.49687744  0.92135429  1
  O  O187  1  0.80618255  0.48676101  0.92327697  1
  O  O188  1  0.42759114  0.36643206  0.92711320  1
  O  O189  1  0.92404742  0.38050084  0.92722430  1
  O  O190  1  0.26223896  0.15235086  0.92720447  1
  O  O191  1  0.74986960  0.13748375  0.92530932  1
  O  O192  1  0.30313818  0.11918128  0.41953226  1
  O  O193  1  0.82042031  0.14203644  0.42217325  1
  O  O194  1  0.25259208  0.35913701  0.42537525  1
  O  O195  1  0.76351434  0.37071067  0.42561760  1
  O  O196  1  0.42252810  0.46871169  0.42254993  1
  O  O197  1  0.92762037  0.48732646  0.42570202  1
  O  O198  1  0.15955387  0.48843727  0.06649990  1
  O  O199  1  0.66829564  0.49294320  0.06884794  1
  O  O200  1  0.07859319  0.68075608  0.06930319  1
  O  O201  1  0.57445762  0.66666626  0.06961331  1
  O  O202  1  0.26117816  0.84839283  0.07311991  1
  O  O203  1  0.75532877  0.84035736  0.06473032  1
  O  O204  1  0.16724374  0.84127272  0.56815755  1
  O  O205  1  0.66383320  0.84020897  0.56441896  1
  O  O206  1  0.25551697  0.67129597  0.56408596  1
  O  O207  1  0.76342069  0.67560714  0.57277842  1
  O  O208  1  0.07487972  0.48080991  0.56977675  1
  O  O209  1  0.58639184  0.49239564  0.56709779  1
  O  O210  1  0.14115312  0.80438335  0.25874897  1
  O  O211  1  0.64592592  0.82703872  0.24813704  1
  O  O212  1  0.25910953  0.71470480  0.25523206  1
  O  O213  1  0.76017657  0.70275550  0.25806786  1
  O  O214  1  0.08593959  0.45626329  0.25489009  1
  O  O215  1  0.59513152  0.48866007  0.25274507  1
  O  O216  1  0.14587528  0.46636234  0.74930135  1
  O  O217  1  0.64155625  0.47481757  0.76009999  1
  O  O218  1  0.09518305  0.70318716  0.75396349  1
  O  O219  1  0.58387833  0.70762336  0.75749565  1
  O  O220  1  0.26068853  0.81776096  0.75993922  1
  O  O221  1  0.75927166  0.80376861  0.75689479  1
