# generated using pymatgen
data_Na9Mg5Ta7Si9(SO8)9
_symmetry_space_group_name_H-M   'P 1'
_cell_length_a   8.88857300
_cell_length_b   8.86330219
_cell_length_c   22.70765340
_cell_angle_alpha   89.83460772
_cell_angle_beta   90.13259448
_cell_angle_gamma   119.96690479
_symmetry_Int_Tables_number   1
_chemical_formula_structural   Na9Mg5Ta7Si9(SO8)9
_chemical_formula_sum   'Na9 Mg5 Ta7 Si9 S9 O72'
_cell_volume   1549.79121675
_cell_formula_units_Z   1
loop_
 _symmetry_equiv_pos_site_id
 _symmetry_equiv_pos_as_xyz
  1  'x, y, z'
loop_
 _atom_site_type_symbol
 _atom_site_label
 _atom_site_symmetry_multiplicity
 _atom_site_fract_x
 _atom_site_fract_y
 _atom_site_fract_z
 _atom_site_occupancy
  Na  Na0  1  0.97880316  0.35115753  0.74753259  1
  Na  Na1  1  0.64970856  0.97237016  0.58177279  1
  Na  Na2  1  0.32770349  0.02656165  0.40854323  1
  Na  Na3  1  0.99110070  0.00454727  0.49415283  1
  Na  Na4  1  0.98268713  0.99870560  0.99052488  1
  Na  Na5  1  0.66163961  0.32391724  0.82930309  1
  Na  Na6  1  0.66367461  0.32675758  0.32291356  1
  Na  Na7  1  0.32925804  0.68173115  0.16311518  1
  Na  Na8  1  0.31935382  0.67208841  0.65628995  1
  Mg  Mg9  1  0.99682936  0.00349012  0.35032876  1
  Mg  Mg10  1  0.98159164  0.99877469  0.85745108  1
  Mg  Mg11  1  0.66718650  0.32010732  0.68435830  1
  Mg  Mg12  1  0.66634349  0.31814595  0.18530326  1
  Mg  Mg13  1  0.33227604  0.66902006  0.52012391  1
  Ta  Ta14  1  0.99388750  0.00058434  0.64459523  1
  Ta  Ta15  1  0.00031381  0.99217266  0.14368470  1
  Ta  Ta16  1  0.69306603  0.34522024  0.97791217  1
  Ta  Ta17  1  0.66225651  0.31567227  0.48238213  1
  Ta  Ta18  1  0.33562742  0.66462120  0.02107927  1
  Ta  Ta19  1  0.33856339  0.68161687  0.31088611  1
  Ta  Ta20  1  0.34457793  0.66731857  0.81419352  1
  Si  Si21  1  0.29569145  0.01839436  0.25494307  1
  Si  Si22  1  0.70589198  0.00408288  0.75204963  1
  Si  Si23  1  0.97065151  0.34790701  0.58828467  1
  Si  Si24  1  0.36873894  0.03501047  0.58658670  1
  Si  Si25  1  0.95635009  0.61575467  0.08773207  1
  Si  Si26  1  0.66506239  0.04571903  0.08593251  1
  Si  Si27  1  0.62930633  0.66216097  0.91911155  1
  Si  Si28  1  0.05179714  0.37331218  0.91479625  1
  Si  Si29  1  0.63646656  0.95410001  0.42045371  1
  S  S30  1  0.71096473  0.70946295  0.25076080  1
  S  S31  1  0.00245256  0.29114400  0.25141387  1
  S  S32  1  0.29027972  0.28669968  0.75122573  1
  S  S33  1  0.00004829  0.71419358  0.75188553  1
  S  S34  1  0.66788856  0.61749163  0.58488010  1
  S  S35  1  0.37848244  0.33194953  0.08434360  1
  S  S36  1  0.33454228  0.95501524  0.91665605  1
  S  S37  1  0.33664717  0.38202749  0.41764098  1
  S  S38  1  0.04067870  0.66268907  0.41658831  1
  O  O39  1  0.20345838  0.01648955  0.31522566  1
  O  O40  1  0.81136931  0.79393975  0.30327622  1
  O  O41  1  0.98067469  0.18690352  0.30381918  1
  O  O42  1  0.21413603  0.18352685  0.80360176  1
  O  O43  1  0.99099824  0.80194441  0.80415126  1
  O  O44  1  0.83756250  0.03475017  0.80369440  1
  O  O45  1  0.79812960  0.96941732  0.69074806  1
  O  O46  1  0.17359451  0.20192809  0.69743778  1
  O  O47  1  0.02714230  0.82323629  0.69704250  1
  O  O48  1  0.78719881  0.82311046  0.19664146  1
  O  O49  1  0.02817493  0.21033408  0.19745851  1
  O  O50  1  0.16233335  0.98238483  0.19704312  1
  O  O51  1  0.88808845  0.36939438  0.64718257  1
  O  O52  1  0.49564148  0.13594606  0.63863536  1
  O  O53  1  0.65094503  0.51869859  0.63762600  1
  O  O54  1  0.87022855  0.50732031  0.14456332  1
  O  O55  1  0.61889955  0.11245604  0.14291502  1
  O  O56  1  0.47946772  0.36318553  0.13747714  1
  O  O57  1  0.45274986  0.30284517  0.03059470  1
  O  O58  1  0.83699324  0.53367814  0.02631084  1
  O  O59  1  0.69092278  0.16585586  0.02588024  1
  O  O60  1  0.46049077  0.16309874  0.52336094  1
  O  O61  1  0.69588422  0.53807256  0.53018346  1
  O  O62  1  0.82675933  0.30225942  0.52993700  1
  O  O63  1  0.52001435  0.68274272  0.97335274  1
  O  O64  1  0.16433187  0.49005281  0.97119338  1
  O  O65  1  0.31375743  0.84937516  0.97031687  1
  O  O66  1  0.54068609  0.85077337  0.47812846  1
  O  O67  1  0.31569577  0.46369270  0.46955487  1
  O  O68  1  0.14876332  0.68667164  0.46781296  1
  O  O69  1  0.12353316  0.63314538  0.36183882  1
  O  O70  1  0.49564020  0.85577166  0.36182399  1
  O  O71  1  0.35397896  0.48547113  0.36279335  1
  O  O72  1  0.13447275  0.49798906  0.85513088  1
  O  O73  1  0.36467262  0.86913632  0.86347174  1
  O  O74  1  0.50080726  0.64022989  0.86041347  1
  O  O75  1  0.02459661  0.81874658  0.40902794  1
  O  O76  1  0.82679230  0.98817969  0.40934957  1
  O  O77  1  0.19119586  0.20134039  0.41218486  1
  O  O78  1  0.04266148  0.19152273  0.91470079  1
  O  O79  1  0.18079096  0.96845220  0.90864451  1
  O  O80  1  0.81877333  0.82206054  0.91468951  1
  O  O81  1  0.96150986  0.15002139  0.59106803  1
  O  O82  1  0.17581942  0.01973218  0.59230538  1
  O  O83  1  0.83359703  0.79791113  0.58831631  1
  O  O84  1  0.97954633  0.81643773  0.09227837  1
  O  O85  1  0.84383551  0.02984965  0.09361962  1
  O  O86  1  0.19676645  0.17579306  0.09060743  1
  O  O87  1  0.68285342  0.17256411  0.74764053  1
  O  O88  1  0.46736586  0.32636029  0.74112918  1
  O  O89  1  0.84519488  0.54077178  0.74528076  1
  O  O90  1  0.68553502  0.53680812  0.24267925  1
  O  O91  1  0.85790123  0.32367251  0.24599203  1
  O  O92  1  0.48706314  0.17701061  0.24720546  1
  O  O93  1  0.61716905  0.47123021  0.92528696  1
  O  O94  1  0.85776170  0.36159381  0.92182294  1
  O  O95  1  0.49463907  0.12692890  0.92204168  1
  O  O96  1  0.63519951  0.14927013  0.42227481  1
  O  O97  1  0.50339958  0.37166696  0.42076255  1
  O  O98  1  0.86388185  0.50472512  0.42121740  1
  O  O99  1  0.34945738  0.48542240  0.07635006  1
  O  O100  1  0.15252583  0.65066033  0.07396665  1
  O  O101  1  0.50509175  0.84704250  0.07120095  1
  O  O102  1  0.35581729  0.85142331  0.57622509  1
  O  O103  1  0.52336730  0.64978207  0.57746630  1
  O  O104  1  0.16186869  0.49300877  0.57388330  1
  O  O105  1  0.30357005  0.82369294  0.25841634  1
  O  O106  1  0.52927781  0.69312271  0.25675143  1
  O  O107  1  0.17090277  0.46779445  0.25778100  1
  O  O108  1  0.28961410  0.46113749  0.75464308  1
  O  O109  1  0.15867058  0.69004794  0.75398722  1
  O  O110  1  0.50940001  0.82199170  0.75683298  1
