# generated using pymatgen
data_Na14Sc4Nb4Si11SO48
_symmetry_space_group_name_H-M   'P 1'
_cell_length_a   18.32117926
_cell_length_b   9.17216212
_cell_length_c   22.64532321
_cell_angle_alpha   90.00143457
_cell_angle_beta   90.01237182
_cell_angle_gamma   119.99091241
_symmetry_Int_Tables_number   1
_chemical_formula_structural   Na14Sc4Nb4Si11SO48
_chemical_formula_sum   'Na42 Sc12 Nb12 Si33 S3 O144'
_cell_volume   3295.90016716
_cell_formula_units_Z   3
loop_
 _symmetry_equiv_pos_site_id
 _symmetry_equiv_pos_as_xyz
  1  'x, y, z'
loop_
 _atom_site_type_symbol
 _atom_site_label
 _atom_site_symmetry_multiplicity
 _atom_site_fract_x
 _atom_site_fract_y
 _atom_site_fract_z
 _atom_site_occupancy
  Na  Na0  1  0.32197940  0.99977700  0.25003158  1
  Na  Na1  1  0.82251432  0.00019946  0.24998558  1
  Na  Na2  1  0.31989487  0.63305736  0.74930531  1
  Na  Na3  1  0.82192857  0.64319530  0.74913397  1
  Na  Na4  1  0.49478822  0.36165149  0.74871073  1
  Na  Na5  1  0.68192293  0.00298825  0.75066337  1
  Na  Na6  1  0.15020888  0.32589037  0.58346534  1
  Na  Na7  1  0.65219747  0.33144582  0.58242585  1
  Na  Na8  1  0.01553974  0.70578191  0.58462501  1
  Na  Na9  1  0.51185287  0.69113565  0.58316638  1
  Na  Na10  1  0.33209441  0.97636312  0.58311140  1
  Na  Na11  1  0.83863602  0.97176403  0.58513217  1
  Na  Na12  1  0.14744446  0.95956960  0.08155242  1
  Na  Na13  1  0.64728209  0.95969906  0.08144543  1
  Na  Na14  1  0.33251058  0.70759918  0.08334361  1
  Na  Na15  1  0.83257384  0.70745752  0.08370842  1
  Na  Na16  1  0.02156659  0.33503177  0.08340262  1
  Na  Na17  1  0.52124856  0.33450068  0.08346147  1
  Na  Na18  1  0.48477676  0.67636782  0.91514881  1
  Na  Na19  1  0.98574202  0.67474403  0.91506145  1
  Na  Na20  1  0.35305688  0.02879336  0.91537073  1
  Na  Na21  1  0.85263984  0.02987562  0.91517822  1
  Na  Na22  1  0.16264485  0.29867148  0.91729070  1
  Na  Na23  1  0.66143011  0.29386860  0.91556403  1
  Na  Na24  1  0.47826777  0.29260161  0.41643977  1
  Na  Na25  1  0.97946542  0.29333739  0.41655633  1
  Na  Na26  1  0.16753397  0.04065566  0.41942395  1
  Na  Na27  1  0.66759329  0.04015180  0.41820884  1
  Na  Na28  1  0.35345263  0.66447686  0.41670415  1
  Na  Na29  1  0.85438963  0.66568181  0.41641454  1
  Na  Na30  1  0.00125095  0.00025856  0.50023178  1
  Na  Na31  1  0.49942080  0.99916046  0.49619633  1
  Na  Na32  1  0.00039316  0.00139665  0.00020238  1
  Na  Na33  1  0.49981961  0.99990954  0.99957374  1
  Na  Na34  1  0.33297347  0.32718862  0.82969819  1
  Na  Na35  1  0.83753475  0.33436658  0.83233474  1
  Na  Na36  1  0.33619593  0.34315726  0.33611399  1
  Na  Na37  1  0.83670759  0.34381235  0.33573342  1
  Na  Na38  1  0.16478895  0.65664916  0.16428450  1
  Na  Na39  1  0.66476073  0.65658180  0.16419696  1
  Na  Na40  1  0.16425281  0.67262916  0.66800726  1
  Na  Na41  1  0.66693518  0.66689306  0.66673943  1
  Sc  Sc42  1  0.99369138  0.99583228  0.35239256  1
  Sc  Sc43  1  0.49319048  0.99526509  0.35192967  1
  Sc  Sc44  1  0.99488839  0.99286210  0.85107591  1
  Sc  Sc45  1  0.49949074  0.99980820  0.85122456  1
  Sc  Sc46  1  0.99763597  0.98970063  0.64822147  1
  Sc  Sc47  1  0.99577168  0.00469620  0.14768141  1
  Sc  Sc48  1  0.49552374  0.00449420  0.14751164  1
  Sc  Sc49  1  0.33326069  0.32534757  0.68173854  1
  Sc  Sc50  1  0.33359823  0.33275821  0.48200665  1
  Sc  Sc51  1  0.83380323  0.33314735  0.48099721  1
  Sc  Sc52  1  0.16715349  0.66587793  0.01907484  1
  Sc  Sc53  1  0.66711449  0.66641360  0.01934056  1
  Nb  Nb54  1  0.49797560  0.99765280  0.64892143  1
  Nb  Nb55  1  0.83832814  0.33721141  0.68619488  1
  Nb  Nb56  1  0.33903073  0.34804987  0.18581991  1
  Nb  Nb57  1  0.83924391  0.34844336  0.18582310  1
  Nb  Nb58  1  0.33334632  0.33433102  0.98014886  1
  Nb  Nb59  1  0.83316948  0.33254571  0.98043866  1
  Nb  Nb60  1  0.16657413  0.66937768  0.51930856  1
  Nb  Nb61  1  0.66691254  0.66678216  0.51898821  1
  Nb  Nb62  1  0.16503636  0.65157189  0.31441016  1
  Nb  Nb63  1  0.66498800  0.65192664  0.31412821  1
  Nb  Nb64  1  0.16522995  0.67556789  0.81610350  1
  Nb  Nb65  1  0.66705614  0.66898829  0.81468563  1
  Si  Si66  1  0.35326118  0.70613406  0.25019604  1
  Si  Si67  1  0.85340970  0.70638165  0.25024263  1
  Si  Si68  1  0.00029938  0.29383962  0.24981028  1
  Si  Si69  1  0.50016101  0.29364394  0.24977284  1
  Si  Si70  1  0.64689583  0.29325170  0.75067270  1
  Si  Si71  1  0.00239167  0.70810262  0.74987207  1
  Si  Si72  1  0.49796719  0.70343692  0.75151406  1
  Si  Si73  1  0.35094206  0.00010747  0.75207703  1
  Si  Si74  1  0.85468969  0.00319263  0.75000079  1
  Si  Si75  1  0.47996361  0.33297776  0.58301113  1
  Si  Si76  1  0.98039215  0.33199975  0.58139349  1
  Si  Si77  1  0.18659682  0.04274358  0.58190272  1
  Si  Si78  1  0.68765397  0.04286159  0.58309657  1
  Si  Si79  1  0.33273731  0.62394597  0.58390809  1
  Si  Si80  1  0.83355191  0.62451185  0.58219801  1
  Si  Si81  1  0.48078602  0.62872486  0.08232456  1
  Si  Si82  1  0.98083511  0.62883279  0.08215287  1
  Si  Si83  1  0.33239336  0.04338093  0.08467975  1
  Si  Si84  1  0.83249033  0.04301133  0.08498020  1
  Si  Si85  1  0.18737753  0.33141739  0.08403102  1
  Si  Si86  1  0.68743590  0.33146025  0.08405684  1
  Si  Si87  1  0.31220244  0.66704743  0.91719052  1
  Si  Si88  1  0.81275429  0.66654333  0.91811639  1
  Si  Si89  1  0.02141577  0.37391055  0.91812055  1
  Si  Si90  1  0.52086857  0.37449466  0.91816211  1
  Si  Si91  1  0.16600393  0.96100107  0.91914371  1
  Si  Si92  1  0.66596043  0.95873946  0.91875628  1
  Si  Si93  1  0.31114866  0.95781284  0.41498193  1
  Si  Si94  1  0.81119596  0.95740929  0.41504439  1
  Si  Si95  1  0.16649616  0.37135117  0.41821515  1
  Si  Si96  1  0.66645910  0.37103774  0.41747169  1
  Si  Si97  1  0.02122577  0.66807946  0.41562369  1
  Si  Si98  1  0.52133217  0.66816042  0.41595323  1
  S  S99  1  0.14677855  0.00002932  0.25002209  1
  S  S100  1  0.64682163  0.00011568  0.25017911  1
  S  S101  1  0.14657506  0.29448506  0.75071774  1
  O  O102  1  0.10830877  0.02469532  0.30344612  1
  O  O103  1  0.60836324  0.02456894  0.30354242  1
  O  O104  1  0.40868554  0.78468687  0.30962471  1
  O  O105  1  0.90861834  0.78486176  0.30965798  1
  O  O106  1  0.48135245  0.17698589  0.30828194  1
  O  O107  1  0.98096847  0.17670830  0.30824360  1
  O  O108  1  0.10672357  0.19280130  0.80410998  1
  O  O109  1  0.60828902  0.17730182  0.80818409  1
  O  O110  1  0.48468713  0.79153629  0.80861727  1
  O  O111  1  0.98150598  0.78305541  0.80830384  1
  O  O112  1  0.41064469  0.03118283  0.80861639  1
  O  O113  1  0.90788535  0.03160184  0.80980667  1
  O  O114  1  0.40013315  0.96912930  0.69350150  1
  O  O115  1  0.89185076  0.96098774  0.69175607  1
  O  O116  1  0.09582404  0.21727346  0.69694117  1
  O  O117  1  0.58465369  0.20090249  0.69253063  1
  O  O118  1  0.01613250  0.81541124  0.69036958  1
  O  O119  1  0.51592122  0.83159452  0.69313790  1
  O  O120  1  0.39297618  0.82340229  0.19176922  1
  O  O121  1  0.89272468  0.82321153  0.19169887  1
  O  O122  1  0.01603112  0.21474090  0.19037397  1
  O  O123  1  0.51627800  0.21500285  0.19039020  1
  O  O124  1  0.09593472  0.97539197  0.19628170  1
  O  O125  1  0.59588139  0.97524114  0.19633179  1
  O  O126  1  0.44323549  0.37543103  0.64158759  1
  O  O127  1  0.93125504  0.36567598  0.63820312  1
  O  O128  1  0.24987216  0.12150197  0.63771247  1
  O  O129  1  0.74876583  0.13237911  0.64114747  1
  O  O130  1  0.31345624  0.51007770  0.64275781  1
  O  O131  1  0.81594114  0.49951735  0.64055592  1
  O  O132  1  0.43042511  0.49955999  0.13866444  1
  O  O133  1  0.93038957  0.49970719  0.13855284  1
  O  O134  1  0.31922694  0.14009374  0.14173381  1
  O  O135  1  0.81915409  0.13999316  0.14177019  1
  O  O136  1  0.25250079  0.35803649  0.13889625  1
  O  O137  1  0.75255189  0.35803810  0.13885861  1
  O  O138  1  0.23596665  0.30562346  0.02504660  1
  O  O139  1  0.73631934  0.30596466  0.02503372  1
  O  O140  1  0.41715359  0.52999353  0.02524796  1
  O  O141  1  0.91702004  0.52972300  0.02506829  1
  O  O142  1  0.34667337  0.16841928  0.02613734  1
  O  O143  1  0.84667812  0.16793426  0.02624393  1
  O  O144  1  0.22712799  0.15643465  0.52279105  1
  O  O145  1  0.72471155  0.15760518  0.52481137  1
  O  O146  1  0.35493362  0.55107837  0.52552433  1
  O  O147  1  0.84930557  0.54072084  0.52458031  1
  O  O148  1  0.42224430  0.29172618  0.52453052  1
  O  O149  1  0.92086685  0.29601600  0.52437119  1
  O  O150  1  0.27036075  0.69938751  0.97489213  1
  O  O151  1  0.77125025  0.70056378  0.97518674  1
  O  O152  1  0.07835821  0.45602423  0.97624835  1
  O  O153  1  0.57939282  0.45947838  0.97525654  1
  O  O154  1  0.14806566  0.84211470  0.97583049  1
  O  O155  1  0.65043898  0.84202276  0.97573720  1
  O  O156  1  0.26319765  0.83331331  0.47328730  1
  O  O157  1  0.76303159  0.83279980  0.47380365  1
  O  O158  1  0.15181404  0.46922856  0.47498528  1
  O  O159  1  0.65276314  0.47059038  0.47446014  1
  O  O160  1  0.08241728  0.69305615  0.47415779  1
  O  O161  1  0.58284799  0.69351903  0.47508839  1
  O  O162  1  0.07308844  0.64124685  0.36080301  1
  O  O163  1  0.57347054  0.64203650  0.36121915  1
  O  O164  1  0.24953553  0.86048225  0.35797141  1
  O  O165  1  0.74925187  0.86017126  0.35828302  1
  O  O166  1  0.18049958  0.50016824  0.36145275  1
  O  O167  1  0.68040960  0.50013232  0.36120011  1
  O  O168  1  0.06989922  0.50581862  0.86157356  1
  O  O169  1  0.56750603  0.50129025  0.85923089  1
  O  O170  1  0.18402670  0.86528437  0.86148214  1
  O  O171  1  0.68266420  0.86549346  0.85980901  1
  O  O172  1  0.24914849  0.63126261  0.85873480  1
  O  O173  1  0.75007491  0.63403654  0.85898771  1
  O  O174  1  0.01752273  0.84069648  0.41204287  1
  O  O175  1  0.51807827  0.84141145  0.41269159  1
  O  O176  1  0.40276006  0.96817542  0.41375395  1
  O  O177  1  0.90254639  0.96796311  0.41379714  1
  O  O178  1  0.08176800  0.19053697  0.41175569  1
  O  O179  1  0.58148279  0.19049637  0.41229839  1
  O  O180  1  0.01057484  0.18860564  0.90957641  1
  O  O181  1  0.50908692  0.18861253  0.91082841  1
  O  O182  1  0.08621357  0.98757278  0.90849551  1
  O  O183  1  0.58515320  0.98349773  0.91151160  1
  O  O184  1  0.40608551  0.82914249  0.91102225  1
  O  O185  1  0.90636136  0.82961602  0.91106701  1
  O  O186  1  0.49230291  0.16535928  0.59160171  1
  O  O187  1  0.99330660  0.17191811  0.59176186  1
  O  O188  1  0.09253600  0.01919055  0.58841533  1
  O  O189  1  0.59219877  0.01780101  0.59287359  1
  O  O190  1  0.41735513  0.81784133  0.59200850  1
  O  O191  1  0.91473853  0.81222727  0.58884439  1
  O  O192  1  0.48612051  0.80909765  0.08810612  1
  O  O193  1  0.98591845  0.80896035  0.08792650  1
  O  O194  1  0.41857044  0.03253774  0.08619603  1
  O  O195  1  0.91867188  0.03253082  0.08611196  1
  O  O196  1  0.09722827  0.15870779  0.08759495  1
  O  O197  1  0.59735871  0.15877395  0.08760437  1
  O  O198  1  0.34482500  0.16875503  0.74421853  1
  O  O199  1  0.83749033  0.16412901  0.74229422  1
  O  O200  1  0.23302993  0.31804039  0.74624291  1
  O  O201  1  0.74132019  0.31650244  0.74100585  1
  O  O202  1  0.41529914  0.51847201  0.74468759  1
  O  O203  1  0.91448397  0.51880494  0.74159785  1
  O  O204  1  0.33959572  0.51355470  0.24178209  1
  O  O205  1  0.83949098  0.51355247  0.24180207  1
  O  O206  1  0.41200149  0.30548346  0.24209302  1
  O  O207  1  0.91199894  0.30569655  0.24199847  1
  O  O208  1  0.23400727  0.15083618  0.24467334  1
  O  O209  1  0.73400318  0.15067183  0.24477367  1
  O  O210  1  0.31854119  0.49150566  0.92209838  1
  O  O211  1  0.81906353  0.49205048  0.92142501  1
  O  O212  1  0.42733839  0.36303720  0.92194498  1
  O  O213  1  0.92740292  0.36144720  0.92197532  1
  O  O214  1  0.25433339  0.14567428  0.92198399  1
  O  O215  1  0.75437394  0.14534529  0.92185682  1
  O  O216  1  0.31846441  0.14090422  0.41908960  1
  O  O217  1  0.81732615  0.13925545  0.41965057  1
  O  O218  1  0.25307051  0.36544229  0.41990248  1
  O  O219  1  0.75248328  0.36378941  0.41934044  1
  O  O220  1  0.43078978  0.49760198  0.41969538  1
  O  O221  1  0.93036190  0.49734569  0.41936218  1
  O  O222  1  0.18203622  0.50201555  0.08077337  1
  O  O223  1  0.68214800  0.50200178  0.08067300  1
  O  O224  1  0.07042926  0.63594589  0.08064055  1
  O  O225  1  0.57043439  0.63583230  0.08069396  1
  O  O226  1  0.24803130  0.86042214  0.08065229  1
  O  O227  1  0.74811193  0.86024505  0.08090302  1
  O  O228  1  0.17674730  0.85037337  0.57480070  1
  O  O229  1  0.67788494  0.85267055  0.57845631  1
  O  O230  1  0.24950982  0.65001730  0.57583146  1
  O  O231  1  0.74656492  0.63997162  0.57794177  1
  O  O232  1  0.07322145  0.50743337  0.57818885  1
  O  O233  1  0.57586289  0.50160970  0.57579037  1
  O  O234  1  0.15869941  0.84953650  0.25514618  1
  O  O235  1  0.65867326  0.84938827  0.25526064  1
  O  O236  1  0.25923699  0.69455916  0.25787986  1
  O  O237  1  0.75917873  0.69456708  0.25801199  1
  O  O238  1  0.08289869  0.48649119  0.25809520  1
  O  O239  1  0.58279232  0.48647149  0.25826389  1
  O  O240  1  0.15647569  0.46767146  0.75586668  1
  O  O241  1  0.65517336  0.48182547  0.75484245  1
  O  O242  1  0.08515316  0.68112716  0.75860494  1
  O  O243  1  0.58623416  0.69205119  0.75526188  1
  O  O244  1  0.26024865  0.81811773  0.75589200  1
  O  O245  1  0.75791000  0.83096962  0.75801813  1
