# generated using pymatgen
data_MgMn6O7F5
_symmetry_space_group_name_H-M   'P 1'
_cell_length_a   7.90866720
_cell_length_b   5.70901130
_cell_length_c   5.80516388
_cell_angle_alpha   68.85331209
_cell_angle_beta   67.89747688
_cell_angle_gamma   72.24083640
_symmetry_Int_Tables_number   1
_chemical_formula_structural   MgMn6O7F5
_chemical_formula_sum   'Mg1 Mn6 O7 F5'
_cell_volume   222.10381569
_cell_formula_units_Z   1
loop_
 _symmetry_equiv_pos_site_id
 _symmetry_equiv_pos_as_xyz
  1  'x, y, z'
loop_
 _atom_site_type_symbol
 _atom_site_label
 _atom_site_symmetry_multiplicity
 _atom_site_fract_x
 _atom_site_fract_y
 _atom_site_fract_z
 _atom_site_occupancy
  Mg  Mg0  1  0.64810300  0.83508700  0.36000700  1
  Mn  Mn1  1  0.86130700  0.70397500  0.70025600  1
  Mn  Mn2  1  0.67952400  0.33012400  0.34276500  1
  Mn  Mn3  1  0.26064100  0.61336700  0.60900600  1
  Mn  Mn4  1  0.16665400  0.24637300  0.36516100  1
  Mn  Mn5  1  0.48831100  0.94910400  0.97955400  1
  Mn  Mn6  1  0.01289200  0.06329200  0.97135800  1
  O  O7  1  0.65944600  0.99085300  0.62319100  1
  O  O8  1  0.95441700  0.23414400  0.22876900  1
  O  O9  1  0.04362700  0.88323100  0.70989600  1
  O  O10  1  0.41345900  0.38572100  0.41864800  1
  O  O11  1  0.37950900  0.90361400  0.35144500  1
  O  O12  1  0.68750800  0.66420900  0.07247300  1
  O  O13  1  0.05515800  0.39910800  0.69262400  1
  F  F14  1  0.32971300  0.31357800  0.95143200  1
  F  F15  1  0.28470500  0.84916100  0.92996000  1
  F  F16  1  0.67532200  0.51278100  0.61617800  1
  F  F17  1  0.70729900  0.13331100  0.06623000  1
  F  F18  1  0.94240200  0.75087400  0.28486200  1
