# generated using pymatgen
data_Na2MgZrSi(SO6)2
_symmetry_space_group_name_H-M   'P 1'
_cell_length_a   9.01481792
_cell_length_b   8.99399485
_cell_length_c   22.85048694
_cell_angle_alpha   89.87165511
_cell_angle_beta   90.00000000
_cell_angle_gamma   120.07661643
_symmetry_Int_Tables_number   1
_chemical_formula_structural   Na2MgZrSi(SO6)2
_chemical_formula_sum   'Na12 Mg6 Zr6 Si6 S12 O72'
_cell_volume   1603.23955849
_cell_formula_units_Z   6
loop_
 _symmetry_equiv_pos_site_id
 _symmetry_equiv_pos_as_xyz
  1  'x, y, z'
loop_
 _atom_site_type_symbol
 _atom_site_label
 _atom_site_symmetry_multiplicity
 _atom_site_fract_x
 _atom_site_fract_y
 _atom_site_fract_z
 _atom_site_occupancy
  Na  Na0  1  0.99925116  0.63571579  0.23883312  1
  Na  Na1  1  0.63646463  0.63571579  0.73883312  1
  Na  Na2  1  0.65343696  0.95305712  0.57518082  1
  Na  Na3  1  0.29962116  0.95305712  0.07518082  1
  Na  Na4  1  0.69208404  0.02738671  0.90676780  1
  Na  Na5  1  0.33530167  0.02738671  0.40676780  1
  Na  Na6  1  0.97357540  0.98553397  0.49178949  1
  Na  Na7  1  0.01195857  0.98553397  0.99178949  1
  Na  Na8  1  0.65425649  0.30554442  0.82572268  1
  Na  Na9  1  0.65128893  0.30554442  0.32572268  1
  Na  Na10  1  0.32502828  0.65683138  0.16001003  1
  Na  Na11  1  0.33180210  0.65683138  0.66001003  1
  Mg  Mg12  1  0.99762086  0.00645326  0.35120410  1
  Mg  Mg13  1  0.00883240  0.00645326  0.85120410  1
  Mg  Mg14  1  0.66412578  0.32710501  0.68487905  1
  Mg  Mg15  1  0.66298023  0.32710501  0.18487905  1
  Mg  Mg16  1  0.31365052  0.66573484  0.01801654  1
  Mg  Mg17  1  0.35208332  0.66573484  0.51801654  1
  Zr  Zr18  1  0.98964882  0.99195904  0.64752510  1
  Zr  Zr19  1  0.00231022  0.99195904  0.14752510  1
  Zr  Zr20  1  0.67149812  0.34329212  0.98081829  1
  Zr  Zr21  1  0.67179499  0.34329212  0.48081829  1
  Zr  Zr22  1  0.34710626  0.68603062  0.31405265  1
  Zr  Zr23  1  0.33892336  0.68603062  0.81405265  1
  Si  Si24  1  0.30136750  0.01257413  0.25447255  1
  Si  Si25  1  0.71120663  0.01257413  0.75447255  1
  Si  Si26  1  0.65685577  0.62085877  0.58955704  1
  Si  Si27  1  0.96400400  0.62085877  0.08955704  1
  Si  Si28  1  0.32508840  0.96666917  0.92155029  1
  Si  Si29  1  0.64157977  0.96666917  0.42155029  1
  S  S30  1  0.70907414  0.70594191  0.25172171  1
  S  S31  1  0.99758352  0.29094472  0.25136627  1
  S  S32  1  0.29336120  0.29094472  0.75136627  1
  S  S33  1  0.99686777  0.70594191  0.75172171  1
  S  S34  1  0.96313273  0.34098243  0.58433271  1
  S  S35  1  0.37378897  0.04083501  0.58334918  1
  S  S36  1  0.66704704  0.04083501  0.08334918  1
  S  S37  1  0.37785070  0.34098243  0.08433271  1
  S  S38  1  0.62138581  0.66752365  0.91782831  1
  S  S39  1  0.04453430  0.37314732  0.91820589  1
  S  S40  1  0.32861203  0.37314732  0.41820589  1
  S  S41  1  0.04613684  0.66752365  0.41782831  1
  O  O42  1  0.20555370  0.01969495  0.31285288  1
  O  O43  1  0.81425265  0.79336337  0.30266477  1
  O  O44  1  0.97794672  0.18781803  0.30296870  1
  O  O45  1  0.20987130  0.18781803  0.80296870  1
  O  O46  1  0.97911072  0.79336337  0.80266477  1
  O  O47  1  0.81414125  0.01969495  0.81285288  1
  O  O48  1  0.80280747  0.97443647  0.69604711  1
  O  O49  1  0.19264354  0.20926027  0.69709053  1
  O  O50  1  0.02968820  0.81346506  0.69736416  1
  O  O51  1  0.78377686  0.81346506  0.19736416  1
  O  O52  1  0.01661673  0.20926027  0.19709053  1
  O  O53  1  0.17162900  0.97443647  0.19604711  1
  O  O54  1  0.87996896  0.35830484  0.63641366  1
  O  O55  1  0.48693124  0.12388426  0.63322381  1
  O  O56  1  0.64936925  0.52033406  0.64847895  1
  O  O57  1  0.87096581  0.52033406  0.14847895  1
  O  O58  1  0.63695402  0.12388426  0.13322381  1
  O  O59  1  0.47833688  0.35830484  0.13641366  1
  O  O60  1  0.45371084  0.30241672  0.03131967  1
  O  O61  1  0.84157154  0.52569818  0.03134912  1
  O  O62  1  0.68897474  0.14218456  0.02806945  1
  O  O63  1  0.45321081  0.14218456  0.52806945  1
  O  O64  1  0.68412764  0.52569818  0.53134912  1
  O  O65  1  0.84870687  0.30241672  0.53131967  1
  O  O66  1  0.53073136  0.68263764  0.96830763  1
  O  O67  1  0.14612437  0.45496583  0.97021706  1
  O  O68  1  0.31465493  0.86169119  0.97993450  1
  O  O69  1  0.54703527  0.86169119  0.47993450  1
  O  O70  1  0.30884046  0.45496583  0.47021706  1
  O  O71  1  0.15190527  0.68263764  0.46830763  1
  O  O72  1  0.11981573  0.63986514  0.36233918  1
  O  O73  1  0.50608889  0.86912714  0.36429001  1
  O  O74  1  0.35100749  0.47599861  0.36443152  1
  O  O75  1  0.12499012  0.47599861  0.86443152  1
  O  O76  1  0.36303725  0.86912714  0.86429001  1
  O  O77  1  0.52004842  0.63986514  0.86233918  1
  O  O78  1  0.03112119  0.82306136  0.41270110  1
  O  O79  1  0.82638996  0.98789204  0.41018583  1
  O  O80  1  0.18325383  0.19626948  0.41320373  1
  O  O81  1  0.01301565  0.19626948  0.91320373  1
  O  O82  1  0.16150208  0.98789204  0.91018583  1
  O  O83  1  0.79194017  0.82306136  0.91270110  1
  O  O84  1  0.97880883  0.18046178  0.58875237  1
  O  O85  1  0.20492552  0.03278516  0.58914320  1
  O  O86  1  0.83590894  0.82060497  0.58835376  1
  O  O87  1  0.98469603  0.82060497  0.08835376  1
  O  O88  1  0.82785964  0.03278516  0.08914320  1
  O  O89  1  0.20165295  0.18046178  0.08875237  1
  O  O90  1  0.68193564  0.17146998  0.74358811  1
  O  O91  1  0.46943231  0.31898628  0.74663202  1
  O  O92  1  0.84197354  0.53699339  0.74550871  1
  O  O93  1  0.69502085  0.53699339  0.24550871  1
  O  O94  1  0.84955497  0.31898628  0.24663202  1
  O  O95  1  0.48953534  0.17146998  0.24358811  1
  O  O96  1  0.64257951  0.51261614  0.92155321  1
  O  O97  1  0.86796926  0.35724308  0.92201325  1
  O  O98  1  0.51378218  0.15385607  0.92234231  1
  O  O99  1  0.64007489  0.15385607  0.42234231  1
  O  O100  1  0.48927482  0.35724308  0.42201325  1
  O  O101  1  0.87003764  0.51261614  0.42155321  1
  O  O102  1  0.35959511  0.49136434  0.07474103  1
  O  O103  1  0.15795868  0.65483700  0.08304271  1
  O  O104  1  0.51908026  0.86545869  0.07747175  1
  O  O105  1  0.34637743  0.86545869  0.57747175  1
  O  O106  1  0.49687732  0.65483700  0.58304271  1
  O  O107  1  0.13176823  0.49136434  0.57474103  1
  O  O108  1  0.30135760  0.82276015  0.25526576  1
  O  O109  1  0.53217102  0.68233058  0.25576876  1
  O  O110  1  0.15733198  0.46644181  0.25518606  1
  O  O111  1  0.30910883  0.46644181  0.75518606  1
  O  O112  1  0.15015856  0.68233058  0.75576876  1
  O  O113  1  0.52140155  0.82276015  0.75526576  1
