# generated using pymatgen
data_Na4YNb(SiO4)3
_symmetry_space_group_name_H-M   'P 1'
_cell_length_a   9.38549221
_cell_length_b   9.38549186
_cell_length_c   22.81672484
_cell_angle_alpha   90.00000000
_cell_angle_beta   90.00000000
_cell_angle_gamma   120.00000120
_symmetry_Int_Tables_number   1
_chemical_formula_structural   Na4YNb(SiO4)3
_chemical_formula_sum   'Na24 Y6 Nb6 Si18 O72'
_cell_volume   1740.59616546
_cell_formula_units_Z   6
loop_
 _symmetry_equiv_pos_site_id
 _symmetry_equiv_pos_as_xyz
  1  'x, y, z'
loop_
 _atom_site_type_symbol
 _atom_site_label
 _atom_site_symmetry_multiplicity
 _atom_site_fract_x
 _atom_site_fract_y
 _atom_site_fract_z
 _atom_site_occupancy
  Na  Na0  1  0.63903497  0.01309521  0.24816023  1
  Na  Na1  1  0.37406025  0.36096503  0.24816023  1
  Na  Na2  1  0.98690479  0.62593975  0.24816023  1
  Na  Na3  1  0.63903497  0.62593975  0.74816023  1
  Na  Na4  1  0.98690479  0.36096503  0.74816023  1
  Na  Na5  1  0.37406025  0.01309521  0.74816023  1
  Na  Na6  1  0.30570197  0.34642821  0.58149323  1
  Na  Na7  1  0.04072725  0.69429803  0.58149323  1
  Na  Na8  1  0.65357179  0.95927275  0.58149323  1
  Na  Na9  1  0.30570197  0.95927275  0.08149323  1
  Na  Na10  1  0.65357179  0.69429803  0.08149323  1
  Na  Na11  1  0.04072725  0.34642821  0.08149323  1
  Na  Na12  1  0.97236797  0.67976221  0.91482723  1
  Na  Na13  1  0.70739325  0.02763203  0.91482723  1
  Na  Na14  1  0.32023779  0.29260675  0.91482723  1
  Na  Na15  1  0.97236797  0.29260675  0.41482723  1
  Na  Na16  1  0.32023779  0.02763203  0.41482723  1
  Na  Na17  1  0.70739325  0.67976221  0.41482723  1
  Na  Na18  1  0.00000000  -0.00000000  0.49600143  1
  Na  Na19  1  0.00000000  -0.00000000  0.99600143  1
  Na  Na20  1  0.66666700  0.33333300  0.82933443  1
  Na  Na21  1  0.66666700  0.33333300  0.32933443  1
  Na  Na22  1  0.33333300  0.66666700  0.16266843  1
  Na  Na23  1  0.33333300  0.66666700  0.66266843  1
  Y  Y24  1  0.00000000  -0.00000000  0.34864352  1
  Y  Y25  1  0.00000000  -0.00000000  0.84864352  1
  Y  Y26  1  0.66666700  0.33333300  0.68197652  1
  Y  Y27  1  0.66666700  0.33333300  0.18197652  1
  Y  Y28  1  0.33333300  0.66666700  0.01531052  1
  Y  Y29  1  0.33333300  0.66666700  0.51531052  1
  Nb  Nb30  1  0.00000000  -0.00000000  0.64826108  1
  Nb  Nb31  1  0.00000000  -0.00000000  0.14826108  1
  Nb  Nb32  1  0.66666700  0.33333300  0.98159408  1
  Nb  Nb33  1  0.66666700  0.33333300  0.48159408  1
  Nb  Nb34  1  0.33333300  0.66666700  0.31492808  1
  Nb  Nb35  1  0.33333300  0.66666700  0.81492808  1
  Si  Si36  1  0.29443152  0.99264959  0.25095988  1
  Si  Si37  1  0.69821807  0.70556848  0.25095988  1
  Si  Si38  1  0.00735041  0.30178193  0.25095988  1
  Si  Si39  1  0.29443152  0.30178193  0.75095988  1
  Si  Si40  1  0.00735041  0.70556848  0.75095988  1
  Si  Si41  1  0.69821807  0.99264959  0.75095988  1
  Si  Si42  1  0.96109852  0.32598259  0.58429288  1
  Si  Si43  1  0.36488507  0.03890148  0.58429288  1
  Si  Si44  1  0.67401741  0.63511493  0.58429288  1
  Si  Si45  1  0.96109852  0.63511493  0.08429288  1
  Si  Si46  1  0.67401741  0.03890148  0.08429288  1
  Si  Si47  1  0.36488507  0.32598259  0.08429288  1
  Si  Si48  1  0.62776452  0.65931659  0.91762688  1
  Si  Si49  1  0.03155107  0.37223548  0.91762688  1
  Si  Si50  1  0.34068341  0.96844893  0.91762688  1
  Si  Si51  1  0.62776452  0.96844893  0.41762688  1
  Si  Si52  1  0.34068341  0.37223548  0.41762688  1
  Si  Si53  1  0.03155107  0.65931659  0.41762688  1
  O  O54  1  0.21938816  0.02548416  0.30890862  1
  O  O55  1  0.80609601  0.78061184  0.30890862  1
  O  O56  1  0.97451584  0.19390399  0.30890862  1
  O  O57  1  0.21938816  0.19390399  0.80890862  1
  O  O58  1  0.97451584  0.78061184  0.80890862  1
  O  O59  1  0.80609601  0.02548416  0.80890862  1
  O  O60  1  0.80635330  0.97019029  0.69431650  1
  O  O61  1  0.16383699  0.19364670  0.69431650  1
  O  O62  1  0.02980971  0.83616301  0.69431650  1
  O  O63  1  0.80635330  0.83616301  0.19431650  1
  O  O64  1  0.02980971  0.19364670  0.19431650  1
  O  O65  1  0.16383699  0.97019029  0.19431650  1
  O  O66  1  0.88605516  0.35881716  0.64224162  1
  O  O67  1  0.47276301  0.11394484  0.64224162  1
  O  O68  1  0.64118284  0.52723699  0.64224162  1
  O  O69  1  0.88605516  0.52723699  0.14224162  1
  O  O70  1  0.64118284  0.11394484  0.14224162  1
  O  O71  1  0.47276301  0.35881716  0.14224162  1
  O  O72  1  0.47302030  0.30352329  0.02764950  1
  O  O73  1  0.83050399  0.52697970  0.02764950  1
  O  O74  1  0.69647671  0.16949601  0.02764950  1
  O  O75  1  0.47302030  0.16949601  0.52764950  1
  O  O76  1  0.69647671  0.52697970  0.52764950  1
  O  O77  1  0.83050399  0.30352329  0.52764950  1
  O  O78  1  0.55272116  0.69215116  0.97557562  1
  O  O79  1  0.13942901  0.44727884  0.97557562  1
  O  O80  1  0.30784884  0.86057099  0.97557562  1
  O  O81  1  0.55272116  0.86057099  0.47557562  1
  O  O82  1  0.30784884  0.44727884  0.47557562  1
  O  O83  1  0.13942901  0.69215116  0.47557562  1
  O  O84  1  0.13968630  0.63685729  0.36098350  1
  O  O85  1  0.49716999  0.86031370  0.36098350  1
  O  O86  1  0.36314271  0.50283001  0.36098350  1
  O  O87  1  0.13968630  0.50283001  0.86098350  1
  O  O88  1  0.36314271  0.86031370  0.86098350  1
  O  O89  1  0.49716999  0.63685729  0.86098350  1
  O  O90  1  0.00070216  0.81368002  0.41196693  1
  O  O91  1  0.81297786  0.99929784  0.41196693  1
  O  O92  1  0.18631998  0.18702214  0.41196693  1
  O  O93  1  0.00070216  0.18702214  0.91196693  1
  O  O94  1  0.18631998  0.99929784  0.91196693  1
  O  O95  1  0.81297786  0.81368002  0.91196693  1
  O  O96  1  0.96210209  0.14823607  0.58805249  1
  O  O97  1  0.18613399  0.03789791  0.58805249  1
  O  O98  1  0.85176393  0.81386601  0.58805249  1
  O  O99  1  0.96210209  0.81386601  0.08805249  1
  O  O100  1  0.85176393  0.03789791  0.08805249  1
  O  O101  1  0.18613399  0.14823607  0.08805249  1
  O  O102  1  0.66736916  0.14701302  0.74529993  1
  O  O103  1  0.47964486  0.33263084  0.74529993  1
  O  O104  1  0.85298698  0.52035514  0.74529993  1
  O  O105  1  0.66736916  0.52035514  0.24529993  1
  O  O106  1  0.85298698  0.33263084  0.24529993  1
  O  O107  1  0.47964486  0.14701302  0.24529993  1
  O  O108  1  0.62876909  0.48156907  0.92138549  1
  O  O109  1  0.85280099  0.37123091  0.92138549  1
  O  O110  1  0.51843093  0.14719901  0.92138549  1
  O  O111  1  0.62876909  0.14719901  0.42138549  1
  O  O112  1  0.51843093  0.37123091  0.42138549  1
  O  O113  1  0.85280099  0.48156907  0.42138549  1
  O  O114  1  0.33403516  0.48034702  0.07863393  1
  O  O115  1  0.14631086  0.66596484  0.07863393  1
  O  O116  1  0.51965298  0.85368914  0.07863393  1
  O  O117  1  0.33403516  0.85368914  0.57863393  1
  O  O118  1  0.51965298  0.66596484  0.57863393  1
  O  O119  1  0.14631086  0.48034702  0.57863393  1
  O  O120  1  0.29543509  0.81490307  0.25471949  1
  O  O121  1  0.51946699  0.70456491  0.25471949  1
  O  O122  1  0.18509693  0.48053301  0.25471949  1
  O  O123  1  0.29543509  0.48053301  0.75471949  1
  O  O124  1  0.18509693  0.70456491  0.75471949  1
  O  O125  1  0.51946699  0.81490307  0.75471949  1
