# generated using pymatgen
data_SO2
_symmetry_space_group_name_H-M   'P 1'
_cell_length_a   4.20841894
_cell_length_b   4.20841979
_cell_length_c   5.90349217
_cell_angle_alpha   90.00000000
_cell_angle_beta   90.00000000
_cell_angle_gamma   92.92126675
_symmetry_Int_Tables_number   1
_chemical_formula_structural   SO2
_chemical_formula_sum   'S2 O4'
_cell_volume   104.41966209
_cell_formula_units_Z   2
loop_
 _symmetry_equiv_pos_site_id
 _symmetry_equiv_pos_as_xyz
  1  'x, y, z'
loop_
 _atom_site_type_symbol
 _atom_site_label
 _atom_site_symmetry_multiplicity
 _atom_site_fract_x
 _atom_site_fract_y
 _atom_site_fract_z
 _atom_site_occupancy
  S  S0  1  0.49613037  0.50386963  0.50000000  1
  S  S1  1  -0.00386963  0.00386963  -0.00000000  1
  O  O2  1  0.77356722  0.53369759  0.64201496  1
  O  O3  1  0.46630241  0.22643278  0.35798504  1
  O  O4  1  0.96630241  0.72643278  0.14201496  1
  O  O5  1  0.27356722  0.03369759  0.85798504  1
