# generated using pymatgen
data_Na21Ca10Ta2P15(SO24)3
_symmetry_space_group_name_H-M   'P 1'
_cell_length_a   9.42471336
_cell_length_b   9.37301388
_cell_length_c   22.60462462
_cell_angle_alpha   89.99473131
_cell_angle_beta   89.96300159
_cell_angle_gamma   119.98193058
_symmetry_Int_Tables_number   1
_chemical_formula_structural   Na21Ca10Ta2P15(SO24)3
_chemical_formula_sum   'Na21 Ca10 Ta2 P15 S3 O72'
_cell_volume   1729.63414000
_cell_formula_units_Z   1
loop_
 _symmetry_equiv_pos_site_id
 _symmetry_equiv_pos_as_xyz
  1  'x, y, z'
loop_
 _atom_site_type_symbol
 _atom_site_label
 _atom_site_symmetry_multiplicity
 _atom_site_fract_x
 _atom_site_fract_y
 _atom_site_fract_z
 _atom_site_occupancy
  Na  Na0  1  0.34957522  0.33661234  0.24837711  1
  Na  Na1  1  0.98876186  0.33704438  0.73701130  1
  Na  Na2  1  0.35895911  0.01507716  0.73751941  1
  Na  Na3  1  0.28917450  0.31995139  0.57900515  1
  Na  Na4  1  0.04423832  0.69846725  0.58230701  1
  Na  Na5  1  0.66696971  0.98492411  0.58150209  1
  Na  Na6  1  0.30148456  0.98277993  0.09180292  1
  Na  Na7  1  0.65192906  0.68327957  0.09540898  1
  Na  Na8  1  0.04547371  0.33185992  0.09260407  1
  Na  Na9  1  0.96356999  0.67215585  0.90796505  1
  Na  Na10  1  0.71220535  0.04025890  0.90748804  1
  Na  Na11  1  0.32537431  0.28860548  0.91349923  1
  Na  Na12  1  0.96396949  0.29042436  0.41128110  1
  Na  Na13  1  0.32720698  0.03989394  0.41196971  1
  Na  Na14  1  0.71014383  0.67030804  0.40556244  1
  Na  Na15  1  0.01026866  0.01057171  0.50035279  1
  Na  Na16  1  0.01413066  0.01308173  0.00036753  1
  Na  Na17  1  0.66595486  0.34864131  0.82561717  1
  Na  Na18  1  0.68244428  0.33242686  0.32606736  1
  Na  Na19  1  0.33284865  0.67112150  0.17452818  1
  Na  Na20  1  0.33637205  0.66613874  0.65815322  1
  Ca  Ca21  1  0.99457838  0.99715276  0.34356385  1
  Ca  Ca22  1  0.99727950  0.99549048  0.84402915  1
  Ca  Ca23  1  0.99593470  0.99661739  0.65770621  1
  Ca  Ca24  1  0.99753888  0.99490998  0.16333036  1
  Ca  Ca25  1  0.66871534  0.33788997  0.68256969  1
  Ca  Ca26  1  0.67014790  0.33573205  0.18695407  1
  Ca  Ca27  1  0.65980961  0.33256287  0.97922428  1
  Ca  Ca28  1  0.66643166  0.32802991  0.48097619  1
  Ca  Ca29  1  0.33460858  0.66319317  0.01543259  1
  Ca  Ca30  1  0.33056409  0.66793409  0.51374173  1
  Ta  Ta31  1  0.33464850  0.67195773  0.31739851  1
  Ta  Ta32  1  0.33770758  0.66731617  0.81750121  1
  P  P33  1  0.31128369  0.99430726  0.25158654  1
  P  P34  1  0.67456644  0.68522208  0.25251903  1
  P  P35  1  0.01252503  0.32462517  0.25326407  1
  P  P36  1  0.30945686  0.31668878  0.75482988  1
  P  P37  1  0.01142368  0.68641492  0.75536394  1
  P  P38  1  0.68103080  0.99519759  0.75349971  1
  P  P39  1  0.97347529  0.32889858  0.58399346  1
  P  P40  1  0.35562298  0.02734959  0.58473242  1
  P  P41  1  0.35587091  0.32615100  0.08268822  1
  P  P42  1  0.63032605  0.66748981  0.91795898  1
  P  P43  1  0.03584928  0.37114650  0.91651732  1
  P  P44  1  0.33380227  0.96256003  0.91749996  1
  P  P45  1  0.63063654  0.96321822  0.41773040  1
  P  P46  1  0.33507706  0.37087046  0.41613210  1
  P  P47  1  0.03577587  0.66582759  0.41670500  1
  S  S48  1  0.67036310  0.64098463  0.58054530  1
  S  S49  1  0.96834614  0.64093199  0.07968094  1
  S  S50  1  0.67336096  0.03241933  0.08060166  1
  O  O51  1  0.21999399  0.01726560  0.30343195  1
  O  O52  1  0.77857478  0.77292887  0.30633996  1
  O  O53  1  0.99879504  0.22312771  0.30811341  1
  O  O54  1  0.22751613  0.21305493  0.81031007  1
  O  O55  1  0.99403552  0.76629322  0.81188334  1
  O  O56  1  0.78850406  0.02019103  0.80786818  1
  O  O57  1  0.75233563  0.96656823  0.69681755  1
  O  O58  1  0.19369792  0.24744376  0.70084794  1
  O  O59  1  0.04718879  0.79883369  0.70107736  1
  O  O60  1  0.74528272  0.77926375  0.19397260  1
  O  O61  1  0.05054190  0.25291245  0.19718857  1
  O  O62  1  0.21429550  0.95902218  0.19309837  1
  O  O63  1  0.88677093  0.33994616  0.64042779  1
  O  O64  1  0.45027041  0.11772828  0.64113567  1
  O  O65  1  0.65859710  0.53782167  0.63144233  1
  O  O66  1  0.87463631  0.53219536  0.12892752  1
  O  O67  1  0.66575265  0.13055269  0.12979861  1
  O  O68  1  0.46186961  0.33520857  0.13587489  1
  O  O69  1  0.43526643  0.31454267  0.02379297  1
  O  O70  1  0.88634666  0.56699898  0.02239660  1
  O  O71  1  0.68649118  0.11682302  0.02320543  1
  O  O72  1  0.44303584  0.12889239  0.52865021  1
  O  O73  1  0.68140625  0.56462339  0.52447492  1
  O  O74  1  0.87520179  0.32186163  0.52805582  1
  O  O75  1  0.56074161  0.68127049  0.97726638  1
  O  O76  1  0.12191129  0.44462960  0.97521039  1
  O  O77  1  0.32217739  0.87674735  0.97624395  1
  O  O78  1  0.56088500  0.87997936  0.47728159  1
  O  O79  1  0.32228288  0.44428200  0.47502585  1
  O  O80  1  0.11940230  0.68073485  0.47619743  1
  O  O81  1  0.15892876  0.66781206  0.36675974  1
  O  O82  1  0.51065614  0.83992884  0.36757536  1
  O  O83  1  0.33297535  0.48702412  0.36402954  1
  O  O84  1  0.15485140  0.48819132  0.86468783  1
  O  O85  1  0.33122798  0.84353199  0.86550611  1
  O  O86  1  0.51008071  0.66970952  0.86770868  1
  O  O87  1  0.01216624  0.81588334  0.40940006  1
  O  O88  1  0.80382061  0.98771232  0.41068486  1
  O  O89  1  0.18505749  0.19579586  0.41082067  1
  O  O90  1  0.01152258  0.19616643  0.91079621  1
  O  O91  1  0.18451471  0.98766999  0.91177225  1
  O  O92  1  0.80331470  0.81677602  0.91035203  1
  O  O93  1  0.98573455  0.16858427  0.58434810  1
  O  O94  1  0.17889988  0.00276417  0.58520858  1
  O  O95  1  0.82048657  0.80688232  0.58476870  1
  O  O96  1  0.97877531  0.80526923  0.08478594  1
  O  O97  1  0.82015789  0.01122105  0.08562879  1
  O  O98  1  0.18104828  0.16875959  0.08583224  1
  O  O99  1  0.64873916  0.14065342  0.75016872  1
  O  O100  1  0.47797035  0.33424774  0.74744267  1
  O  O101  1  0.87112600  0.50866377  0.74981241  1
  O  O102  1  0.63404115  0.50480544  0.25077983  1
  O  O103  1  0.86982988  0.35559501  0.24765597  1
  O  O104  1  0.48301445  0.14539352  0.24864295  1
  O  O105  1  0.62992724  0.50363140  0.90941637  1
  O  O106  1  0.87183865  0.36957363  0.90922224  1
  O  O107  1  0.49675085  0.12671390  0.90951470  1
  O  O108  1  0.62963431  0.12626474  0.40945045  1
  O  O109  1  0.49736168  0.36913070  0.40909406  1
  O  O110  1  0.87309473  0.50217296  0.40910413  1
  O  O111  1  0.33845616  0.48419595  0.08559306  1
  O  O112  1  0.13819610  0.66573563  0.08208393  1
  O  O113  1  0.52160532  0.86593705  0.08317126  1
  O  O114  1  0.34431175  0.85493726  0.58524730  1
  O  O115  1  0.52275031  0.66113492  0.58175448  1
  O  O116  1  0.14998069  0.48264632  0.58441970  1
  O  O117  1  0.33148256  0.83734922  0.26379494  1
  O  O118  1  0.49833516  0.67227217  0.26024174  1
  O  O119  1  0.17626533  0.50160808  0.26107548  1
  O  O120  1  0.33208076  0.49657825  0.76429836  1
  O  O121  1  0.17480356  0.67134106  0.76119294  1
  O  O122  1  0.50316428  0.83587696  0.76313234  1
