# generated using pymatgen
data_V2(OF)3
_symmetry_space_group_name_H-M   'P 1'
_cell_length_a   5.28267167
_cell_length_b   9.27560380
_cell_length_c   5.30326290
_cell_angle_alpha   105.65240768
_cell_angle_beta   119.01738193
_cell_angle_gamma   74.75872517
_symmetry_Int_Tables_number   1
_chemical_formula_structural   V2(OF)3
_chemical_formula_sum   'V4 O6 F6'
_cell_volume   216.10752739
_cell_formula_units_Z   2
loop_
 _symmetry_equiv_pos_site_id
 _symmetry_equiv_pos_as_xyz
  1  'x, y, z'
loop_
 _atom_site_type_symbol
 _atom_site_label
 _atom_site_symmetry_multiplicity
 _atom_site_fract_x
 _atom_site_fract_y
 _atom_site_fract_z
 _atom_site_occupancy
  V  V0  1  0.98279200  0.99006000  0.00317000  1
  V  V1  1  0.74026700  0.73665200  0.26071000  1
  V  V2  1  0.48929900  0.50173600  0.54665300  1
  V  V3  1  0.28720800  0.22724500  0.77422600  1
  O  O4  1  0.84219500  0.87523500  0.07945100  1
  O  O5  1  0.32328500  0.37899500  0.57195300  1
  O  O6  1  0.66607800  0.62670800  0.41079400  1
  O  O7  1  0.16859400  0.12980000  0.90876900  1
  O  O8  1  0.55613000  0.62791700  0.85837300  1
  O  O9  1  0.61519800  0.12486200  0.81159200  1
  F  F10  1  0.12611700  0.61630800  0.29534800  1
  F  F11  1  0.05780200  0.14233400  0.36802600  1
  F  F12  1  0.39794400  0.89509800  0.20826200  1
  F  F13  1  0.42046900  0.37639700  0.10796400  1
  F  F14  1  0.96680300  0.86743900  0.63170900  1
  F  F15  1  0.85982100  0.38321300  0.66299900  1
