# generated using pymatgen
data_MgCo4(NiO4)2
_symmetry_space_group_name_H-M   'P 1'
_cell_length_a   5.96010225
_cell_length_b   5.84113165
_cell_length_c   5.96010190
_cell_angle_alpha   60.65814378
_cell_angle_beta   65.48320392
_cell_angle_gamma   60.65814497
_symmetry_Int_Tables_number   1
_chemical_formula_structural   MgCo4(NiO4)2
_chemical_formula_sum   'Mg1 Co4 Ni2 O8'
_cell_volume   153.43993559
_cell_formula_units_Z   1
loop_
 _symmetry_equiv_pos_site_id
 _symmetry_equiv_pos_as_xyz
  1  'x, y, z'
loop_
 _atom_site_type_symbol
 _atom_site_label
 _atom_site_symmetry_multiplicity
 _atom_site_fract_x
 _atom_site_fract_y
 _atom_site_fract_z
 _atom_site_occupancy
  Mg  Mg0  1  0.30553601  0.94446399  0.30553601  1
  Co  Co1  1  0.99457374  0.25542626  0.99457374  1
  Co  Co2  1  0.55537998  0.95762115  0.55537998  1
  Co  Co3  1  0.55537998  0.43161889  0.55537998  1
  Co  Co4  1  0.95630031  0.79369969  0.95630031  1
  Ni  Ni5  1  0.02325543  0.49759512  0.48155433  1
  Ni  Ni6  1  0.48155433  0.49759512  0.02325543  1
  O  O7  1  0.18054368  0.34421080  0.18054368  1
  O  O8  1  0.32126728  0.23964089  0.69945094  1
  O  O9  1  0.18054368  0.79470184  0.18054368  1
  O  O10  1  0.69945094  0.23964089  0.32126728  1
  O  O11  1  0.32124199  0.74255259  0.69365284  1
  O  O12  1  0.79274340  0.22767381  0.79274341  1
  O  O13  1  0.69365284  0.74255259  0.32124199  1
  O  O14  1  0.79274340  0.68683938  0.79274341  1
