# generated using pymatgen
data_Na5Y2Zr2SiP5O24
_symmetry_space_group_name_H-M   'P 1'
_cell_length_a   9.20107653
_cell_length_b   9.19178857
_cell_length_c   23.35353946
_cell_angle_alpha   89.90071972
_cell_angle_beta   90.06703051
_cell_angle_gamma   120.18137887
_symmetry_Int_Tables_number   1
_chemical_formula_structural   Na5Y2Zr2SiP5O24
_chemical_formula_sum   'Na15 Y6 Zr6 Si3 P15 O72'
_cell_volume   1707.35830734
_cell_formula_units_Z   3
loop_
 _symmetry_equiv_pos_site_id
 _symmetry_equiv_pos_as_xyz
  1  'x, y, z'
loop_
 _atom_site_type_symbol
 _atom_site_label
 _atom_site_symmetry_multiplicity
 _atom_site_fract_x
 _atom_site_fract_y
 _atom_site_fract_z
 _atom_site_occupancy
  Na  Na0  1  0.00346598  0.64093405  0.25056912  1
  Na  Na1  1  0.63237221  0.64042056  0.75016000  1
  Na  Na2  1  0.36952749  0.99763482  0.75147943  1
  Na  Na3  1  0.66523530  0.97122712  0.58561200  1
  Na  Na4  1  0.29778583  0.96973904  0.08301995  1
  Na  Na5  1  0.67790401  0.69672672  0.08141608  1
  Na  Na6  1  0.02639811  0.33315804  0.08400807  1
  Na  Na7  1  0.96650609  0.30138422  0.41709914  1
  Na  Na8  1  0.33825350  0.03505144  0.41984149  1
  Na  Na9  1  0.00619650  0.98980582  0.50164127  1
  Na  Na10  1  0.00048222  0.99161045  0.99465901  1
  Na  Na11  1  0.67939205  0.33148617  0.83802584  1
  Na  Na12  1  0.65415898  0.33371558  0.33299500  1
  Na  Na13  1  0.34091231  0.66652874  0.17098059  1
  Na  Na14  1  0.31905279  0.65512861  0.66685999  1
  Y  Y15  1  0.99312144  0.99511306  0.34987837  1
  Y  Y16  1  0.00052569  0.00201584  0.15283750  1
  Y  Y17  1  0.66847614  0.33791365  0.97856978  1
  Y  Y18  1  0.66309116  0.34201560  0.48610657  1
  Y  Y19  1  0.34448960  0.66772739  0.31503930  1
  Y  Y20  1  0.32787529  0.66231728  0.81474932  1
  Zr  Zr21  1  0.99452922  0.00283432  0.85360978  1
  Zr  Zr22  1  0.00526523  0.00267802  0.64768021  1
  Zr  Zr23  1  0.66974323  0.32745237  0.68396936  1
  Zr  Zr24  1  0.66706174  0.33078593  0.18408078  1
  Zr  Zr25  1  0.32911886  0.66652798  0.01355887  1
  Zr  Zr26  1  0.33198197  0.66529570  0.52132459  1
  Si  Si27  1  0.71099206  0.00486947  0.74814147  1
  Si  Si28  1  0.36594180  0.03353894  0.58243121  1
  Si  Si29  1  0.96615726  0.63021837  0.08375626  1
  P  P30  1  0.30426256  0.00345680  0.25007348  1
  P  P31  1  0.69910165  0.69307775  0.24626511  1
  P  P32  1  0.99509107  0.30305794  0.24931937  1
  P  P33  1  0.29245045  0.28725641  0.74935335  1
  P  P34  1  0.99447515  0.71083469  0.74983546  1
  P  P35  1  0.96340597  0.33310113  0.58274070  1
  P  P36  1  0.66677342  0.63269052  0.58660364  1
  P  P37  1  0.66249937  0.03639657  0.08257958  1
  P  P38  1  0.37477755  0.33800057  0.08292261  1
  P  P39  1  0.63196462  0.67235377  0.91518471  1
  P  P40  1  0.03814547  0.36486612  0.91676369  1
  P  P41  1  0.32636990  0.96155457  0.91451755  1
  P  P42  1  0.62924190  0.96311649  0.42006318  1
  P  P43  1  0.33143370  0.37077109  0.41795282  1
  P  P44  1  0.04351937  0.66710150  0.41626160  1
  O  O45  1  0.22271770  0.02705075  0.30439783  1
  O  O46  1  0.81557897  0.77811558  0.29816892  1
  O  O47  1  0.97430569  0.19853254  0.30361004  1
  O  O48  1  0.20956663  0.17542385  0.80267180  1
  O  O49  1  0.96938662  0.79557215  0.80325052  1
  O  O50  1  0.82922683  0.02511608  0.80412352  1
  O  O51  1  0.79966133  0.97937748  0.69134776  1
  O  O52  1  0.18455231  0.19956003  0.69633367  1
  O  O53  1  0.02029586  0.82310822  0.69708074  1
  O  O54  1  0.77736788  0.79175667  0.19093775  1
  O  O55  1  0.01600112  0.22355772  0.19470981  1
  O  O56  1  0.19640062  0.97815003  0.19631658  1
  O  O57  1  0.87214525  0.35989934  0.63449387  1
  O  O58  1  0.49497161  0.13079338  0.63793139  1
  O  O59  1  0.64326797  0.52423085  0.64074089  1
  O  O60  1  0.87860664  0.50932223  0.14162022  1
  O  O61  1  0.63079452  0.12004097  0.13581886  1
  O  O62  1  0.48923090  0.36457631  0.13607209  1
  O  O63  1  0.44758286  0.29794296  0.03085441  1
  O  O64  1  0.84006555  0.54338654  0.03121199  1
  O  O65  1  0.69354729  0.14687444  0.03034670  1
  O  O66  1  0.44293224  0.13631294  0.52392568  1
  O  O67  1  0.69866548  0.55913591  0.53347075  1
  O  O68  1  0.85970264  0.29940132  0.52807581  1
  O  O69  1  0.54022225  0.69028899  0.96984913  1
  O  O70  1  0.14668248  0.45460956  0.97238627  1
  O  O71  1  0.30828114  0.84834846  0.96909052  1
  O  O72  1  0.53932793  0.85518051  0.47462034  1
  O  O73  1  0.31539820  0.46593074  0.47095533  1
  O  O74  1  0.16020349  0.68485895  0.46843839  1
  O  O75  1  0.11948839  0.64472701  0.36083570  1
  O  O76  1  0.52037707  0.88028315  0.36740105  1
  O  O77  1  0.34884401  0.47005181  0.36389300  1
  O  O78  1  0.12443880  0.47215256  0.86453897  1
  O  O79  1  0.34635945  0.87944720  0.86032892  1
  O  O80  1  0.53135429  0.65512243  0.86082635  1
  O  O81  1  0.03715262  0.83199956  0.41555541  1
  O  O82  1  0.80679736  0.98509715  0.41666748  1
  O  O83  1  0.16604709  0.19587523  0.41663210  1
  O  O84  1  0.03110129  0.19215315  0.91343745  1
  O  O85  1  0.16259577  0.97029533  0.91228080  1
  O  O86  1  0.80781521  0.83612306  0.91282779  1
  O  O87  1  0.97575216  0.17304246  0.59223272  1
  O  O88  1  0.17935134  0.00804144  0.59191130  1
  O  O89  1  0.81744668  0.81507679  0.59254760  1
  O  O90  1  0.99785262  0.82149141  0.08871610  1
  O  O91  1  0.81654114  0.01481516  0.08995401  1
  O  O92  1  0.19459008  0.19011648  0.09062177  1
  O  O93  1  0.68682995  0.17195437  0.74361924  1
  O  O94  1  0.46979423  0.30218980  0.74276827  1
  O  O95  1  0.83041865  0.53773619  0.74289123  1
  O  O96  1  0.69002959  0.51804240  0.24224483  1
  O  O97  1  0.83252547  0.31824964  0.24469496  1
  O  O98  1  0.48080021  0.16196475  0.24288945  1
  O  O99  1  0.65081026  0.51734343  0.91947432  1
  O  O100  1  0.86293198  0.34170687  0.92131757  1
  O  O101  1  0.48146473  0.13489631  0.92065504  1
  O  O102  1  0.64797543  0.14054094  0.42335890  1
  O  O103  1  0.48237320  0.34183449  0.42089651  1
  O  O104  1  0.87097369  0.50650825  0.42257767  1
  O  O105  1  0.36779515  0.50429809  0.07658909  1
  O  O106  1  0.15276122  0.64156501  0.07646263  1
  O  O107  1  0.50094158  0.85851968  0.07670852  1
  O  O108  1  0.36131879  0.84957834  0.57888046  1
  O  O109  1  0.50689850  0.65061362  0.57987539  1
  O  O110  1  0.14069046  0.49063227  0.57808987  1
  O  O111  1  0.31400037  0.84109955  0.25342999  1
  O  O112  1  0.52426404  0.67116659  0.25140925  1
  O  O113  1  0.14536038  0.48469455  0.25255919  1
  O  O114  1  0.32102155  0.46644512  0.75243220  1
  O  O115  1  0.15318955  0.69631010  0.75307335  1
  O  O116  1  0.52274347  0.83701761  0.75117073  1
