# generated using pymatgen
data_Na2MgMn2O8
_symmetry_space_group_name_H-M   'P 1'
_cell_length_a   5.76166865
_cell_length_b   5.40852133
_cell_length_c   7.11680528
_cell_angle_alpha   91.64084885
_cell_angle_beta   94.02008097
_cell_angle_gamma   68.94354893
_symmetry_Int_Tables_number   1
_chemical_formula_structural   Na2MgMn2O8
_chemical_formula_sum   'Na2 Mg1 Mn2 O8'
_cell_volume   206.45542345
_cell_formula_units_Z   1
loop_
 _symmetry_equiv_pos_site_id
 _symmetry_equiv_pos_as_xyz
  1  'x, y, z'
loop_
 _atom_site_type_symbol
 _atom_site_label
 _atom_site_symmetry_multiplicity
 _atom_site_fract_x
 _atom_site_fract_y
 _atom_site_fract_z
 _atom_site_occupancy
  Na  Na0  1  0.12113500  0.90980400  0.00234600  1
  Na  Na1  1  0.96298300  0.02453300  0.49424700  1
  Mg  Mg2  1  0.56456600  0.16301600  0.95668000  1
  Mn  Mn3  1  0.65481700  0.64356300  0.73478600  1
  Mn  Mn4  1  0.33413200  0.37033900  0.27406900  1
  O  O5  1  0.22917700  0.69443900  0.28597300  1
  O  O6  1  0.34885800  0.79936800  0.73755800  1
  O  O7  1  0.75800400  0.69550200  0.54043000  1
  O  O8  1  0.23109600  0.27789200  0.05974200  1
  O  O9  1  0.27469900  0.22013800  0.44645700  1
  O  O10  1  0.77393400  0.79103300  0.91084900  1
  O  O11  1  0.64473700  0.24395600  0.23072400  1
  O  O12  1  0.72686300  0.31641800  0.77984100  1
