# generated using pymatgen
data_VSeO4
_symmetry_space_group_name_H-M   'P 1'
_cell_length_a   9.82800027
_cell_length_b   3.90758291
_cell_length_c   8.05750902
_cell_angle_alpha   80.96055242
_cell_angle_beta   90.00000000
_cell_angle_gamma   90.00000000
_symmetry_Int_Tables_number   1
_chemical_formula_structural   VSeO4
_chemical_formula_sum   'V4 Se4 O16'
_cell_volume   305.59526797
_cell_formula_units_Z   4
loop_
 _symmetry_equiv_pos_site_id
 _symmetry_equiv_pos_as_xyz
  1  'x, y, z'
loop_
 _atom_site_type_symbol
 _atom_site_label
 _atom_site_symmetry_multiplicity
 _atom_site_fract_x
 _atom_site_fract_y
 _atom_site_fract_z
 _atom_site_occupancy
  V  V0  1  0.00390861  0.02042662  0.69555871  1
  V  V1  1  0.50390861  0.97957338  0.80444129  1
  V  V2  1  0.99609139  0.97957338  0.30444129  1
  V  V3  1  0.49609139  0.02042662  0.19555871  1
  Se  Se4  1  0.79049552  0.19208729  0.96748376  1
  Se  Se5  1  0.29049552  0.80791271  0.53251624  1
  Se  Se6  1  0.20950448  0.80791271  0.03251624  1
  Se  Se7  1  0.70950448  0.19208729  0.46748376  1
  O  O8  1  0.87075240  0.98243016  0.50322491  1
  O  O9  1  0.37075240  0.01756984  0.99677509  1
  O  O10  1  0.12924760  0.01756984  0.49677509  1
  O  O11  1  0.62924760  0.98243016  0.00322491  1
  O  O12  1  0.16546753  0.87198839  0.82569266  1
  O  O13  1  0.66546753  0.12801161  0.67430734  1
  O  O14  1  0.83453247  0.12801161  0.17430734  1
  O  O15  1  0.33453247  0.87198839  0.32569266  1
  O  O16  1  0.99323687  0.43910031  0.69551795  1
  O  O17  1  0.49323687  0.56089969  0.80448205  1
  O  O18  1  0.00676313  0.56089969  0.30448205  1
  O  O19  1  0.50676313  0.43910031  0.19551795  1
  O  O20  1  0.88577083  0.88312635  0.89647322  1
  O  O21  1  0.38577083  0.11687365  0.60352678  1
  O  O22  1  0.11422917  0.11687365  0.10352678  1
  O  O23  1  0.61422917  0.88312635  0.39647322  1
