# generated using pymatgen
data_Na3Hf3GaSi3(SO8)3
_symmetry_space_group_name_H-M   'P 1'
_cell_length_a   8.87951159
_cell_length_b   8.96508151
_cell_length_c   22.96227142
_cell_angle_alpha   89.99532596
_cell_angle_beta   89.99719854
_cell_angle_gamma   120.09484394
_symmetry_Int_Tables_number   1
_chemical_formula_structural   Na3Hf3GaSi3(SO8)3
_chemical_formula_sum   'Na9 Hf9 Ga3 Si9 S9 O72'
_cell_volume   1581.51363707
_cell_formula_units_Z   3
loop_
 _symmetry_equiv_pos_site_id
 _symmetry_equiv_pos_as_xyz
  1  'x, y, z'
loop_
 _atom_site_type_symbol
 _atom_site_label
 _atom_site_symmetry_multiplicity
 _atom_site_fract_x
 _atom_site_fract_y
 _atom_site_fract_z
 _atom_site_occupancy
  Na  Na0  1  0.35594940  0.35772605  0.24167880  1
  Na  Na1  1  0.64108253  0.62699543  0.75337595  1
  Na  Na2  1  0.97196139  0.29354939  0.41678432  1
  Na  Na3  1  0.99341176  0.00598983  0.49452607  1
  Na  Na4  1  0.99564941  0.98092322  0.00346923  1
  Na  Na5  1  0.66277597  0.34030322  0.82914454  1
  Na  Na6  1  0.66442842  0.31692938  0.32707367  1
  Na  Na7  1  0.29903231  0.65210865  0.16364038  1
  Na  Na8  1  0.28869423  0.64304225  0.66608314  1
  Hf  Hf9  1  0.00768275  0.99306317  0.85081211  1
  Hf  Hf10  1  0.01162196  0.01477077  0.64568839  1
  Hf  Hf11  1  0.00775193  0.00793028  0.14542802  1
  Hf  Hf12  1  0.66548756  0.35319237  0.98073930  1
  Hf  Hf13  1  0.66156046  0.31956332  0.47829052  1
  Hf  Hf14  1  0.34238525  0.65589222  0.02582838  1
  Hf  Hf15  1  0.32866313  0.65101899  0.51815678  1
  Hf  Hf16  1  0.33540222  0.66497156  0.31391207  1
  Hf  Hf17  1  0.32730670  0.65324173  0.81115439  1
  Ga  Ga18  1  0.98703206  0.02786980  0.35199374  1
  Ga  Ga19  1  0.68774313  0.35173080  0.68894193  1
  Ga  Ga20  1  0.69841578  0.35068847  0.17857394  1
  Si  Si21  1  0.98356043  0.29447056  0.24971807  1
  Si  Si22  1  0.30529815  0.28954633  0.74800243  1
  Si  Si23  1  0.00207610  0.70810027  0.74625778  1
  Si  Si24  1  0.95293016  0.33591981  0.58555145  1
  Si  Si25  1  0.96187529  0.63047127  0.08431415  1
  Si  Si26  1  0.38981494  0.33413628  0.09091422  1
  Si  Si27  1  0.63288790  0.67544004  0.91468566  1
  Si  Si28  1  0.62597413  0.95090669  0.41646027  1
  Si  Si29  1  0.33221348  0.36615730  0.41283955  1
  S  S30  1  0.28354604  0.99822537  0.25299454  1
  S  S31  1  0.71592331  0.71356248  0.25318730  1
  S  S32  1  0.71081412  0.00491785  0.75039086  1
  S  S33  1  0.37853295  0.04100871  0.58489356  1
  S  S34  1  0.66616591  0.62289031  0.58466678  1
  S  S35  1  0.66588048  0.04794383  0.08338526  1
  S  S36  1  0.04136023  0.37191273  0.91751278  1
  S  S37  1  0.33764154  0.95396335  0.91727537  1
  S  S38  1  0.04346316  0.67393990  0.41666243  1
  O  O39  1  0.19183995  0.01568814  0.30410734  1
  O  O40  1  0.82110199  0.80018836  0.30533119  1
  O  O41  1  0.96022027  0.19369089  0.31198168  1
  O  O42  1  0.20970025  0.17685705  0.80617833  1
  O  O43  1  0.96366549  0.79726290  0.80338959  1
  O  O44  1  0.81925589  0.02721306  0.80278452  1
  O  O45  1  0.78980055  0.97280948  0.69830664  1
  O  O46  1  0.17702519  0.20595166  0.69219610  1
  O  O47  1  0.01634516  0.82366054  0.68995939  1
  O  O48  1  0.79815771  0.81181034  0.19945981  1
  O  O49  1  0.02379014  0.19438745  0.19746308  1
  O  O50  1  0.18020603  0.97314250  0.19857983  1
  O  O51  1  0.85110640  0.35217126  0.64159090  1
  O  O52  1  0.47866283  0.12399692  0.63757451  1
  O  O53  1  0.63923007  0.52597127  0.63964417  1
  O  O54  1  0.89145561  0.51262928  0.14198524  1
  O  O55  1  0.63749441  0.12376031  0.13606288  1
  O  O56  1  0.49767922  0.34926447  0.15052280  1
  O  O57  1  0.47477735  0.30723565  0.03162659  1
  O  O58  1  0.84426699  0.53453823  0.02634492  1
  O  O59  1  0.69155620  0.15004496  0.03017812  1
  O  O60  1  0.46057855  0.14760394  0.53157816  1
  O  O61  1  0.68213906  0.53216222  0.53356577  1
  O  O62  1  0.84973722  0.32068642  0.52460081  1
  O  O63  1  0.52555713  0.68666586  0.97030301  1
  O  O64  1  0.14527441  0.45980869  0.96964466  1
  O  O65  1  0.31273047  0.85120227  0.96963717  1
  O  O66  1  0.52494261  0.83817117  0.47391199  1
  O  O67  1  0.28760952  0.45689729  0.46829923  1
  O  O68  1  0.14978998  0.69563197  0.46950663  1
  O  O69  1  0.12322636  0.63662501  0.36519980  1
  O  O70  1  0.50363550  0.86496849  0.35950092  1
  O  O71  1  0.35446509  0.48237058  0.35468866  1
  O  O72  1  0.12195498  0.48005743  0.86441239  1
  O  O73  1  0.34846277  0.86613284  0.86400573  1
  O  O74  1  0.52175718  0.65652812  0.85531559  1
  O  O75  1  0.02462966  0.82298090  0.40882676  1
  O  O76  1  0.81855116  0.97009741  0.41169364  1
  O  O77  1  0.15952879  0.17526659  0.40732922  1
  O  O78  1  0.03277212  0.20457838  0.91116549  1
  O  O79  1  0.18357835  0.97968406  0.91198117  1
  O  O80  1  0.82558165  0.84927100  0.91205334  1
  O  O81  1  0.96891358  0.16062916  0.58901979  1
  O  O82  1  0.20085886  0.02280335  0.58670000  1
  O  O83  1  0.82281763  0.79703359  0.58743335  1
  O  O84  1  0.96672487  0.81400788  0.09089161  1
  O  O85  1  0.82019274  0.02512683  0.08986364  1
  O  O86  1  0.19160712  0.16810257  0.09251046  1
  O  O87  1  0.68764247  0.15366898  0.74539200  1
  O  O88  1  0.49757758  0.31254991  0.73835688  1
  O  O89  1  0.82786701  0.51749517  0.74539800  1
  O  O90  1  0.68366373  0.53547836  0.25060596  1
  O  O91  1  0.80591364  0.30436706  0.24067907  1
  O  O92  1  0.45475763  0.15580274  0.24854214  1
  O  O93  1  0.64618333  0.49825437  0.91857739  1
  O  O94  1  0.86362700  0.34595099  0.92182417  1
  O  O95  1  0.49813858  0.12611957  0.92062628  1
  O  O96  1  0.66296112  0.15180246  0.42206630  1
  O  O97  1  0.50893387  0.35987004  0.42319083  1
  O  O98  1  0.87073474  0.51144161  0.42330622  1
  O  O99  1  0.37136895  0.50803360  0.08356555  1
  O  O100  1  0.15797588  0.66128111  0.07405232  1
  O  O101  1  0.50961285  0.87269270  0.07730979  1
  O  O102  1  0.35901188  0.86876300  0.57779400  1
  O  O103  1  0.50933724  0.64304402  0.57795971  1
  O  O104  1  0.14783086  0.50951710  0.58069784  1
  O  O105  1  0.30346323  0.84313287  0.25646163  1
  O  O106  1  0.53753636  0.69902421  0.25541926  1
  O  O107  1  0.16571283  0.48620521  0.25365939  1
  O  O108  1  0.33527344  0.48750135  0.75535215  1
  O  O109  1  0.17608555  0.69336357  0.75505473  1
  O  O110  1  0.53787148  0.84362425  0.75686063  1
