# generated using pymatgen
data_K4PbO3
_symmetry_space_group_name_H-M   'P 1'
_cell_length_a   6.56140652
_cell_length_b   11.43858920
_cell_length_c   18.65744458
_cell_angle_alpha   90.00000000
_cell_angle_beta   90.00000000
_cell_angle_gamma   90.00000000
_symmetry_Int_Tables_number   1
_chemical_formula_structural   K4PbO3
_chemical_formula_sum   'K32 Pb8 O24'
_cell_volume   1400.30154936
_cell_formula_units_Z   8
loop_
 _symmetry_equiv_pos_site_id
 _symmetry_equiv_pos_as_xyz
  1  'x, y, z'
loop_
 _atom_site_type_symbol
 _atom_site_label
 _atom_site_symmetry_multiplicity
 _atom_site_fract_x
 _atom_site_fract_y
 _atom_site_fract_z
 _atom_site_occupancy
  K  K0  1  0.94481822  0.37746177  0.19985369  1
  K  K1  1  0.44481822  0.12253823  0.80014631  1
  K  K2  1  0.05518178  0.87746177  0.30014631  1
  K  K3  1  0.55518178  0.62253823  0.69985369  1
  K  K4  1  0.05518178  0.62253823  0.80014631  1
  K  K5  1  0.55518178  0.87746177  0.19985369  1
  K  K6  1  0.94481822  0.12253823  0.69985369  1
  K  K7  1  0.44481822  0.37746177  0.30014631  1
  K  K8  1  0.76894246  0.18884413  0.94341848  1
  K  K9  1  0.26894246  0.31115587  0.05658152  1
  K  K10  1  0.23105754  0.68884413  0.55658152  1
  K  K11  1  0.73105754  0.81115587  0.44341848  1
  K  K12  1  0.23105754  0.81115587  0.05658152  1
  K  K13  1  0.73105754  0.68884413  0.94341848  1
  K  K14  1  0.76894246  0.31115587  0.44341848  1
  K  K15  1  0.26894246  0.18884413  0.55658152  1
  K  K16  1  0.74814786  0.05568523  0.53430654  1
  K  K17  1  0.24814786  0.44431477  0.46569346  1
  K  K18  1  0.25185214  0.55568523  0.96569346  1
  K  K19  1  0.75185214  0.94431477  0.03430654  1
  K  K20  1  0.25185214  0.94431477  0.46569346  1
  K  K21  1  0.75185214  0.55568523  0.53430654  1
  K  K22  1  0.74814786  0.44431477  0.03430654  1
  K  K23  1  0.24814786  0.05568523  0.96569346  1
  K  K24  1  0.62914390  0.17145901  0.14921111  1
  K  K25  1  0.12914390  0.32854099  0.85078889  1
  K  K26  1  0.37085610  0.67145901  0.35078889  1
  K  K27  1  0.87085610  0.82854099  0.64921111  1
  K  K28  1  0.37085610  0.82854099  0.85078889  1
  K  K29  1  0.87085610  0.67145901  0.14921111  1
  K  K30  1  0.62914390  0.32854099  0.64921111  1
  K  K31  1  0.12914390  0.17145901  0.35078889  1
  Pb  Pb32  1  0.61522820  0.06503519  0.34398161  1
  Pb  Pb33  1  0.11522820  0.43496481  0.65601839  1
  Pb  Pb34  1  0.38477180  0.56503519  0.15601839  1
  Pb  Pb35  1  0.88477180  0.93496481  0.84398161  1
  Pb  Pb36  1  0.38477180  0.93496481  0.65601839  1
  Pb  Pb37  1  0.88477180  0.56503519  0.34398161  1
  Pb  Pb38  1  0.61522820  0.43496481  0.84398161  1
  Pb  Pb39  1  0.11522820  0.06503519  0.15601839  1
  O  O40  1  0.95886799  0.34967935  0.56650952  1
  O  O41  1  0.45886799  0.15032065  0.43349048  1
  O  O42  1  0.04113201  0.84967935  0.93349048  1
  O  O43  1  0.54113201  0.65032065  0.06650952  1
  O  O44  1  0.04113201  0.65032065  0.43349048  1
  O  O45  1  0.54113201  0.84967935  0.56650952  1
  O  O46  1  0.95886799  0.15032065  0.06650952  1
  O  O47  1  0.45886799  0.34967935  0.93349048  1
  O  O48  1  0.54032262  0.39526142  0.15832261  1
  O  O49  1  0.04032262  0.10473858  0.84167739  1
  O  O50  1  0.45967738  0.89526142  0.34167739  1
  O  O51  1  0.95967738  0.60473858  0.65832261  1
  O  O52  1  0.45967738  0.60473858  0.84167739  1
  O  O53  1  0.95967738  0.89526142  0.15832261  1
  O  O54  1  0.54032262  0.10473858  0.65832261  1
  O  O55  1  0.04032262  0.39526142  0.34167739  1
  O  O56  1  0.88806194  0.48756176  0.90128765  1
  O  O57  1  0.38806194  0.01243824  0.09871235  1
  O  O58  1  0.11193806  0.98756176  0.59871235  1
  O  O59  1  0.61193806  0.51243824  0.40128765  1
  O  O60  1  0.11193806  0.51243824  0.09871235  1
  O  O61  1  0.61193806  0.98756176  0.90128765  1
  O  O62  1  0.88806194  0.01243824  0.40128765  1
  O  O63  1  0.38806194  0.48756176  0.59871235  1
