# generated using pymatgen
data_ThCl4
_symmetry_space_group_name_H-M   'P 1'
_cell_length_a   7.13188229
_cell_length_b   7.13188255
_cell_length_c   7.13188135
_cell_angle_alpha   106.50729922
_cell_angle_beta   106.50720463
_cell_angle_gamma   115.57716935
_symmetry_Int_Tables_number   1
_chemical_formula_structural   ThCl4
_chemical_formula_sum   'Th2 Cl8'
_cell_volume   276.84476120
_cell_formula_units_Z   2
loop_
 _symmetry_equiv_pos_site_id
 _symmetry_equiv_pos_as_xyz
  1  'x, y, z'
loop_
 _atom_site_type_symbol
 _atom_site_label
 _atom_site_symmetry_multiplicity
 _atom_site_fract_x
 _atom_site_fract_y
 _atom_site_fract_z
 _atom_site_occupancy
  Th  Th0  1  0.87500011  0.12500016  0.75000080  1
  Th  Th1  1  0.12499992  0.87499985  0.24999921  1
  Cl  Cl2  1  0.19831898  0.26133474  0.56301661  1
  Cl  Cl3  1  0.63530085  0.19831643  0.43698146  1
  Cl  Cl4  1  0.36469913  0.80168359  0.56301849  1
  Cl  Cl5  1  0.80168103  0.73866525  0.43698338  1
  Cl  Cl6  1  0.80168276  0.36469865  0.06301727  1
  Cl  Cl7  1  0.73866529  0.80168327  0.93698413  1
  Cl  Cl8  1  0.19831723  0.63530137  0.93698278  1
  Cl  Cl9  1  0.26133470  0.19831668  0.06301588  1
