# generated using pymatgen
data_Na2Y3TaSi2(SO6)4
_symmetry_space_group_name_H-M   'P 1'
_cell_length_a   9.10931600
_cell_length_b   9.11247154
_cell_length_c   23.94047317
_cell_angle_alpha   90.55579195
_cell_angle_beta   89.75734886
_cell_angle_gamma   119.95675939
_symmetry_Int_Tables_number   1
_chemical_formula_structural   Na2Y3TaSi2(SO6)4
_chemical_formula_sum   'Na6 Y9 Ta3 Si6 S12 O72'
_cell_volume   1721.68557266
_cell_formula_units_Z   3
loop_
 _symmetry_equiv_pos_site_id
 _symmetry_equiv_pos_as_xyz
  1  'x, y, z'
loop_
 _atom_site_type_symbol
 _atom_site_label
 _atom_site_symmetry_multiplicity
 _atom_site_fract_x
 _atom_site_fract_y
 _atom_site_fract_z
 _atom_site_occupancy
  Na  Na0  1  0.00197270  0.97511877  0.49606592  1
  Na  Na1  1  0.99627066  0.95580002  0.99561751  1
  Na  Na2  1  0.63236413  0.32414429  0.83607386  1
  Na  Na3  1  0.70711904  0.34471675  0.32907462  1
  Na  Na4  1  0.29591094  0.64791346  0.15501756  1
  Na  Na5  1  0.32567416  0.64602048  0.67625601  1
  Y  Y6  1  0.99637036  0.99731210  0.35034957  1
  Y  Y7  1  0.01504781  0.00241580  0.85405775  1
  Y  Y8  1  0.01320275  0.01750659  0.65585630  1
  Y  Y9  1  0.99863138  0.99966258  0.14402403  1
  Y  Y10  1  0.65745230  0.33525037  0.68927242  1
  Y  Y11  1  0.68600630  0.34242430  0.18612728  1
  Y  Y12  1  0.67980246  0.34462309  0.47532762  1
  Y  Y13  1  0.33151243  0.67462758  0.01852676  1
  Y  Y14  1  0.32292745  0.66770365  0.51899988  1
  Ta  Ta15  1  0.66807697  0.34528435  0.97783683  1
  Ta  Ta16  1  0.31468960  0.65904279  0.31395698  1
  Ta  Ta17  1  0.34577318  0.66786632  0.82319442  1
  Si  Si18  1  0.99751497  0.29163659  0.25204181  1
  Si  Si19  1  0.30005754  0.31619785  0.75291797  1
  Si  Si20  1  0.95873775  0.62920284  0.08171186  1
  Si  Si21  1  0.62879414  0.66607073  0.92101753  1
  Si  Si22  1  0.34773916  0.96923844  0.91865665  1
  Si  Si23  1  0.03716654  0.67004001  0.41637970  1
  S  S24  1  0.29765404  0.98905445  0.25280012  1
  S  S25  1  0.68731452  0.70186782  0.25278064  1
  S  S26  1  0.01406825  0.70267196  0.75106638  1
  S  S27  1  0.69069337  0.98700444  0.75336963  1
  S  S28  1  0.95933048  0.32673246  0.58337578  1
  S  S29  1  0.37061708  0.04035009  0.58238723  1
  S  S30  1  0.67084571  0.63456420  0.58303004  1
  S  S31  1  0.67066608  0.05066541  0.08031073  1
  S  S32  1  0.38201185  0.32811442  0.08030151  1
  S  S33  1  0.03475421  0.38278832  0.91552183  1
  S  S34  1  0.61668555  0.95146730  0.41471581  1
  S  S35  1  0.33750878  0.38419641  0.41305475  1
  O  O36  1  0.21425005  0.00591730  0.30290911  1
  O  O37  1  0.79687597  0.77818729  0.30205857  1
  O  O38  1  0.98845345  0.19141973  0.30773088  1
  O  O39  1  0.20407223  0.19444324  0.80373281  1
  O  O40  1  0.97906932  0.77728825  0.79985041  1
  O  O41  1  0.79578655  0.01164724  0.80152921  1
  O  O42  1  0.76207473  0.95593976  0.70139995  1
  O  O43  1  0.19388510  0.23925662  0.69435196  1
  O  O44  1  0.03528182  0.80364261  0.69983343  1
  O  O45  1  0.76230169  0.80335843  0.20241547  1
  O  O46  1  0.03245929  0.21386083  0.19577944  1
  O  O47  1  0.19221468  0.94988332  0.20260339  1
  O  O48  1  0.87534913  0.34294543  0.63386956  1
  O  O49  1  0.46856503  0.12803423  0.63312407  1
  O  O50  1  0.65734508  0.53389096  0.63299653  1
  O  O51  1  0.86072973  0.52959355  0.13731357  1
  O  O52  1  0.65173606  0.12768537  0.13231249  1
  O  O53  1  0.47525543  0.33625147  0.13093612  1
  O  O54  1  0.47593750  0.31657066  0.02834778  1
  O  O55  1  0.83680609  0.50917231  0.02544741  1
  O  O56  1  0.67449702  0.15067146  0.03057095  1
  O  O57  1  0.45526263  0.13616828  0.53153339  1
  O  O58  1  0.68288857  0.54745477  0.53166471  1
  O  O59  1  0.86270559  0.31769314  0.53242739  1
  O  O60  1  0.53563581  0.67478640  0.97516880  1
  O  O61  1  0.13244352  0.45264911  0.96642528  1
  O  O62  1  0.31254289  0.85334541  0.97159680  1
  O  O63  1  0.53868904  0.85580370  0.46611497  1
  O  O64  1  0.32586239  0.46525186  0.46497764  1
  O  O65  1  0.14213469  0.67832012  0.47143114  1
  O  O66  1  0.15539258  0.66273436  0.36139343  1
  O  O67  1  0.51575250  0.85612391  0.36467979  1
  O  O68  1  0.35168421  0.49287041  0.36358816  1
  O  O69  1  0.12794465  0.49669543  0.86593914  1
  O  O70  1  0.36468314  0.86135142  0.86204046  1
  O  O71  1  0.49759977  0.63433964  0.86463267  1
  O  O72  1  0.01960042  0.83676291  0.41320280  1
  O  O73  1  0.78904554  0.97636978  0.41099713  1
  O  O74  1  0.18562281  0.21626790  0.40861730  1
  O  O75  1  0.00308149  0.21215768  0.90556007  1
  O  O76  1  0.19643723  0.00900346  0.91043241  1
  O  O77  1  0.81148646  0.82138613  0.90870190  1
  O  O78  1  0.97206755  0.17017868  0.58524299  1
  O  O79  1  0.19711281  0.01820433  0.58568763  1
  O  O80  1  0.82455444  0.80442227  0.58646024  1
  O  O81  1  0.96767252  0.81245529  0.07984130  1
  O  O82  1  0.83151952  0.04667788  0.08153543  1
  O  O83  1  0.21459503  0.17199833  0.07961349  1
  O  O84  1  0.66544776  0.13470080  0.74567800  1
  O  O85  1  0.49392516  0.34951714  0.74779594  1
  O  O86  1  0.87036443  0.52729358  0.74331189  1
  O  O87  1  0.64985100  0.52509946  0.24708719  1
  O  O88  1  0.84505112  0.33454782  0.25098626  1
  O  O89  1  0.46730531  0.13655385  0.24723128  1
  O  O90  1  0.63945220  0.48611479  0.92645268  1
  O  O91  1  0.86824237  0.37927349  0.91887997  1
  O  O92  1  0.53057173  0.15200219  0.92706769  1
  O  O93  1  0.62185822  0.11701831  0.41618986  1
  O  O94  1  0.49245692  0.37018970  0.41333664  1
  O  O95  1  0.85709896  0.49220760  0.41264207  1
  O  O96  1  0.36505648  0.47928884  0.07687828  1
  O  O97  1  0.14088080  0.63919061  0.08105048  1
  O  O98  1  0.52509464  0.87666465  0.07815081  1
  O  O99  1  0.35689596  0.87044835  0.58135465  1
  O  O100  1  0.51659298  0.65059809  0.58035601  1
  O  O101  1  0.13304922  0.47744118  0.58104601  1
  O  O102  1  0.32276239  0.83600023  0.26184351  1
  O  O103  1  0.52111179  0.69580557  0.26363260  1
  O  O104  1  0.17708166  0.48987859  0.26472909  1
  O  O105  1  0.31299356  0.50466781  0.76471915  1
  O  O106  1  0.17174353  0.69357692  0.75887771  1
  O  O107  1  0.51718341  0.83149075  0.76100730  1
