# generated using pymatgen
data_MgMn3TeO8
_symmetry_space_group_name_H-M   'P 1'
_cell_length_a   6.38355447
_cell_length_b   6.39027842
_cell_length_c   6.22321935
_cell_angle_alpha   57.90294876
_cell_angle_beta   57.92643612
_cell_angle_gamma   55.39482787
_symmetry_Int_Tables_number   1
_chemical_formula_structural   MgMn3TeO8
_chemical_formula_sum   'Mg1 Mn3 Te1 O8'
_cell_volume   167.17184982
_cell_formula_units_Z   1
loop_
 _symmetry_equiv_pos_site_id
 _symmetry_equiv_pos_as_xyz
  1  'x, y, z'
loop_
 _atom_site_type_symbol
 _atom_site_label
 _atom_site_symmetry_multiplicity
 _atom_site_fract_x
 _atom_site_fract_y
 _atom_site_fract_z
 _atom_site_occupancy
  Mg  Mg0  1  0.00000000  0.00000000  0.00000000  1
  Mn  Mn1  1  0.00000000  0.50000000  0.50000000  1
  Mn  Mn2  1  0.50000000  0.00000000  0.50000000  1
  Mn  Mn3  1  0.50000000  0.50000000  0.00000000  1
  Te  Te4  1  0.50000000  0.50000000  0.50000000  1
  O  O5  1  0.28403900  0.28423900  0.26037000  1
  O  O6  1  0.24934300  0.24881600  0.71352200  1
  O  O7  1  0.26467100  0.72579000  0.22726300  1
  O  O8  1  0.72605700  0.26486900  0.22704800  1
  O  O9  1  0.27394300  0.73513100  0.77295200  1
  O  O10  1  0.73532900  0.27421000  0.77273700  1
  O  O11  1  0.75065700  0.75118400  0.28647900  1
  O  O12  1  0.71596100  0.71576100  0.73963000  1
