# generated using pymatgen
data_NaLaGaP(SO6)2
_symmetry_space_group_name_H-M   'P 1'
_cell_length_a   8.94434049
_cell_length_b   8.89911571
_cell_length_c   23.73138176
_cell_angle_alpha   90.25498449
_cell_angle_beta   89.52685307
_cell_angle_gamma   119.79173682
_symmetry_Int_Tables_number   1
_chemical_formula_structural   NaLaGaP(SO6)2
_chemical_formula_sum   'Na6 La6 Ga6 P6 S12 O72'
_cell_volume   1639.23636968
_cell_formula_units_Z   6
loop_
 _symmetry_equiv_pos_site_id
 _symmetry_equiv_pos_as_xyz
  1  'x, y, z'
loop_
 _atom_site_type_symbol
 _atom_site_label
 _atom_site_symmetry_multiplicity
 _atom_site_fract_x
 _atom_site_fract_y
 _atom_site_fract_z
 _atom_site_occupancy
  Na  Na0  1  0.99234326  0.99463420  0.49941657  1
  Na  Na1  1  0.00706937  0.98560543  0.99954552  1
  Na  Na2  1  0.65464090  0.30725945  0.82566736  1
  Na  Na3  1  0.65429152  0.31436744  0.34066975  1
  Na  Na4  1  0.31797201  0.67327352  0.16244835  1
  Na  Na5  1  0.34449702  0.67125275  0.65708600  1
  La  La6  1  0.99774519  0.00208750  0.84832957  1
  La  La7  1  0.00791564  0.99260815  0.14816318  1
  La  La8  1  0.66355196  0.33130325  0.18608428  1
  La  La9  1  0.66520367  0.33026935  0.98089083  1
  La  La10  1  0.33659895  0.68285142  0.32773100  1
  La  La11  1  0.34242289  0.68141791  0.80360676  1
  Ga  Ga12  1  0.99650830  0.99775473  0.35624895  1
  Ga  Ga13  1  0.97480642  0.98231006  0.64330112  1
  Ga  Ga14  1  0.66306995  0.32925661  0.67455582  1
  Ga  Ga15  1  0.67532920  0.33455572  0.49046819  1
  Ga  Ga16  1  0.32204032  0.67632201  0.01539456  1
  Ga  Ga17  1  0.38846010  0.68108134  0.51625397  1
  P  P18  1  0.29115739  0.00974659  0.26100970  1
  P  P19  1  0.71559015  0.02608492  0.73682005  1
  P  P20  1  0.66875206  0.61606391  0.58269593  1
  P  P21  1  0.98961892  0.63645193  0.07926521  1
  P  P22  1  0.32234239  0.95164932  0.91924544  1
  P  P23  1  0.65342958  0.98776969  0.42320555  1
  S  S24  1  0.71110152  0.70748612  0.25914546  1
  S  S25  1  0.99631111  0.28751544  0.25890156  1
  S  S26  1  0.30198991  0.28145978  0.73586696  1
  S  S27  1  0.97739499  0.69316880  0.73654588  1
  S  S28  1  0.96116568  0.33378895  0.58308729  1
  S  S29  1  0.37496328  0.03829247  0.58163638  1
  S  S30  1  0.64757027  0.00253467  0.07974466  1
  S  S31  1  0.35736063  0.35720717  0.07913772  1
  S  S32  1  0.61900087  0.67673807  0.92138228  1
  S  S33  1  0.05733516  0.38034466  0.91977643  1
  S  S34  1  0.33935560  0.36171935  0.42470197  1
  S  S35  1  0.02002267  0.66368078  0.42489333  1
  O  O36  1  0.18151677  0.00829126  0.31281081  1
  O  O37  1  0.81039394  0.81022892  0.30867043  1
  O  O38  1  0.98926064  0.18284290  0.30863861  1
  O  O39  1  0.23718436  0.19745069  0.79191650  1
  O  O40  1  0.96053258  0.76269558  0.79188135  1
  O  O41  1  0.80456674  0.04654681  0.79439044  1
  O  O42  1  0.81710894  0.00186413  0.68847996  1
  O  O43  1  0.18630987  0.17985789  0.68967224  1
  O  O44  1  0.00376397  0.81423384  0.68995003  1
  O  O45  1  0.78669538  0.79315062  0.20493209  1
  O  O46  1  -0.00192206  0.20648085  0.20462767  1
  O  O47  1  0.20842240  0.00576182  0.20412661  1
  O  O48  1  0.87753565  0.36132062  0.63375310  1
  O  O49  1  0.48230745  0.11486962  0.63303200  1
  O  O50  1  0.63354573  0.50201298  0.63536073  1
  O  O51  1  0.90073260  0.53909430  0.13466855  1
  O  O52  1  0.62990493  0.08534155  0.13219746  1
  O  O53  1  0.45212837  0.36814043  0.13175710  1
  O  O54  1  0.43916192  0.32485553  0.03006813  1
  O  O55  1  0.88123498  0.54475096  0.02772314  1
  O  O56  1  0.66999762  0.10992334  0.03007614  1
  O  O57  1  0.45716691  0.15079443  0.53167302  1
  O  O58  1  0.69548428  0.53157047  0.52981744  1
  O  O59  1  0.85069524  0.30152398  0.53259945  1
  O  O60  1  0.51802943  0.66933837  0.97205278  1
  O  O61  1  0.15057019  0.47528001  0.97099674  1
  O  O62  1  0.32649773  0.85453727  0.97264564  1
  O  O63  1  0.56269771  0.85206277  0.47210968  1
  O  O64  1  0.30904780  0.45866088  0.47242994  1
  O  O65  1  0.14301208  0.69380944  0.47070907  1
  O  O66  1  0.07554725  0.62328302  0.37062877  1
  O  O67  1  0.54549499  0.92733074  0.36964298  1
  O  O68  1  0.37378446  0.45889749  0.37155832  1
  O  O69  1  0.14671347  0.46382862  0.86692435  1
  O  O70  1  0.32300102  0.85947871  0.86427822  1
  O  O71  1  0.53493724  0.67498484  0.86796384  1
  O  O72  1  0.00425312  0.82381798  0.41739749  1
  O  O73  1  0.83315916  0.00061509  0.41307593  1
  O  O74  1  0.17948574  0.19004733  0.41968642  1
  O  O75  1  0.03720135  0.20471589  0.92363073  1
  O  O76  1  0.15770339  0.96673150  0.92135521  1
  O  O77  1  0.79002028  0.83651017  0.92423518  1
  O  O78  1  0.97848133  0.17367297  0.58892881  1
  O  O79  1  0.19938390  0.01767275  0.58892300  1
  O  O80  1  0.82976711  0.80265377  0.58938613  1
  O  O81  1  0.02105243  0.82311528  0.07841386  1
  O  O82  1  0.79827595  0.97807070  0.08213857  1
  O  O83  1  0.17815075  0.21185751  0.08150894  1
  O  O84  1  0.69882139  0.19033513  0.72923200  1
  O  O85  1  0.47671414  0.30013540  0.73056871  1
  O  O86  1  0.81906326  0.52357590  0.73024088  1
  O  O87  1  0.70519667  0.53799825  0.26050155  1
  O  O88  1  0.83908071  0.30513373  0.26053548  1
  O  O89  1  0.47070503  0.17456576  0.26222195  1
  O  O90  1  0.64367450  0.52419877  0.91858132  1
  O  O91  1  0.88422789  0.36373304  0.91686885  1
  O  O92  1  0.48474957  0.13271398  0.91576119  1
  O  O93  1  0.67248097  0.16542564  0.43870670  1
  O  O94  1  0.49040586  0.33925643  0.43548908  1
  O  O95  1  0.84485412  0.51190437  0.43522153  1
  O  O96  1  0.35802670  0.52153698  0.07301435  1
  O  O97  1  0.16629207  0.64507511  0.07585408  1
  O  O98  1  0.48876977  0.83324885  0.07502193  1
  O  O99  1  0.35971367  0.86211407  0.57348122  1
  O  O100  1  0.50428109  0.63909663  0.57511956  1
  O  O101  1  0.13375447  0.48918690  0.57615141  1
  O  O102  1  0.30846774  0.84549246  0.26015525  1
  O  O103  1  0.53443434  0.68076571  0.26007224  1
  O  O104  1  0.15323424  0.45972445  0.26015456  1
  O  O105  1  0.31902787  0.45635206  0.73700792  1
  O  O106  1  0.13105921  0.67078923  0.73705844  1
  O  O107  1  0.53403878  0.86315107  0.73661259  1
