# generated using pymatgen
data_Al7(TlS4)3
_symmetry_space_group_name_H-M   'P 1'
_cell_length_a   12.45791197
_cell_length_b   9.12346657
_cell_length_c   9.63630231
_cell_angle_alpha   83.96901155
_cell_angle_beta   90.00000000
_cell_angle_gamma   90.00000000
_symmetry_Int_Tables_number   1
_chemical_formula_structural   Al7(TlS4)3
_chemical_formula_sum   'Al14 Tl6 S24'
_cell_volume   1089.19378786
_cell_formula_units_Z   2
loop_
 _symmetry_equiv_pos_site_id
 _symmetry_equiv_pos_as_xyz
  1  'x, y, z'
loop_
 _atom_site_type_symbol
 _atom_site_label
 _atom_site_symmetry_multiplicity
 _atom_site_fract_x
 _atom_site_fract_y
 _atom_site_fract_z
 _atom_site_occupancy
  Al  Al0  1  0.28458747  0.03161958  0.02912074  1
  Al  Al1  1  0.78458747  0.96838042  0.97087926  1
  Al  Al2  1  0.76576889  0.28861213  0.19338389  1
  Al  Al3  1  0.26576889  0.71138787  0.80661611  1
  Al  Al4  1  0.37223925  0.69517860  0.17870495  1
  Al  Al5  1  0.87223925  0.30482140  0.82129505  1
  Al  Al6  1  0.76653185  0.48014926  0.48004590  1
  Al  Al7  1  0.26653185  0.51985074  0.51995410  1
  Al  Al8  1  0.67181453  0.66749238  0.17463608  1
  Al  Al9  1  0.17181453  0.33250762  0.82536392  1
  Al  Al10  1  0.53880691  0.01941075  0.20087347  1
  Al  Al11  1  0.03880691  0.98058925  0.79912653  1
  Al  Al12  1  0.51390500  0.36986728  0.35992300  1
  Al  Al13  1  0.01390500  0.63013272  0.64007700  1
  Tl  Tl14  1  0.25129099  0.03823692  0.47846032  1
  Tl  Tl15  1  0.75129099  0.96176308  0.52153968  1
  Tl  Tl16  1  0.02769107  0.12022762  0.23155959  1
  Tl  Tl17  1  0.52769107  0.87977238  0.76844041  1
  Tl  Tl18  1  0.02520183  0.61974479  0.16530281  1
  Tl  Tl19  1  0.52520183  0.38025521  0.83469719  1
  S  S20  1  0.96077123  0.92781418  0.00551253  1
  S  S21  1  0.20397047  0.24654334  0.04636759  1
  S  S22  1  0.30879058  0.32738395  0.67729155  1
  S  S23  1  0.80879058  0.67261605  0.32270845  1
  S  S24  1  0.70397047  0.75345666  0.95363241  1
  S  S25  1  0.61330481  0.42826966  0.15829407  1
  S  S26  1  0.84578723  0.52686331  0.68842909  1
  S  S27  1  0.34578723  0.47313669  0.31157091  1
  S  S28  1  0.33109487  0.72828869  0.59129240  1
  S  S29  1  0.83109487  0.27171131  0.40870760  1
  S  S30  1  0.59191669  0.47173248  0.53183771  1
  S  S31  1  0.09191669  0.52826752  0.46816229  1
  S  S32  1  0.39634492  0.64476156  0.95758577  1
  S  S33  1  0.89634492  0.35523844  0.04241423  1
  S  S34  1  0.74462534  0.13903180  0.79359163  1
  S  S35  1  0.24462534  0.86096820  0.20640837  1
  S  S36  1  0.52779581  0.77414217  0.27286195  1
  S  S37  1  0.02779581  0.22585783  0.72713805  1
  S  S38  1  0.72094218  0.04904827  0.17443336  1
  S  S39  1  0.22094218  0.95095173  0.82556664  1
  S  S40  1  0.49377510  0.12466529  0.39139853  1
  S  S41  1  0.99377510  0.87533471  0.60860147  1
  S  S42  1  0.11330481  0.57173034  0.84170593  1
  S  S43  1  0.46077123  0.07218582  0.99448747  1
