# generated using pymatgen
data_Na2Hf4Zn4SiS11O48
_symmetry_space_group_name_H-M   'P 1'
_cell_length_a   17.60429389
_cell_length_b   8.82179489
_cell_length_c   22.86545621
_cell_angle_alpha   89.82326555
_cell_angle_beta   89.97623387
_cell_angle_gamma   119.95986450
_symmetry_Int_Tables_number   1
_chemical_formula_structural   Na2Hf4Zn4SiS11O48
_chemical_formula_sum   'Na6 Hf12 Zn12 Si3 S33 O144'
_cell_volume   3076.51046700
_cell_formula_units_Z   3
loop_
 _symmetry_equiv_pos_site_id
 _symmetry_equiv_pos_as_xyz
  1  'x, y, z'
loop_
 _atom_site_type_symbol
 _atom_site_label
 _atom_site_symmetry_multiplicity
 _atom_site_fract_x
 _atom_site_fract_y
 _atom_site_fract_z
 _atom_site_occupancy
  Na  Na0  1  0.99639923  0.98777694  0.49214450  1
  Na  Na1  1  0.49857299  0.00279324  0.99976386  1
  Na  Na2  1  0.33186562  0.32720432  0.83638001  1
  Na  Na3  1  0.84019999  0.34126987  0.83213174  1
  Na  Na4  1  0.33648547  0.33257982  0.33064882  1
  Na  Na5  1  0.83909739  0.34015658  0.33963285  1
  Hf  Hf6  1  0.49955720  0.00864718  0.35566459  1
  Hf  Hf7  1  0.49677987  0.00497860  0.85465464  1
  Hf  Hf8  1  0.99971154  0.99593227  0.64905070  1
  Hf  Hf9  1  0.50053501  0.00209247  0.64033120  1
  Hf  Hf10  1  0.00087541  0.00176012  0.14547615  1
  Hf  Hf11  1  0.50031401  0.00838678  0.14934094  1
  Hf  Hf12  1  0.16381822  0.66464871  0.01900128  1
  Hf  Hf13  1  0.66434521  0.65587396  0.02135055  1
  Hf  Hf14  1  0.16102157  0.66658908  0.52046572  1
  Hf  Hf15  1  0.15853057  0.66123430  0.31278340  1
  Hf  Hf16  1  0.66635141  0.66259996  0.31159448  1
  Hf  Hf17  1  0.66425761  0.65947927  0.81186682  1
  Zn  Zn18  1  0.99758386  0.98656686  0.35576031  1
  Zn  Zn19  1  0.00479494  0.00376306  0.85353572  1
  Zn  Zn20  1  0.33097814  0.33089316  0.68248378  1
  Zn  Zn21  1  0.83573808  0.33757896  0.67954614  1
  Zn  Zn22  1  0.33766989  0.33035328  0.18576816  1
  Zn  Zn23  1  0.83514514  0.33502499  0.18391848  1
  Zn  Zn24  1  0.33556832  0.32852700  0.97970948  1
  Zn  Zn25  1  0.83883011  0.33875747  0.98295379  1
  Zn  Zn26  1  0.33672179  0.33918910  0.48414518  1
  Zn  Zn27  1  0.83776868  0.34103776  0.47994750  1
  Zn  Zn28  1  0.66932804  0.67245062  0.52141395  1
  Zn  Zn29  1  0.16102664  0.66216455  0.81157547  1
  Si  Si30  1  0.49535450  0.29494153  0.25036662  1
  Si  Si31  1  0.51617486  0.37603124  0.91726755  1
  Si  Si32  1  0.01341255  0.66572962  0.41717179  1
  S  S33  1  0.14565031  0.00551271  0.25098164  1
  S  S34  1  0.64790690  0.00546965  0.25040061  1
  S  S35  1  0.35418310  0.70683746  0.25112768  1
  S  S36  1  0.85635463  0.70627359  0.25034353  1
  S  S37  1  0.99691409  0.28477155  0.25132697  1
  S  S38  1  0.14764449  0.29346202  0.75171125  1
  S  S39  1  0.64706181  0.28762518  0.74925447  1
  S  S40  1  0.99847771  0.70407317  0.75244388  1
  S  S41  1  0.49809347  0.70780434  0.74962541  1
  S  S42  1  0.35246097  -0.00020909  0.74873468  1
  S  S43  1  0.85594930  0.00704825  0.75205663  1
  S  S44  1  0.47886514  0.34156928  0.58310075  1
  S  S45  1  0.97701257  0.32922408  0.58392345  1
  S  S46  1  0.18989386  0.04737018  0.58323406  1
  S  S47  1  0.69239404  0.04460119  0.58276312  1
  S  S48  1  0.33229664  0.61854758  0.58322510  1
  S  S49  1  0.83116665  0.62209393  0.58343379  1
  S  S50  1  0.47686182  0.62382641  0.08262002  1
  S  S51  1  0.97642894  0.62074212  0.08368359  1
  S  S52  1  0.33246969  0.04261127  0.08250932  1
  S  S53  1  0.83292134  0.04699385  0.08360774  1
  S  S54  1  0.19222177  0.33494254  0.08329497  1
  S  S55  1  0.69067926  0.33037074  0.08291236  1
  S  S56  1  0.30901726  0.66024339  0.91513962  1
  S  S57  1  0.81412818  0.66741119  0.91642849  1
  S  S58  1  0.01919670  0.37252377  0.91480704  1
  S  S59  1  0.16590568  0.95786807  0.91426967  1
  S  S60  1  0.66912667  0.96013731  0.91639252  1
  S  S61  1  0.31028434  0.95892758  0.41683280  1
  S  S62  1  0.81132498  0.95784127  0.41774674  1
  S  S63  1  0.16886514  0.37638890  0.41678564  1
  S  S64  1  0.66818708  0.37862708  0.41854168  1
  S  S65  1  0.52035745  0.66254544  0.41777316  1
  O  O66  1  0.10444425  0.03033377  0.30236200  1
  O  O67  1  0.60332309  0.02689766  0.30231057  1
  O  O68  1  0.41114164  0.79285908  0.30278813  1
  O  O69  1  0.91003891  0.78613872  0.30172694  1
  O  O70  1  0.48520632  0.16635596  0.30608573  1
  O  O71  1  0.98528536  0.17892036  0.30302324  1
  O  O72  1  0.10717662  0.18120377  0.80328453  1
  O  O73  1  0.60279243  0.17738783  0.80219940  1
  O  O74  1  0.48737884  0.79437144  0.80255783  1
  O  O75  1  0.98280395  0.78612881  0.80357147  1
  O  O76  1  0.41106829  0.02662122  0.80180909  1
  O  O77  1  0.90970788  0.03147836  0.80369879  1
  O  O78  1  0.39925476  0.97756172  0.69764348  1
  O  O79  1  0.89625428  0.97615390  0.69844258  1
  O  O80  1  0.09069196  0.20268223  0.69821465  1
  O  O81  1  0.59045213  0.20564988  0.69785627  1
  O  O82  1  0.01027305  0.81726139  0.69854494  1
  O  O83  1  0.51195577  0.82026906  0.69779330  1
  O  O84  1  0.39714729  0.81785562  0.19797768  1
  O  O85  1  0.89760602  0.81868241  0.19658241  1
  O  O86  1  0.01102042  0.20248200  0.19741225  1
  O  O87  1  0.51378998  0.20049363  0.19379141  1
  O  O88  1  0.08875041  0.97244832  0.19727954  1
  O  O89  1  0.59182292  0.97280110  0.19741602  1
  O  O90  1  0.43858508  0.36507682  0.63640893  1
  O  O91  1  0.94249986  0.36233161  0.63713759  1
  O  O92  1  0.24079396  0.11986102  0.63640890  1
  O  O93  1  0.74324460  0.12183300  0.63675628  1
  O  O94  1  0.31705042  0.51469243  0.63635949  1
  O  O95  1  0.81919097  0.52024061  0.63759341  1
  O  O96  1  0.44159301  0.52117493  0.13577388  1
  O  O97  1  0.94083841  0.51490429  0.13618713  1
  O  O98  1  0.31652424  0.11206453  0.13547867  1
  O  O99  1  0.81643680  0.11969120  0.13627912  1
  O  O100  1  0.24418345  0.36749894  0.13620875  1
  O  O101  1  0.74078078  0.35680718  0.13623824  1
  O  O102  1  0.22738564  0.30021970  0.03066994  1
  O  O103  1  0.72773368  0.30185818  0.02959339  1
  O  O104  1  0.42434314  0.55109393  0.03000002  1
  O  O105  1  0.92382813  0.55149706  0.03101509  1
  O  O106  1  0.35089047  0.14892664  0.03006428  1
  O  O107  1  0.85075984  0.15371371  0.03086891  1
  O  O108  1  0.22583842  0.15243256  0.53018263  1
  O  O109  1  0.72754708  0.15644443  0.53098833  1
  O  O110  1  0.35094427  0.54907331  0.53082504  1
  O  O111  1  0.85199476  0.55186775  0.53175479  1
  O  O112  1  0.42266323  0.29719051  0.53099093  1
  O  O113  1  0.92445640  0.29530471  0.53151753  1
  O  O114  1  0.27075194  0.69543632  0.96901935  1
  O  O115  1  0.77010089  0.69237942  0.96913344  1
  O  O116  1  0.07557709  0.46303034  0.96887093  1
  O  O117  1  0.58147968  0.46808075  0.97355511  1
  O  O118  1  0.15527663  0.84422183  0.96871161  1
  O  O119  1  0.65460897  0.85057570  0.96913811  1
  O  O120  1  0.27098158  0.84917955  0.46957527  1
  O  O121  1  0.77133256  0.84707962  0.46972082  1
  O  O122  1  0.15899951  0.46674555  0.46957624  1
  O  O123  1  0.65016138  0.45268343  0.46966893  1
  O  O124  1  0.08035918  0.69020496  0.47287135  1
  O  O125  1  0.57357425  0.69381648  0.46978886  1
  O  O126  1  0.06710924  0.64109319  0.36045575  1
  O  O127  1  0.56389888  0.63946974  0.36426390  1
  O  O128  1  0.25706637  0.87233948  0.36395895  1
  O  O129  1  0.75675982  0.86872347  0.36393888  1
  O  O130  1  0.18266389  0.48988231  0.36376651  1
  O  O131  1  0.67946916  0.48724949  0.36452528  1
  O  O132  1  0.05972508  0.48561890  0.86378247  1
  O  O133  1  0.56917887  0.49667441  0.85979048  1
  O  O134  1  0.18228313  0.87611790  0.86340533  1
  O  O135  1  0.68088984  0.87603788  0.86347686  1
  O  O136  1  0.25852983  0.64353946  0.86289083  1
  O  O137  1  0.75605973  0.64158494  0.86421613  1
  O  O138  1  0.01399536  0.84779578  0.41387077  1
  O  O139  1  0.51140495  0.81971104  0.40605627  1
  O  O140  1  0.39721768  0.96968675  0.40993489  1
  O  O141  1  0.89972816  0.97975245  0.41024818  1
  O  O142  1  0.08835053  0.20888343  0.41131653  1
  O  O143  1  0.58823163  0.20121799  0.40788729  1
  O  O144  1  0.01294658  0.20190326  0.91078744  1
  O  O145  1  0.51280088  0.18469550  0.90987294  1
  O  O146  1  0.08512034  0.96577218  0.91069910  1
  O  O147  1  0.58706362  0.97039165  0.90912316  1
  O  O148  1  0.39981028  0.82411373  0.91043925  1
  O  O149  1  0.89892378  0.82429315  0.90898930  1
  O  O150  1  0.48745925  0.17805312  0.59354806  1
  O  O151  1  0.99027573  0.17363510  0.59243023  1
  O  O152  1  0.09863060  0.02090583  0.59100514  1
  O  O153  1  0.60119449  0.02599103  0.59399496  1
  O  O154  1  0.41104847  0.79848182  0.59280950  1
  O  O155  1  0.91323769  0.80524650  0.59285087  1
  O  O156  1  0.49078940  0.80656335  0.08994687  1
  O  O157  1  0.98926587  0.80066569  0.09325198  1
  O  O158  1  0.41109786  0.01448054  0.08987472  1
  O  O159  1  0.91129219  0.02353464  0.09356626  1
  O  O160  1  0.10091047  0.18016692  0.09362519  1
  O  O161  1  0.59933493  0.17256214  0.08872692  1
  O  O162  1  0.34803337  0.16061208  0.74390580  1
  O  O163  1  0.84390175  0.15832628  0.74335970  1
  O  O164  1  0.23516221  0.30947772  0.74284186  1
  O  O165  1  0.73351519  0.30616688  0.74454594  1
  O  O166  1  0.42179467  0.53400656  0.74418241  1
  O  O167  1  0.91938436  0.52979713  0.74360084  1
  O  O168  1  0.34424858  0.53423541  0.24444233  1
  O  O169  1  0.84405220  0.53042976  0.24148800  1
  O  O170  1  0.40947737  0.31083420  0.24604162  1
  O  O171  1  0.92126534  0.30984153  0.24272000  1
  O  O172  1  0.23193456  0.15823172  0.24165061  1
  O  O173  1  0.73378666  0.16112155  0.24366194  1
  O  O174  1  0.32006323  0.50978855  0.92366111  1
  O  O175  1  0.81808539  0.50514927  0.92235716  1
  O  O176  1  0.42149316  0.35557574  0.92044697  1
  O  O177  1  0.93176405  0.35763916  0.92364437  1
  O  O178  1  0.24338936  0.13138073  0.92347388  1
  O  O179  1  0.74533544  0.13485385  0.92210517  1
  O  O180  1  0.32065984  0.13286335  0.42223525  1
  O  O181  1  0.81504648  0.12799432  0.42123139  1
  O  O182  1  0.24814709  0.36135995  0.42236328  1
  O  O183  1  0.74408943  0.35559943  0.42143615  1
  O  O184  1  0.43224455  0.50602661  0.42122945  1
  O  O185  1  0.92200300  0.48645436  0.42048308  1
  O  O186  1  0.17783591  0.48837223  0.07304947  1
  O  O187  1  0.67944197  0.48766719  0.07623978  1
  O  O188  1  0.06654701  0.64556906  0.07422415  1
  O  O189  1  0.56810524  0.65015938  0.07385479  1
  O  O190  1  0.25526932  0.86184780  0.07289660  1
  O  O191  1  0.75662885  0.86837701  0.07397664  1
  O  O192  1  0.17967657  0.86918630  0.57563354  1
  O  O193  1  0.67693533  0.86721124  0.57575413  1
  O  O194  1  0.25642497  0.64551346  0.57408777  1
  O  O195  1  0.75592767  0.64736523  0.57620728  1
  O  O196  1  0.06779509  0.48346238  0.57551355  1
  O  O197  1  0.56668040  0.48919891  0.57506300  1
  O  O198  1  0.15405113  0.84463528  0.25649859  1
  O  O199  1  0.65507002  0.84722602  0.25833202  1
  O  O200  1  0.26943119  0.69908105  0.25855951  1
  O  O201  1  0.76924118  0.69529019  0.25641795  1
  O  O202  1  0.07938216  0.45990261  0.25548838  1
  O  O203  1  0.58516555  0.47982945  0.26067562  1
  O  O204  1  0.15373164  0.46441111  0.75631842  1
  O  O205  1  0.65382168  0.46134552  0.75712367  1
  O  O206  1  0.07870513  0.69417568  0.75606376  1
  O  O207  1  0.57995943  0.69899632  0.75708746  1
  O  O208  1  0.26872784  0.84202921  0.75705180  1
  O  O209  1  0.76832210  0.84451852  0.75859656  1
