# generated using pymatgen
data_Na4Mg(FeO2)4
_symmetry_space_group_name_H-M   'P 1'
_cell_length_a   5.39812947
_cell_length_b   5.88909449
_cell_length_c   7.34891837
_cell_angle_alpha   86.93382608
_cell_angle_beta   87.85370527
_cell_angle_gamma   85.36786290
_symmetry_Int_Tables_number   1
_chemical_formula_structural   Na4Mg(FeO2)4
_chemical_formula_sum   'Na4 Mg1 Fe4 O8'
_cell_volume   232.39751623
_cell_formula_units_Z   1
loop_
 _symmetry_equiv_pos_site_id
 _symmetry_equiv_pos_as_xyz
  1  'x, y, z'
loop_
 _atom_site_type_symbol
 _atom_site_label
 _atom_site_symmetry_multiplicity
 _atom_site_fract_x
 _atom_site_fract_y
 _atom_site_fract_z
 _atom_site_occupancy
  Na  Na0  1  0.43700000  0.97647100  0.42061500  1
  Na  Na1  1  0.94904500  0.06046400  0.64540700  1
  Na  Na2  1  0.00349700  0.56477500  0.85758300  1
  Na  Na3  1  0.47754300  0.34362800  0.06730600  1
  Mg  Mg4  1  0.66323300  0.72940500  0.17386100  1
  Fe  Fe5  1  0.05282300  0.55269700  0.37837600  1
  Fe  Fe6  1  0.52307800  0.45475300  0.60653500  1
  Fe  Fe7  1  0.46392700  0.93263400  0.85298900  1
  Fe  Fe8  1  0.99546200  0.07500300  0.13863900  1
  O  O9  1  0.87429800  0.89234100  0.34492600  1
  O  O10  1  0.39378000  0.16642400  0.66379800  1
  O  O11  1  0.42295800  0.61164900  0.82218200  1
  O  O12  1  0.90087600  0.40490500  0.14697700  1
  O  O13  1  0.42282300  0.57542200  0.36346600  1
  O  O14  1  0.87114500  0.43816900  0.59546800  1
  O  O15  1  0.82865300  0.92363400  0.95769300  1
  O  O16  1  0.34699800  0.99554400  0.12159000  1
