# generated using pymatgen
data_MgFe2S2(O4F)2
_symmetry_space_group_name_H-M   'P 1'
_cell_length_a   5.66714186
_cell_length_b   5.20485279
_cell_length_c   7.63920974
_cell_angle_alpha   68.06233849
_cell_angle_beta   68.53006980
_cell_angle_gamma   85.46328410
_symmetry_Int_Tables_number   1
_chemical_formula_structural   MgFe2S2(O4F)2
_chemical_formula_sum   'Mg1 Fe2 S2 O8 F2'
_cell_volume   194.07723341
_cell_formula_units_Z   1
loop_
 _symmetry_equiv_pos_site_id
 _symmetry_equiv_pos_as_xyz
  1  'x, y, z'
loop_
 _atom_site_type_symbol
 _atom_site_label
 _atom_site_symmetry_multiplicity
 _atom_site_fract_x
 _atom_site_fract_y
 _atom_site_fract_z
 _atom_site_occupancy
  Mg  Mg0  1  0.58612500  0.43132700  0.35162000  1
  Fe  Fe1  1  0.98918100  0.49599300  0.51889600  1
  Fe  Fe2  1  0.01471600  0.01298300  0.98600100  1
  S  S3  1  0.62074300  0.92119400  0.74117900  1
  S  S4  1  0.37534500  0.07246800  0.25615900  1
  O  O5  1  0.74120900  0.77499300  0.60189500  1
  O  O6  1  0.25793200  0.19761600  0.41581100  1
  O  O7  1  0.66145000  0.23268800  0.60600600  1
  O  O8  1  0.35670000  0.75932500  0.35406900  1
  O  O9  1  0.34659400  0.84513300  0.83757300  1
  O  O10  1  0.65014500  0.17726600  0.17237800  1
  O  O11  1  0.74014500  0.87300800  0.89205500  1
  O  O12  1  0.25226800  0.15898100  0.10863400  1
  F  F13  1  0.90966100  0.64200300  0.24274500  1
  F  F14  1  0.08111900  0.37169000  0.76021500  1
