# generated using pymatgen
data_Na2La4In4SiS11O48
_symmetry_space_group_name_H-M   'P 1'
_cell_length_a   18.37244726
_cell_length_b   9.21977089
_cell_length_c   24.37219450
_cell_angle_alpha   90.01337355
_cell_angle_beta   89.99815898
_cell_angle_gamma   120.10759008
_symmetry_Int_Tables_number   1
_chemical_formula_structural   Na2La4In4SiS11O48
_chemical_formula_sum   'Na6 La12 In12 Si3 S33 O144'
_cell_volume   3571.41673920
_cell_formula_units_Z   3
loop_
 _symmetry_equiv_pos_site_id
 _symmetry_equiv_pos_as_xyz
  1  'x, y, z'
loop_
 _atom_site_type_symbol
 _atom_site_label
 _atom_site_symmetry_multiplicity
 _atom_site_fract_x
 _atom_site_fract_y
 _atom_site_fract_z
 _atom_site_occupancy
  Na  Na0  1  0.00265684  0.98141741  0.49464153  1
  Na  Na1  1  0.50144685  0.02411959  0.99584512  1
  Na  Na2  1  0.34476805  0.33554223  0.83704982  1
  Na  Na3  1  0.84302385  0.35584822  0.82913581  1
  Na  Na4  1  0.33014471  0.32865563  0.33511561  1
  Na  Na5  1  0.84857270  0.35785074  0.33357776  1
  La  La6  1  0.99929044  0.99124477  0.85648715  1
  La  La7  1  0.49978417  0.00848448  0.85700439  1
  La  La8  1  0.99946489  0.98659442  0.65122865  1
  La  La9  1  0.50072783  0.00197439  0.64075351  1
  La  La10  1  0.33751454  0.33660829  0.68248422  1
  La  La11  1  0.83909762  0.35149990  0.68256405  1
  La  La12  1  0.34083657  0.33569049  0.98478279  1
  La  La13  1  0.83985111  0.34584534  0.47475510  1
  La  La14  1  0.66117817  0.65395517  0.02472042  1
  La  La15  1  0.16011378  0.67057707  0.51195789  1
  La  La16  1  0.15695768  0.66085462  0.81117554  1
  La  La17  1  0.66449967  0.66053135  0.81866319  1
  In  In18  1  0.00123214  0.99450854  0.34727800  1
  In  In19  1  0.50060918  -0.00007396  0.35061903  1
  In  In20  1  0.99888784  0.99764760  0.14901605  1
  In  In21  1  0.50031288  0.00242095  0.15612426  1
  In  In22  1  0.32655533  0.32646879  0.18153192  1
  In  In23  1  0.84087603  0.34099897  0.18485414  1
  In  In24  1  0.83527804  0.33555048  0.98947730  1
  In  In25  1  0.33481702  0.33498106  0.47871085  1
  In  In26  1  0.16425325  0.66229342  0.02254073  1
  In  In27  1  0.66531635  0.66868076  0.51179555  1
  In  In28  1  0.16663541  0.66860702  0.31512691  1
  In  In29  1  0.66306486  0.66330025  0.31153963  1
  Si  Si30  1  0.99285773  0.69116535  0.75168311  1
  Si  Si31  1  0.51306483  0.36330472  0.91873520  1
  Si  Si32  1  0.01876233  0.67642695  0.40661578  1
  S  S33  1  0.14899839  0.00693692  0.24740404  1
  S  S34  1  0.64704003  0.00318632  0.25268081  1
  S  S35  1  0.35309370  0.70522827  0.25307395  1
  S  S36  1  0.85244625  0.70360827  0.24846321  1
  S  S37  1  0.99884377  0.28550069  0.25089862  1
  S  S38  1  0.49776364  0.29106053  0.25071330  1
  S  S39  1  0.15529866  0.29853626  0.75132374  1
  S  S40  1  0.64925289  0.29608048  0.74946235  1
  S  S41  1  0.49892409  0.70269042  0.75102236  1
  S  S42  1  0.35169737  0.00379820  0.74958363  1
  S  S43  1  0.84901989  0.00566906  0.75161420  1
  S  S44  1  0.48486593  0.34848918  0.57313322  1
  S  S45  1  0.98502139  0.32532577  0.58015591  1
  S  S46  1  0.18784178  0.04955895  0.57545320  1
  S  S47  1  0.68700704  0.02101416  0.57783117  1
  S  S48  1  0.33319339  0.62083117  0.57569597  1
  S  S49  1  0.82457121  0.63849152  0.57620087  1
  S  S50  1  0.47629681  0.64041678  0.09395983  1
  S  S51  1  0.98024848  0.63044717  0.08545474  1
  S  S52  1  0.33452662  0.02654598  0.08916809  1
  S  S53  1  0.84213447  0.05849327  0.08862817  1
  S  S54  1  0.18060810  0.33258863  0.08763039  1
  S  S55  1  0.68701246  0.31139370  0.08948872  1
  S  S56  1  0.30944811  0.66646931  0.92348363  1
  S  S57  1  0.81495708  0.64398182  0.92258518  1
  S  S58  1  0.01389610  0.37639608  0.92638630  1
  S  S59  1  0.16743199  0.95342225  0.92420722  1
  S  S60  1  0.67729314  0.98535237  0.92284185  1
  S  S61  1  0.32131740  0.97669969  0.41035784  1
  S  S62  1  0.80948647  0.94314958  0.41079124  1
  S  S63  1  0.17063548  0.36558258  0.41113758  1
  S  S64  1  0.65854191  0.37483604  0.41013055  1
  S  S65  1  0.51975567  0.66686815  0.41291699  1
  O  O66  1  0.11241566  0.04274425  0.29643465  1
  O  O67  1  0.60808827  0.03574216  0.30160810  1
  O  O68  1  0.40956076  0.78234380  0.30173214  1
  O  O69  1  0.90668552  0.77869598  0.29731330  1
  O  O70  1  0.48246995  0.18137792  0.29909470  1
  O  O71  1  0.98158850  0.17579806  0.30041402  1
  O  O72  1  0.11035439  0.20268198  0.80086479  1
  O  O73  1  0.60587705  0.19855561  0.79920431  1
  O  O74  1  0.49256513  0.78571702  0.80133352  1
  O  O75  1  0.98901254  0.79414614  0.80468274  1
  O  O76  1  0.40116710  0.01812156  0.79918997  1
  O  O77  1  0.90053113  0.02416681  0.80105841  1
  O  O78  1  0.39701357  0.00423496  0.69912679  1
  O  O79  1  0.89286334  0.00059247  0.70106859  1
  O  O80  1  0.10868097  0.21517767  0.70065168  1
  O  O81  1  0.60089868  0.20797621  0.69943887  1
  O  O82  1  0.99446371  0.78175812  0.69387648  1
  O  O83  1  0.49744345  0.79337232  0.70108507  1
  O  O84  1  0.39038404  0.81087111  0.20325154  1
  O  O85  1  0.89063068  0.80702074  0.19838523  1
  O  O86  1  0.00833743  0.20469839  0.20084900  1
  O  O87  1  0.51409201  0.21842353  0.20034017  1
  O  O88  1  0.09648830  0.98067934  0.19766181  1
  O  O89  1  0.59390499  0.97177582  0.20287871  1
  O  O90  1  0.44914767  0.37616515  0.62405990  1
  O  O91  1  0.94337370  0.33369567  0.63114602  1
  O  O92  1  0.23235305  0.13419424  0.62663572  1
  O  O93  1  0.73587702  0.09500546  0.62859440  1
  O  O94  1  0.32380898  0.52409394  0.62660557  1
  O  O95  1  0.81575508  0.54732208  0.62794360  1
  O  O96  1  0.43154408  0.52813178  0.14161374  1
  O  O97  1  0.94416667  0.52103466  0.13496094  1
  O  O98  1  0.32008072  0.10922369  0.13757159  1
  O  O99  1  0.82694386  0.13519317  0.13832117  1
  O  O100  1  0.23702411  0.36897235  0.13683142  1
  O  O101  1  0.73846541  0.33060005  0.13891952  1
  O  O102  1  0.21697813  0.29722015  0.03906902  1
  O  O103  1  0.72454144  0.28525777  0.03871303  1
  O  O104  1  0.42832077  0.57320469  0.04258876  1
  O  O105  1  0.92396153  0.55550201  0.03705559  1
  O  O106  1  0.35361742  0.13166688  0.03944624  1
  O  O107  1  0.85701875  0.16506670  0.03908049  1
  O  O108  1  0.23375165  0.15008634  0.52610169  1
  O  O109  1  0.72844383  0.12900759  0.52969995  1
  O  O110  1  0.34453723  0.53561139  0.52693170  1
  O  O111  1  0.83553674  0.54916545  0.52923962  1
  O  O112  1  0.42904462  0.32041660  0.52518336  1
  O  O113  1  0.93391713  0.31742280  0.53168908  1
  O  O114  1  0.26459361  0.67529633  0.97329847  1
  O  O115  1  0.76980861  0.65776822  0.97058122  1
  O  O116  1  0.06670800  0.46387007  0.97503312  1
  O  O117  1  0.56273017  0.46466363  0.97444303  1
  O  O118  1  0.16435261  0.85692203  0.97414065  1
  O  O119  1  0.67037013  0.88204735  0.97092508  1
  O  O120  1  0.28601240  0.87895959  0.46086392  1
  O  O121  1  0.77115375  0.84361511  0.46163350  1
  O  O122  1  0.15960066  0.43753342  0.46224151  1
  O  O123  1  0.64802056  0.45266206  0.46067969  1
  O  O124  1  0.06618892  0.69342235  0.46497338  1
  O  O125  1  0.57115769  0.69481750  0.46284570  1
  O  O126  1  0.06777480  0.65199312  0.35457285  1
  O  O127  1  0.55752871  0.63333614  0.36375647  1
  O  O128  1  0.26704522  0.89710218  0.36170599  1
  O  O129  1  0.75770790  0.85758869  0.36148174  1
  O  O130  1  0.18691776  0.47599862  0.36280447  1
  O  O131  1  0.67211584  0.48179998  0.36089887  1
  O  O132  1  0.04945604  0.47415973  0.87537914  1
  O  O133  1  0.56092774  0.46177517  0.86302625  1
  O  O134  1  0.17703021  0.87618860  0.87364771  1
  O  O135  1  0.68666831  0.91239944  0.87112024  1
  O  O136  1  0.26647944  0.66341015  0.87216654  1
  O  O137  1  0.76791500  0.62292952  0.87109511  1
  O  O138  1  0.01104213  0.84711973  0.40425093  1
  O  O139  1  0.51174170  0.81823849  0.40448599  1
  O  O140  1  0.40619099  0.99696114  0.40191314  1
  O  O141  1  0.89486455  0.96376186  0.40598037  1
  O  O142  1  0.09381689  0.19875468  0.40309282  1
  O  O143  1  0.58052697  0.20884693  0.40358852  1
  O  O144  1  0.00504047  0.20975477  0.92198547  1
  O  O145  1  0.50382215  0.17758866  0.92244026  1
  O  O146  1  0.09069149  0.96516879  0.92259128  1
  O  O147  1  0.60085281  0.00179884  0.92097968  1
  O  O148  1  0.39562454  0.81516051  0.92528873  1
  O  O149  1  0.89902004  0.79396219  0.92003227  1
  O  O150  1  0.49306465  0.19830845  0.57939621  1
  O  O151  1  0.99321800  0.17359685  0.57910962  1
  O  O152  1  0.10274976  0.03038012  0.57449696  1
  O  O153  1  0.60175739  0.00025410  0.58359456  1
  O  O154  1  0.40947258  0.78751959  0.57996787  1
  O  O155  1  0.89951885  0.80996409  0.57783164  1
  O  O156  1  0.48383343  0.80836615  0.10151730  1
  O  O157  1  0.98859912  0.79751413  0.09540838  1
  O  O158  1  0.41038111  0.00834539  0.09897737  1
  O  O159  1  0.91925588  0.04600284  0.09604769  1
  O  O160  1  0.09667628  0.18441775  0.09878601  1
  O  O161  1  0.60115620  0.15784215  0.09499621  1
  O  O162  1  0.34130337  0.15438307  0.74957059  1
  O  O163  1  0.83663750  0.15289703  0.74990743  1
  O  O164  1  0.23942496  0.31062146  0.75079526  1
  O  O165  1  0.73277149  0.30855250  0.74833350  1
  O  O166  1  0.42347583  0.52957839  0.75085492  1
  O  O167  1  0.90981215  0.50416034  0.75284253  1
  O  O168  1  0.34308217  0.53443978  0.24551600  1
  O  O169  1  0.84330158  0.53127570  0.24151120  1
  O  O170  1  0.42168705  0.30889840  0.24307277  1
  O  O171  1  0.92180414  0.30631225  0.24560894  1
  O  O172  1  0.23544853  0.16411178  0.24092215  1
  O  O173  1  0.73241538  0.15326670  0.24542854  1
  O  O174  1  0.31517038  0.51146572  0.92533207  1
  O  O175  1  0.82281244  0.48983237  0.92787241  1
  O  O176  1  0.41949455  0.34503524  0.91620748  1
  O  O177  1  0.92885517  0.36064466  0.93240129  1
  O  O178  1  0.24196117  0.12437021  0.92712572  1
  O  O179  1  0.75379290  0.15609724  0.92792197  1
  O  O180  1  0.33069921  0.14933021  0.41599062  1
  O  O181  1  0.81546899  0.10918539  0.41451044  1
  O  O182  1  0.24696082  0.34265050  0.41603920  1
  O  O183  1  0.73240640  0.35211035  0.41450056  1
  O  O184  1  0.43369097  0.51476168  0.41952806  1
  O  O185  1  0.92416403  0.50820220  0.40756344  1
  O  O186  1  0.17180199  0.48302412  0.07911612  1
  O  O187  1  0.67908472  0.46145972  0.08439526  1
  O  O188  1  0.06408013  0.64967711  0.07556898  1
  O  O189  1  0.56021823  0.65895772  0.09044862  1
  O  O190  1  0.25916694  0.85939976  0.08093627  1
  O  O191  1  0.76821028  0.89201107  0.08121551  1
  O  O192  1  0.18313305  0.88616111  0.57391911  1
  O  O193  1  0.67816942  0.85282379  0.56965039  1
  O  O194  1  0.25838990  0.63635401  0.56939895  1
  O  O195  1  0.74674917  0.64667039  0.56883976  1
  O  O196  1  0.06835556  0.47750626  0.57742793  1
  O  O197  1  0.56802849  0.49868409  0.56468928  1
  O  O198  1  0.16059434  0.86146234  0.25493910  1
  O  O199  1  0.65417386  0.85058832  0.26143425  1
  O  O200  1  0.26932672  0.68969379  0.26251321  1
  O  O201  1  0.76780053  0.68373560  0.25682900  1
  O  O202  1  0.07488926  0.45031541  0.25817899  1
  O  O203  1  0.57351580  0.45969686  0.25887582  1
  O  O204  1  0.16740013  0.46819596  0.75290372  1
  O  O205  1  0.65833140  0.46351343  0.75122361  1
  O  O206  1  0.07623800  0.67549523  0.75321214  1
  O  O207  1  0.57615416  0.69295595  0.75136987  1
  O  O208  1  0.26958778  0.85054427  0.75102047  1
  O  O209  1  0.76745968  0.85017815  0.75477802  1
