# generated using pymatgen
data_MgV3(OF)4
_symmetry_space_group_name_H-M   'P 1'
_cell_length_a   4.80118239
_cell_length_b   9.81924064
_cell_length_c   3.12067300
_cell_angle_alpha   90.00000000
_cell_angle_beta   90.00000000
_cell_angle_gamma   87.74921290
_symmetry_Int_Tables_number   1
_chemical_formula_structural   MgV3(OF)4
_chemical_formula_sum   'Mg1 V3 O4 F4'
_cell_volume   147.00739516
_cell_formula_units_Z   1
loop_
 _symmetry_equiv_pos_site_id
 _symmetry_equiv_pos_as_xyz
  1  'x, y, z'
loop_
 _atom_site_type_symbol
 _atom_site_label
 _atom_site_symmetry_multiplicity
 _atom_site_fract_x
 _atom_site_fract_y
 _atom_site_fract_z
 _atom_site_occupancy
  Mg  Mg0  1  0.49115100  0.09675200  0.25000000  1
  V  V1  1  0.00071500  0.84742500  0.75000000  1
  V  V2  1  0.48974200  0.38910600  0.75000000  1
  V  V3  1  0.52383100  0.64113100  0.25000000  1
  O  O4  1  0.30892100  0.48100100  0.25000000  1
  O  O5  1  0.32339100  0.72924200  0.75000000  1
  O  O6  1  0.71109300  0.54595900  0.75000000  1
  O  O7  1  0.80415300  0.77448200  0.25000000  1
  F  F8  1  0.30289300  0.19778000  0.75000000  1
  F  F9  1  0.18812100  0.96298800  0.25000000  1
  F  F10  1  0.69234700  0.27599600  0.25000000  1
  F  F11  1  0.70665200  0.01484000  0.75000000  1
