# generated using pymatgen
data_Ti3V5O16
_symmetry_space_group_name_H-M   'P 1'
_cell_length_a   5.89523092
_cell_length_b   5.95215513
_cell_length_c   9.08389150
_cell_angle_alpha   90.00284831
_cell_angle_beta   90.62774910
_cell_angle_gamma   119.89378535
_symmetry_Int_Tables_number   1
_chemical_formula_structural   Ti3V5O16
_chemical_formula_sum   'Ti3 V5 O16'
_cell_volume   276.31637267
_cell_formula_units_Z   1
loop_
 _symmetry_equiv_pos_site_id
 _symmetry_equiv_pos_as_xyz
  1  'x, y, z'
loop_
 _atom_site_type_symbol
 _atom_site_label
 _atom_site_symmetry_multiplicity
 _atom_site_fract_x
 _atom_site_fract_y
 _atom_site_fract_z
 _atom_site_occupancy
  Ti  Ti0  1  0.14883500  0.82001200  0.20107600  1
  Ti  Ti1  1  0.20738700  0.34469500  0.20762600  1
  Ti  Ti2  1  0.32310000  0.13106900  0.70569900  1
  V  V3  1  0.32704400  0.65904500  0.48691800  1
  V  V4  1  0.66839400  0.85702200  0.21824100  1
  V  V5  1  0.68111300  0.32794100  0.98554400  1
  V  V6  1  0.84247700  0.17817400  0.70276700  1
  V  V7  1  0.80178300  0.65511900  0.72108900  1
  O  O8  1  0.15104300  0.81374400  0.60520600  1
  O  O9  1  0.06036200  0.53772000  0.34235000  1
  O  O10  1  0.33552100  0.67209100  0.10030400  1
  O  O11  1  0.01524100  0.01310300  0.30956700  1
  O  O12  1  0.99731800  0.99993300  0.81075200  1
  O  O13  1  0.15934700  0.33234300  0.60282900  1
  O  O14  1  0.49349400  0.95653000  0.33962500  1
  O  O15  1  0.48540000  0.52729600  0.34148600  1
  O  O16  1  0.34516700  0.16716400  0.10060200  1
  O  O17  1  0.63845900  0.82536500  0.60451600  1
  O  O18  1  0.52564100  0.47661200  0.84303400  1
  O  O19  1  0.53113900  0.04884600  0.83663300  1
  O  O20  1  0.65334300  0.33033100  0.60196200  1
  O  O21  1  0.82381200  0.66453900  0.10443500  1
  O  O22  1  0.95056100  0.47428000  0.83836100  1
  O  O23  1  0.83401700  0.18722100  0.10509800  1
