# generated using pymatgen
data_Na6ZnSn7(PO4)12
_symmetry_space_group_name_H-M   'P 1'
_cell_length_a   17.54574474
_cell_length_b   8.79089149
_cell_length_c   22.80826889
_cell_angle_alpha   90.04540431
_cell_angle_beta   89.94746190
_cell_angle_gamma   120.05702811
_symmetry_Int_Tables_number   1
_chemical_formula_structural   Na6ZnSn7(PO4)12
_chemical_formula_sum   'Na18 Zn3 Sn21 P36 O144'
_cell_volume   3044.93209369
_cell_formula_units_Z   3
loop_
 _symmetry_equiv_pos_site_id
 _symmetry_equiv_pos_as_xyz
  1  'x, y, z'
loop_
 _atom_site_type_symbol
 _atom_site_label
 _atom_site_symmetry_multiplicity
 _atom_site_fract_x
 _atom_site_fract_y
 _atom_site_fract_z
 _atom_site_occupancy
  Na  Na0  1  0.68796598  0.36497958  0.24609121  1
  Na  Na1  1  0.99399019  0.62292032  0.24586211  1
  Na  Na2  1  0.99362499  0.36270942  0.74359739  1
  Na  Na3  1  0.49379976  0.36293207  0.74352776  1
  Na  Na4  1  0.18700951  0.00902919  0.74372666  1
  Na  Na5  1  0.68712622  0.00918134  0.74392409  1
  Na  Na6  1  0.99975055  0.99966457  0.50084679  1
  Na  Na7  1  0.49980540  0.99952582  0.50088341  1
  Na  Na8  1  0.99803121  0.99728034  0.00175667  1
  Na  Na9  1  0.50164106  0.00255347  0.00132041  1
  Na  Na10  1  0.33295706  0.34307659  0.83060275  1
  Na  Na11  1  0.83280618  0.34289978  0.83163640  1
  Na  Na12  1  0.33324793  0.33436026  0.33529988  1
  Na  Na13  1  0.83300278  0.32133969  0.33180771  1
  Na  Na14  1  0.16912555  0.66430739  0.16557532  1
  Na  Na15  1  0.66886489  0.67936857  0.16477817  1
  Na  Na16  1  0.17130055  0.66553819  0.66084045  1
  Na  Na17  1  0.67138420  0.66568446  0.66093340  1
  Zn  Zn18  1  0.33289459  0.34092418  0.67863459  1
  Zn  Zn19  1  0.83289971  0.34094709  0.67867788  1
  Zn  Zn20  1  0.83306117  0.32259371  0.18145805  1
  Sn  Sn21  1  0.00109642  0.00373271  0.35357387  1
  Sn  Sn22  1  0.49849388  0.99733117  0.35336547  1
  Sn  Sn23  1  0.99947396  0.99827293  0.85377499  1
  Sn  Sn24  1  0.49973597  0.99826614  0.85393165  1
  Sn  Sn25  1  0.99908510  0.99789380  0.64551844  1
  Sn  Sn26  1  0.49916188  0.99792081  0.64556634  1
  Sn  Sn27  1  0.99799119  0.00095769  0.14700985  1
  Sn  Sn28  1  0.50097666  0.99968491  0.14708734  1
  Sn  Sn29  1  0.33341185  0.33477849  0.18521674  1
  Sn  Sn30  1  0.33345264  0.33243914  0.98148159  1
  Sn  Sn31  1  0.83341123  0.33315382  0.98368794  1
  Sn  Sn32  1  0.33337442  0.33318166  0.48335498  1
  Sn  Sn33  1  0.83343550  0.33435445  0.48274878  1
  Sn  Sn34  1  0.16573279  0.66663363  0.01967742  1
  Sn  Sn35  1  0.66753346  0.66672063  0.01958737  1
  Sn  Sn36  1  0.16656103  0.66676244  0.51888691  1
  Sn  Sn37  1  0.66656530  0.66643742  0.51900142  1
  Sn  Sn38  1  0.16955397  0.66566673  0.31570888  1
  Sn  Sn39  1  0.66611391  0.67251217  0.31641260  1
  Sn  Sn40  1  0.16865251  0.66564133  0.81681986  1
  Sn  Sn41  1  0.66903067  0.66610914  0.81696759  1
  P  P42  1  0.14630095  0.00149313  0.25013052  1
  P  P43  1  0.64578872  0.99864464  0.25034238  1
  P  P44  1  0.35448517  0.70863378  0.24944121  1
  P  P45  1  0.85340589  0.70990523  0.25090771  1
  P  P46  1  0.00005125  0.29199178  0.25061832  1
  P  P47  1  0.49896425  0.29105849  0.25058593  1
  P  P48  1  0.14619513  0.29163215  0.75072469  1
  P  P49  1  0.64619949  0.29192212  0.75070786  1
  P  P50  1  0.99877802  0.70707425  0.75128480  1
  P  P51  1  0.49873047  0.70692063  0.75133014  1
  P  P52  1  0.35404142  0.99762741  0.75068067  1
  P  P53  1  0.85396393  0.99768304  0.75052963  1
  P  P54  1  0.48026838  0.33375040  0.58496158  1
  P  P55  1  0.98025885  0.33393473  0.58486106  1
  P  P56  1  0.18694137  0.03926958  0.58501492  1
  P  P57  1  0.68704694  0.03951143  0.58491854  1
  P  P58  1  0.33273944  0.62568890  0.58361794  1
  P  P59  1  0.83275941  0.62560006  0.58351883  1
  P  P60  1  0.47927682  0.62538024  0.08300265  1
  P  P61  1  0.98007018  0.62784388  0.08505994  1
  P  P62  1  0.33366803  0.04176712  0.08349197  1
  P  P63  1  0.83317801  0.04037367  0.08323207  1
  P  P64  1  0.18713522  0.33309642  0.08307301  1
  P  P65  1  0.68646990  0.33325261  0.08500419  1
  P  P66  1  0.31338365  0.66602628  0.91803897  1
  P  P67  1  0.81391385  0.66451704  0.91761986  1
  P  P68  1  0.01904851  0.37267667  0.91668564  1
  P  P69  1  0.51970622  0.37339536  0.91666005  1
  P  P70  1  0.16714915  0.96110585  0.91653612  1
  P  P71  1  0.66739887  0.96127436  0.91693904  1
  P  P72  1  0.31282041  0.96082090  0.41691397  1
  P  P73  1  0.81349600  0.96179273  0.41750805  1
  P  P74  1  0.16773154  0.37374061  0.41741311  1
  P  P75  1  0.66702041  0.37386621  0.41586370  1
  P  P76  1  0.01988977  0.66598072  0.41590391  1
  P  P77  1  0.51914926  0.66468524  0.41736390  1
  O  O78  1  0.10711946  0.03356715  0.30574982  1
  O  O79  1  0.60351370  0.03422889  0.30492258  1
  O  O80  1  0.40967020  0.78618172  0.30522814  1
  O  O81  1  0.91325225  0.79327592  0.30507905  1
  O  O82  1  0.48270385  0.17855697  0.30564390  1
  O  O83  1  0.98632254  0.18123580  0.30605709  1
  O  O84  1  0.10481611  0.17584376  0.80611893  1
  O  O85  1  0.60485220  0.17604279  0.80614178  1
  O  O86  1  0.48527619  0.78983502  0.80710934  1
  O  O87  1  0.98561417  0.79013857  0.80703613  1
  O  O88  1  0.41200140  0.03270045  0.80592243  1
  O  O89  1  0.91198651  0.03306785  0.80570743  1
  O  O90  1  0.39414615  0.96216322  0.69627218  1
  O  O91  1  0.89409683  0.96206818  0.69616800  1
  O  O92  1  0.08435289  0.21223299  0.69701206  1
  O  O93  1  0.58432444  0.21247535  0.69700150  1
  O  O94  1  0.02154351  0.82994645  0.69759456  1
  O  O95  1  0.52147466  0.82985582  0.69766035  1
  O  O96  1  0.39397368  0.82161776  0.19411753  1
  O  O97  1  0.89269235  0.82386763  0.19575820  1
  O  O98  1  0.01937699  0.21413368  0.19566436  1
  O  O99  1  0.51911247  0.21377798  0.19561053  1
  O  O100  1  0.08696745  0.96129292  0.19553630  1
  O  O101  1  0.58756845  0.96156400  0.19518226  1
  O  O102  1  0.44421208  0.36283383  0.64203972  1
  O  O103  1  0.94423716  0.36281350  0.64206491  1
  O  O104  1  0.23772976  0.11051110  0.64207808  1
  O  O105  1  0.73773229  0.11089747  0.64207163  1
  O  O106  1  0.31683814  0.51973692  0.63889310  1
  O  O107  1  0.81676293  0.51956062  0.63884451  1
  O  O108  1  0.44000314  0.51250460  0.13850186  1
  O  O109  1  0.94327607  0.52467825  0.14154381  1
  O  O110  1  0.31702175  0.12190415  0.13878676  1
  O  O111  1  0.81711881  0.11604919  0.13823986  1
  O  O112  1  0.24374968  0.36756596  0.13856419  1
  O  O113  1  0.73800869  0.36340271  0.14155707  1
  O  O114  1  0.22692981  0.29974591  0.02761408  1
  O  O115  1  0.72602143  0.30078784  0.02881233  1
  O  O116  1  0.42278044  0.54571171  0.02763622  1
  O  O117  1  0.92478262  0.54813822  0.02876780  1
  O  O118  1  0.35015478  0.15343453  0.02782608  1
  O  O119  1  0.84955357  0.14907771  0.02640031  1
  O  O120  1  0.22740942  0.15242904  0.52947155  1
  O  O121  1  0.72750126  0.15288115  0.52936708  1
  O  O122  1  0.34922746  0.54839184  0.52711980  1
  O  O123  1  0.84920554  0.54842829  0.52697356  1
  O  O124  1  0.42378652  0.30229726  0.52940754  1
  O  O125  1  0.92370030  0.30249783  0.52934605  1
  O  O126  1  0.27197046  0.69906566  0.97229243  1
  O  O127  1  0.77270599  0.69915806  0.97149950  1
  O  O128  1  0.07860529  0.45731487  0.97024470  1
  O  O129  1  0.57792216  0.45889702  0.97030332  1
  O  O130  1  0.15164221  0.84507456  0.97031679  1
  O  O131  1  0.65046470  0.84245699  0.97025928  1
  O  O132  1  0.27247319  0.84554768  0.47122730  1
  O  O133  1  0.77233451  0.84605636  0.47161644  1
  O  O134  1  0.15063437  0.45526630  0.47162017  1
  O  O135  1  0.65073458  0.45789483  0.46967986  1
  O  O136  1  0.07821223  0.69883820  0.46979826  1
  O  O137  1  0.57717930  0.69892009  0.47149722  1
  O  O138  1  0.05851867  0.63519011  0.35823407  1
  O  O139  1  0.55771826  0.63019620  0.36094861  1
  O  O140  1  0.25707757  0.88285818  0.36051055  1
  O  O141  1  0.75795663  0.88463718  0.36098667  1
  O  O142  1  0.18446995  0.48416342  0.36086340  1
  O  O143  1  0.68231949  0.48155340  0.35820335  1
  O  O144  1  0.05730252  0.48105827  0.85897511  1
  O  O145  1  0.55739568  0.48091563  0.85891751  1
  O  O146  1  0.18308430  0.88532745  0.85881671  1
  O  O147  1  0.68279604  0.88524379  0.85889771  1
  O  O148  1  0.25780185  0.63129047  0.86147956  1
  O  O149  1  0.75827438  0.63005827  0.86093566  1
  O  O150  1  0.01152957  0.83290957  0.41090417  1
  O  O151  1  0.51107506  0.83194871  0.41184463  1
  O  O152  1  0.40469540  0.97677982  0.41141680  1
  O  O153  1  0.90528897  0.97779178  0.41213619  1
  O  O154  1  0.08397056  0.19000223  0.41238121  1
  O  O155  1  0.58310370  0.19009182  0.41080377  1
  O  O156  1  0.01124755  0.18984788  0.91160218  1
  O  O157  1  0.51119988  0.19002519  0.91195509  1
  O  O158  1  0.08386140  0.97773472  0.91204671  1
  O  O159  1  0.58345978  0.97699860  0.91227291  1
  O  O160  1  0.40488956  0.83326308  0.91285841  1
  O  O161  1  0.90536413  0.83236118  0.91229939  1
  O  O162  1  0.48982749  0.16656221  0.58737601  1
  O  O163  1  0.98993167  0.16680877  0.58740339  1
  O  O164  1  0.09379364  0.02128407  0.58754060  1
  O  O165  1  0.59382271  0.02144062  0.58754773  1
  O  O166  1  0.41692297  0.81201575  0.58697088  1
  O  O167  1  0.91684782  0.81187160  0.58688121  1
  O  O168  1  0.48741758  0.80846382  0.08819287  1
  O  O169  1  0.99098255  0.81515467  0.08785062  1
  O  O170  1  0.41670816  0.02418418  0.08906908  1
  O  O171  1  0.91705094  0.02160104  0.08647089  1
  O  O172  1  0.09553250  0.16723045  0.08859139  1
  O  O173  1  0.59278405  0.16489979  0.08741548  1
  O  O174  1  0.34331484  0.15979429  0.74645306  1
  O  O175  1  0.84322574  0.15987596  0.74626586  1
  O  O176  1  0.23578718  0.30685975  0.74558218  1
  O  O177  1  0.73583421  0.30710947  0.74548268  1
  O  O178  1  0.42091445  0.52176612  0.74628263  1
  O  O179  1  0.92091821  0.52184960  0.74627090  1
  O  O180  1  0.34504349  0.52411720  0.24401690  1
  O  O181  1  0.84332033  0.52651581  0.24652907  1
  O  O182  1  0.41709628  0.31125641  0.24438778  1
  O  O183  1  0.92070373  0.31879996  0.24622186  1
  O  O184  1  0.23844698  0.16556197  0.24404086  1
  O  O185  1  0.73547296  0.16557514  0.24594751  1
  O  O186  1  0.32213800  0.50035367  0.92293109  1
  O  O187  1  0.82262530  0.49940073  0.92309714  1
  O  O188  1  0.42806395  0.35697279  0.92179289  1
  O  O189  1  0.92811868  0.35725765  0.92227869  1
  O  O190  1  0.25062426  0.14416393  0.92174978  1
  O  O191  1  0.75024867  0.14373119  0.92250426  1
  O  O192  1  0.32216927  0.14427018  0.42254284  1
  O  O193  1  0.82224585  0.14497626  0.42301756  1
  O  O194  1  0.25038068  0.35544896  0.42273784  1
  O  O195  1  0.75014227  0.35697300  0.42156860  1
  O  O196  1  0.42756501  0.49858929  0.42259257  1
  O  O197  1  0.92842619  0.49954520  0.42168143  1
  O  O198  1  0.17892284  0.50033307  0.07773996  1
  O  O199  1  0.67563703  0.49800866  0.07763981  1
  O  O200  1  0.07326929  0.64616517  0.07794719  1
  O  O201  1  0.57123233  0.64318304  0.07763456  1
  O  O202  1  0.25032908  0.85768918  0.07811718  1
  O  O203  1  0.74964775  0.85393434  0.07716509  1
  O  O204  1  0.17690754  0.85389258  0.57752567  1
  O  O205  1  0.67696060  0.85396626  0.57769251  1
  O  O206  1  0.24984130  0.64630585  0.57713712  1
  O  O207  1  0.74973679  0.64573533  0.57704266  1
  O  O208  1  0.07294725  0.50073107  0.57771139  1
  O  O209  1  0.57293974  0.50021262  0.57768123  1
  O  O210  1  0.15191170  0.82995195  0.25576607  1
  O  O211  1  0.65222503  0.82943352  0.25589819  1
  O  O212  1  0.26216670  0.69152059  0.25455222  1
  O  O213  1  0.75950807  0.68740308  0.25646618  1
  O  O214  1  0.08454483  0.48073954  0.25551684  1
  O  O215  1  0.58519338  0.47299533  0.25638384  1
  O  O216  1  0.14927219  0.47254334  0.75667219  1
  O  O217  1  0.64920537  0.47267205  0.75666683  1
  O  O218  1  0.08635031  0.69604120  0.75663837  1
  O  O219  1  0.58624331  0.69589789  0.75673492  1
  O  O220  1  0.26011121  0.83099502  0.75598571  1
  O  O221  1  0.76005705  0.83107486  0.75588212  1
