# generated using pymatgen
data_Na14Hf4Zn4Si7S5O48
_symmetry_space_group_name_H-M   'P 1'
_cell_length_a   18.33100813
_cell_length_b   9.19596212
_cell_length_c   22.45571618
_cell_angle_alpha   90.17754241
_cell_angle_beta   89.52824904
_cell_angle_gamma   119.95047610
_symmetry_Int_Tables_number   1
_chemical_formula_structural   Na14Hf4Zn4Si7S5O48
_chemical_formula_sum   'Na42 Hf12 Zn12 Si21 S15 O144'
_cell_volume   3279.76374660
_cell_formula_units_Z   3
loop_
 _symmetry_equiv_pos_site_id
 _symmetry_equiv_pos_as_xyz
  1  'x, y, z'
loop_
 _atom_site_type_symbol
 _atom_site_label
 _atom_site_symmetry_multiplicity
 _atom_site_fract_x
 _atom_site_fract_y
 _atom_site_fract_z
 _atom_site_occupancy
  Na  Na0  1  0.80722342  0.99042446  0.25630505  1
  Na  Na1  1  0.18354272  0.35448412  0.25707013  1
  Na  Na2  1  0.69160859  0.37029238  0.25736933  1
  Na  Na3  1  0.99035153  0.63923613  0.24512670  1
  Na  Na4  1  0.50296630  0.64695311  0.25383576  1
  Na  Na5  1  0.30827252  0.62529366  0.74494801  1
  Na  Na6  1  0.00117894  0.35490562  0.74792765  1
  Na  Na7  1  0.49273980  0.34746759  0.73922498  1
  Na  Na8  1  0.19105055  0.01357959  0.75265676  1
  Na  Na9  1  0.68631297  0.01427406  0.75226265  1
  Na  Na10  1  0.14873039  0.33090325  0.58553184  1
  Na  Na11  1  0.65804834  0.33596355  0.57986390  1
  Na  Na12  1  0.33767140  0.99162371  0.57907343  1
  Na  Na13  1  0.83594435  0.98028646  0.57747335  1
  Na  Na14  1  0.15618996  0.98003617  0.08600701  1
  Na  Na15  1  0.64918954  0.96660639  0.08989955  1
  Na  Na16  1  0.33611710  0.69043015  0.08637340  1
  Na  Na17  1  0.83669183  0.68744615  0.08371786  1
  Na  Na18  1  0.48119497  0.67693098  0.92442434  1
  Na  Na19  1  0.97410324  0.66685992  0.92049370  1
  Na  Na20  1  0.35487854  0.04476749  0.91542160  1
  Na  Na21  1  0.85116433  0.03479147  0.91034768  1
  Na  Na22  1  0.16802927  0.28440587  0.91450599  1
  Na  Na23  1  0.67184773  0.28912452  0.90816875  1
  Na  Na24  1  0.47673459  0.28538534  0.42105804  1
  Na  Na25  1  0.97407391  0.27175958  0.42453650  1
  Na  Na26  1  0.16950825  0.05567724  0.40771411  1
  Na  Na27  1  0.67700692  0.04552026  0.41269928  1
  Na  Na28  1  0.35286222  0.66913148  0.41063263  1
  Na  Na29  1  0.85159768  0.67664155  0.41773582  1
  Na  Na30  1  0.99133933  0.99585890  0.49244187  1
  Na  Na31  1  0.50366109  0.00207424  0.49548959  1
  Na  Na32  1  0.99941589  0.99964439  0.99851346  1
  Na  Na33  1  0.49913689  0.00030637  0.99927595  1
  Na  Na34  1  0.32605048  0.31940745  0.82442380  1
  Na  Na35  1  0.82337704  0.33193544  0.83383872  1
  Na  Na36  1  0.32503827  0.31664367  0.33689317  1
  Na  Na37  1  0.82404904  0.31706967  0.33270072  1
  Na  Na38  1  0.16907913  0.67748190  0.17020212  1
  Na  Na39  1  0.66181911  0.66395221  0.17797226  1
  Na  Na40  1  0.16043948  0.65666482  0.67348319  1
  Na  Na41  1  0.66885308  0.66032901  0.66278585  1
  Hf  Hf42  1  0.99328963  0.99896718  0.64860022  1
  Hf  Hf43  1  0.50088561  0.01519606  0.64908655  1
  Hf  Hf44  1  0.00115582  0.98919906  0.14969670  1
  Hf  Hf45  1  0.49368236  0.98836660  0.14984431  1
  Hf  Hf46  1  0.83054416  0.33241213  0.68049959  1
  Hf  Hf47  1  0.32962519  0.32653514  0.18187721  1
  Hf  Hf48  1  0.16456150  0.66479512  0.02495887  1
  Hf  Hf49  1  0.66584408  0.67371423  0.01634595  1
  Hf  Hf50  1  0.16589375  0.65947202  0.51667732  1
  Hf  Hf51  1  0.67083210  0.67361306  0.52224576  1
  Hf  Hf52  1  0.17759604  0.68034373  0.31431395  1
  Hf  Hf53  1  0.67787528  0.67600718  0.81339641  1
  Zn  Zn54  1  0.99788106  0.99715209  0.34956029  1
  Zn  Zn55  1  0.49626783  0.98660615  0.34128409  1
  Zn  Zn56  1  0.99486778  0.00258104  0.83871328  1
  Zn  Zn57  1  0.50851343  0.01499513  0.84067539  1
  Zn  Zn58  1  0.33466507  0.31545810  0.68627742  1
  Zn  Zn59  1  0.83462233  0.34923188  0.18765924  1
  Zn  Zn60  1  0.33534714  0.33313743  0.01222066  1
  Zn  Zn61  1  0.83072205  0.34752503  0.97972565  1
  Zn  Zn62  1  0.33305204  0.31851225  0.47895873  1
  Zn  Zn63  1  0.83203155  0.31467826  0.49635827  1
  Zn  Zn64  1  0.68154404  0.70372145  0.31248148  1
  Zn  Zn65  1  0.17283527  0.66041926  0.80987204  1
  Si  Si66  1  0.14737544  0.99805325  0.25384724  1
  Si  Si67  1  0.64918229  0.00702809  0.25024249  1
  Si  Si68  1  0.35085605  0.69418754  0.25190272  1
  Si  Si69  1  0.85075068  0.70254761  0.25324018  1
  Si  Si70  1  0.14928212  0.29006495  0.75199679  1
  Si  Si71  1  0.65060829  0.30263692  0.75270937  1
  Si  Si72  1  0.35124007  0.99551808  0.75596931  1
  Si  Si73  1  0.85128795  0.00918496  0.75255420  1
  Si  Si74  1  0.47708811  0.33671910  0.58316021  1
  Si  Si75  1  0.98592607  0.34125309  0.58422838  1
  Si  Si76  1  0.68102881  0.03394574  0.58197473  1
  Si  Si77  1  0.83829587  0.62744485  0.57635702  1
  Si  Si78  1  0.48454966  0.63094305  0.08265116  1
  Si  Si79  1  0.97472631  0.61750582  0.08318734  1
  Si  Si80  1  0.33821938  0.04222789  0.07660014  1
  Si  Si81  1  0.18218334  0.32779190  0.08014100  1
  Si  Si82  1  0.81989922  0.67255548  0.91847443  1
  Si  Si83  1  0.66411779  0.96635743  0.91584333  1
  Si  Si84  1  0.31992859  0.96730913  0.41894718  1
  Si  Si85  1  0.81646752  0.97393473  0.41562401  1
  Si  Si86  1  0.16748732  0.36693143  0.41617433  1
  S  S87  1  0.00021037  0.29273174  0.25138926  1
  S  S88  1  0.49767358  0.29128936  0.25095557  1
  S  S89  1  0.99874229  0.70500568  0.75177768  1
  S  S90  1  0.49939718  0.70727438  0.75325154  1
  S  S91  1  0.18332645  0.03282879  0.58380289  1
  S  S92  1  0.33294691  0.63082262  0.58336699  1
  S  S93  1  0.83316928  0.03683656  0.08155695  1
  S  S94  1  0.68276335  0.33389485  0.08241300  1
  S  S95  1  0.31194260  0.66223403  0.91590884  1
  S  S96  1  0.02437006  0.38126686  0.91572435  1
  S  S97  1  0.52024297  0.37957121  0.91546714  1
  S  S98  1  0.16755577  0.95543467  0.91470054  1
  S  S99  1  0.66517919  0.37536106  0.41420305  1
  S  S100  1  0.02203936  0.66318225  0.41517120  1
  S  S101  1  0.52285712  0.66613687  0.41595193  1
  O  O102  1  0.10928914  0.04084603  0.31203663  1
  O  O103  1  0.60915571  0.04739727  0.30957480  1
  O  O104  1  0.40544803  0.77193949  0.31148568  1
  O  O105  1  0.91052474  0.78970101  0.31047733  1
  O  O106  1  0.48464898  0.19718124  0.30678611  1
  O  O107  1  0.99119456  0.20009892  0.30666862  1
  O  O108  1  0.11091214  0.17299640  0.81227672  1
  O  O109  1  0.61752751  0.18954286  0.81289805  1
  O  O110  1  0.48869360  0.78099987  0.80915358  1
  O  O111  1  0.98736522  0.77448916  0.80824535  1
  O  O112  1  0.40804254  0.02180869  0.81529857  1
  O  O113  1  0.90497308  0.04036865  0.81288231  1
  O  O114  1  0.39835520  0.96611612  0.69737166  1
  O  O115  1  0.89813813  0.98315515  0.69419493  1
  O  O116  1  0.08847822  0.18686130  0.69480582  1
  O  O117  1  0.58759745  0.20366157  0.69582549  1
  O  O118  1  0.00808485  0.81576894  0.70055131  1
  O  O119  1  0.51314082  0.81972710  0.70158469  1
  O  O120  1  0.39619500  0.81144435  0.19257204  1
  O  O121  1  0.89769558  0.82529166  0.19351220  1
  O  O122  1  0.01432533  0.20787307  0.19898784  1
  O  O123  1  0.50579256  0.19741223  0.19912439  1
  O  O124  1  0.08892144  0.97238275  0.19368383  1
  O  O125  1  0.58934238  0.99082514  0.19191886  1
  O  O126  1  0.43838851  0.36332334  0.64483897  1
  O  O127  1  0.93904822  0.35880215  0.64379265  1
  O  O128  1  0.23518290  0.10598736  0.63743314  1
  O  O129  1  0.74375848  0.12577834  0.63961662  1
  O  O130  1  0.31778100  0.52925664  0.63702361  1
  O  O131  1  0.82038115  0.50159077  0.63308222  1
  O  O132  1  0.43418529  0.51339380  0.13975498  1
  O  O133  1  0.93659023  0.51138128  0.14352838  1
  O  O134  1  0.31753513  0.13546762  0.13084000  1
  O  O135  1  0.81801571  0.10868311  0.13524426  1
  O  O136  1  0.24541752  0.36167697  0.13689032  1
  O  O137  1  0.73503536  0.36456930  0.13547460  1
  O  O138  1  0.21945954  0.28745195  0.02014579  1
  O  O139  1  0.71829044  0.29897118  0.02821580  1
  O  O140  1  0.42833744  0.56095597  0.02230415  1
  O  O141  1  0.91859585  0.54406382  0.02334074  1
  O  O142  1  0.35141000  0.14036530  0.01427231  1
  O  O143  1  0.84170659  0.12987075  0.02660695  1
  O  O144  1  0.21952336  0.13908547  0.53012786  1
  O  O145  1  0.71465126  0.15071218  0.52313656  1
  O  O146  1  0.34153566  0.55278046  0.52836902  1
  O  O147  1  0.84927189  0.54733977  0.51546995  1
  O  O148  1  0.41707071  0.29154347  0.52492373  1
  O  O149  1  0.93057162  0.29803563  0.52468785  1
  O  O150  1  0.26600026  0.67567693  0.96986204  1
  O  O151  1  0.76931568  0.68833310  0.97799359  1
  O  O152  1  0.07835150  0.47942031  0.96752506  1
  O  O153  1  0.57387416  0.47252411  0.96834735  1
  O  O154  1  0.16366325  0.85526146  0.96930489  1
  O  O155  1  0.65247863  0.84268159  0.97399788  1
  O  O156  1  0.26983751  0.85156238  0.47864255  1
  O  O157  1  0.76525782  0.84833079  0.47348071  1
  O  O158  1  0.15630793  0.46746088  0.47467211  1
  O  O159  1  0.65794989  0.46401348  0.46895823  1
  O  O160  1  0.07587615  0.67631547  0.46801574  1
  O  O161  1  0.57573931  0.67468726  0.46765974  1
  O  O162  1  0.06617335  0.64981475  0.36082870  1
  O  O163  1  0.55826489  0.64104276  0.36008864  1
  O  O164  1  0.25591778  0.86233369  0.36318295  1
  O  O165  1  0.75836038  0.89761560  0.35657303  1
  O  O166  1  0.17650843  0.48705442  0.35831881  1
  O  O167  1  0.66824636  0.47066949  0.36035698  1
  O  O168  1  0.06228312  0.47892238  0.86059675  1
  O  O169  1  0.56445618  0.47816490  0.86117706  1
  O  O170  1  0.17269061  0.86702973  0.86100027  1
  O  O171  1  0.67334641  0.86322106  0.85842307  1
  O  O172  1  0.26190040  0.64508690  0.86204515  1
  O  O173  1  0.75590637  0.64980016  0.86279052  1
  O  O174  1  0.01935026  0.82128860  0.41593664  1
  O  O175  1  0.51953413  0.82481228  0.41709585  1
  O  O176  1  0.41198537  0.97956782  0.41509684  1
  O  O177  1  0.90701338  0.97690137  0.41482078  1
  O  O178  1  0.08380202  0.18306821  0.41673212  1
  O  O179  1  0.58828911  0.20547693  0.41638096  1
  O  O180  1  0.02158652  0.21722628  0.91719896  1
  O  O181  1  0.51393382  0.21289485  0.91643454  1
  O  O182  1  0.08961132  0.96703574  0.91744578  1
  O  O183  1  0.57789941  0.97874058  0.91528701  1
  O  O184  1  0.39538250  0.81776888  0.91592363  1
  O  O185  1  0.91192521  0.84386037  0.91498033  1
  O  O186  1  0.48570638  0.16055188  0.59005552  1
  O  O187  1  0.99985565  0.17451831  0.59153425  1
  O  O188  1  0.09753970  0.00981609  0.59175359  1
  O  O189  1  0.58708321  0.00884144  0.59428550  1
  O  O190  1  0.40687154  0.80428493  0.58867507  1
  O  O191  1  0.91658660  0.82048883  0.58829170  1
  O  O192  1  0.49800826  0.82419876  0.08965700  1
  O  O193  1  0.98635323  0.81206683  0.08929967  1
  O  O194  1  0.41669561  0.00850824  0.08752599  1
  O  O195  1  0.90713767  0.00986411  0.08678487  1
  O  O196  1  0.08919342  0.16369872  0.09117277  1
  O  O197  1  0.59675323  0.18525319  0.08992467  1
  O  O198  1  0.34379635  0.16595181  0.75059141  1
  O  O199  1  0.84287106  0.17819727  0.74584905  1
  O  O200  1  0.24637186  0.32551972  0.74289299  1
  O  O201  1  0.74369890  0.32372335  0.74240865  1
  O  O202  1  0.42387644  0.54063797  0.74665482  1
  O  O203  1  0.92495286  0.53360081  0.74431597  1
  O  O204  1  0.34253322  0.50814766  0.24435657  1
  O  O205  1  0.84195414  0.51580374  0.24896133  1
  O  O206  1  0.42342315  0.31522415  0.24251194  1
  O  O207  1  0.92453881  0.30765386  0.24440496  1
  O  O208  1  0.24108157  0.16350139  0.24275397  1
  O  O209  1  0.74575274  0.16443903  0.24148026  1
  O  O210  1  0.32103710  0.51140939  0.91889686  1
  O  O211  1  0.82440120  0.49956044  0.91630248  1
  O  O212  1  0.43747369  0.36834568  0.91820368  1
  O  O213  1  0.93871365  0.35746752  0.92223139  1
  O  O214  1  0.24354960  0.12439990  0.91602236  1
  O  O215  1  0.75225385  0.14599431  0.92109400  1
  O  O216  1  0.32419468  0.14873698  0.41673178  1
  O  O217  1  0.82758663  0.16274257  0.42179558  1
  O  O218  1  0.25659759  0.36591766  0.42093999  1
  O  O219  1  0.74238734  0.36305877  0.41623959  1
  O  O220  1  0.43607395  0.51998349  0.42272168  1
  O  O221  1  0.93950809  0.51403419  0.41758674  1
  O  O222  1  0.17940099  0.50434848  0.07567410  1
  O  O223  1  0.67554167  0.48837562  0.07462159  1
  O  O224  1  0.07500997  0.66336064  0.07489349  1
  O  O225  1  0.58101261  0.65806014  0.08014465  1
  O  O226  1  0.25213858  0.85131973  0.07432869  1
  O  O227  1  0.75522401  0.85889277  0.07737383  1
  O  O228  1  0.17647585  0.86445016  0.57615111  1
  O  O229  1  0.67811031  0.85211378  0.57823843  1
  O  O230  1  0.25542642  0.65380406  0.57902638  1
  O  O231  1  0.75130632  0.64537801  0.57608709  1
  O  O232  1  0.08303750  0.50673904  0.58196831  1
  O  O233  1  0.57571083  0.48726851  0.57434517  1
  O  O234  1  0.14701169  0.81765511  0.25640002  1
  O  O235  1  0.64734990  0.82585322  0.24992163  1
  O  O236  1  0.25421361  0.66599737  0.25213757  1
  O  O237  1  0.75524478  0.67775407  0.25115785  1
  O  O238  1  0.07718666  0.46556998  0.25320241  1
  O  O239  1  0.57478278  0.45756653  0.25151055  1
  O  O240  1  0.14968148  0.47077640  0.75286608  1
  O  O241  1  0.64714712  0.47851339  0.75582480  1
  O  O242  1  0.07670048  0.69210223  0.75227297  1
  O  O243  1  0.57606009  0.68782824  0.75566945  1
  O  O244  1  0.25556273  0.82992863  0.75353227  1
  O  O245  1  0.75486995  0.84370593  0.75297600  1
