# generated using pymatgen
data_RbZn2P2HO8
_symmetry_space_group_name_H-M   'P 1'
_cell_length_a   5.23563407
_cell_length_b   8.87176955
_cell_length_c   9.71754043
_cell_angle_alpha   75.36214825
_cell_angle_beta   77.45630592
_cell_angle_gamma   73.53354908
_symmetry_Int_Tables_number   1
_chemical_formula_structural   RbZn2P2HO8
_chemical_formula_sum   'Rb2 Zn4 P4 H2 O16'
_cell_volume   413.62588581
_cell_formula_units_Z   2
loop_
 _symmetry_equiv_pos_site_id
 _symmetry_equiv_pos_as_xyz
  1  'x, y, z'
loop_
 _atom_site_type_symbol
 _atom_site_label
 _atom_site_symmetry_multiplicity
 _atom_site_fract_x
 _atom_site_fract_y
 _atom_site_fract_z
 _atom_site_occupancy
  Rb  Rb0  1  0.70903020  0.70444936  0.82323385  1
  Rb  Rb1  1  0.29096980  0.29555064  0.17676615  1
  Zn  Zn2  1  0.80643046  0.88823978  0.38993040  1
  Zn  Zn3  1  0.19356954  0.11176022  0.61006960  1
  Zn  Zn4  1  0.61120219  0.61702085  0.27151185  1
  Zn  Zn5  1  0.38879781  0.38297915  0.72848815  1
  P  P6  1  0.10682033  0.75455298  0.11108853  1
  P  P7  1  0.89317967  0.24544702  0.88891147  1
  P  P8  1  0.66900737  0.24486395  0.44964123  1
  P  P9  1  0.33099263  0.75513605  0.55035877  1
  H  H10  1  0.05721315  0.92563902  0.89965569  1
  H  H11  1  0.94278685  0.07436098  0.10034431  1
  O  O12  1  0.96796074  0.89783434  0.18478573  1
  O  O13  1  0.03203926  0.10216566  0.81521427  1
  O  O14  1  0.06460520  0.80985196  0.94839191  1
  O  O15  1  0.93539480  0.19014804  0.05160809  1
  O  O16  1  0.64432142  0.11198114  0.38261310  1
  O  O17  1  0.35567858  0.88801886  0.61738690  1
  O  O18  1  0.95503433  0.22632633  0.47415183  1
  O  O19  1  0.04496567  0.77367367  0.52584817  1
  O  O20  1  0.59091638  0.29614725  0.88825680  1
  O  O21  1  0.40908362  0.70385275  0.11174320  1
  O  O22  1  0.43083088  0.59527730  0.64866569  1
  O  O23  1  0.56916912  0.40472270  0.35133431  1
  O  O24  1  0.47250682  0.23302468  0.59735861  1
  O  O25  1  0.52749318  0.76697532  0.40264139  1
  O  O26  1  0.02134995  0.38627638  0.82449192  1
  O  O27  1  0.97865005  0.61372362  0.17550808  1
