# generated using pymatgen
data_Na8Mg(NiO4)2
_symmetry_space_group_name_H-M   'P 1'
_cell_length_a   9.07760622
_cell_length_b   5.59296095
_cell_length_c   5.90557557
_cell_angle_alpha   70.42992973
_cell_angle_beta   110.70598994
_cell_angle_gamma   99.76348036
_symmetry_Int_Tables_number   1
_chemical_formula_structural   Na8Mg(NiO4)2
_chemical_formula_sum   'Na8 Mg1 Ni2 O8'
_cell_volume   263.81625720
_cell_formula_units_Z   1
loop_
 _symmetry_equiv_pos_site_id
 _symmetry_equiv_pos_as_xyz
  1  'x, y, z'
loop_
 _atom_site_type_symbol
 _atom_site_label
 _atom_site_symmetry_multiplicity
 _atom_site_fract_x
 _atom_site_fract_y
 _atom_site_fract_z
 _atom_site_occupancy
  Na  Na0  1  0.16731540  0.02071863  0.63793804  1
  Na  Na1  1  0.16326484  0.51673283  0.14822341  1
  Na  Na2  1  0.33126334  0.54207502  0.72349648  1
  Na  Na3  1  0.34329747  0.03499592  0.24389561  1
  Na  Na4  1  0.52305787  0.02667659  0.83160195  1
  Na  Na5  1  0.73936364  0.53019304  0.91897461  1
  Na  Na6  1  0.80496231  0.85576747  0.28299233  1
  Na  Na7  1  0.95843762  0.50897552  0.60927910  1
  Mg  Mg8  1  0.72195924  0.08532621  0.57251128  1
  Ni  Ni9  1  0.50350758  0.56632719  0.34552289  1
  Ni  Ni10  1  0.99799461  0.00874047  0.97895095  1
  O  O11  1  0.14637815  0.25810630  0.89880622  1
  O  O12  1  0.07017494  0.78712686  0.30179472  1
  O  O13  1  0.37585325  0.75147110  0.03107616  1
  O  O14  1  0.37492825  0.30905203  0.49471858  1
  O  O15  1  0.56039420  0.79884422  0.54671796  1
  O  O16  1  0.68209353  0.43560649  0.32476050  1
  O  O17  1  0.91528545  0.87588399  0.69447120  1
  O  O18  1  0.79702433  0.14585613  0.91172501  1
