# generated using pymatgen
data_ZrSiGe(SO6)2
_symmetry_space_group_name_H-M   'P 1'
_cell_length_a   8.72563137
_cell_length_b   8.71634149
_cell_length_c   22.62666826
_cell_angle_alpha   89.69519580
_cell_angle_beta   90.03175014
_cell_angle_gamma   119.82745813
_symmetry_Int_Tables_number   1
_chemical_formula_structural   ZrSiGe(SO6)2
_chemical_formula_sum   'Zr6 Si6 Ge6 S12 O72'
_cell_volume   1492.88857162
_cell_formula_units_Z   6
loop_
 _symmetry_equiv_pos_site_id
 _symmetry_equiv_pos_as_xyz
  1  'x, y, z'
loop_
 _atom_site_type_symbol
 _atom_site_label
 _atom_site_symmetry_multiplicity
 _atom_site_fract_x
 _atom_site_fract_y
 _atom_site_fract_z
 _atom_site_occupancy
  Zr  Zr0  1  0.98158425  0.00900979  0.35555169  1
  Zr  Zr1  1  0.01023138  0.02428650  0.64675834  1
  Zr  Zr2  1  0.01216368  0.02047098  0.13625439  1
  Zr  Zr3  1  0.67282436  0.33771551  0.69226872  1
  Zr  Zr4  1  0.67426079  0.32609865  0.47592016  1
  Zr  Zr5  1  0.33285448  0.66858937  0.30480856  1
  Si  Si6  1  0.97322907  0.28817809  0.24429697  1
  Si  Si7  1  0.28617098  0.30294702  0.75839789  1
  Si  Si8  1  0.97648678  0.35749613  0.58261570  1
  Si  Si9  1  0.40390289  0.35844788  0.07819156  1
  Si  Si10  1  0.33428250  0.94264623  0.91785813  1
  Si  Si11  1  0.60567596  0.93502436  0.42027301  1
  Ge  Ge12  1  0.02850937  0.00155042  0.85849945  1
  Ge  Ge13  1  0.66398510  0.34124671  0.18185517  1
  Ge  Ge14  1  0.64577286  0.31242591  0.97442971  1
  Ge  Ge15  1  0.32465650  0.65991671  0.01918561  1
  Ge  Ge16  1  0.33749861  0.66566175  0.52224220  1
  Ge  Ge17  1  0.34203935  0.67086512  0.81778418  1
  S  S18  1  0.29773613  0.01791741  0.24613884  1
  S  S19  1  0.71762450  0.70057665  0.24587963  1
  S  S20  1  0.01191054  0.71934200  0.75656784  1
  S  S21  1  0.70962920  0.98761201  0.75719856  1
  S  S22  1  0.37893987  0.03333158  0.58357999  1
  S  S23  1  0.65756977  0.62428833  0.58317809  1
  S  S24  1  0.95255630  0.60592771  0.07812142  1
  S  S25  1  0.65032117  0.04418509  0.07877627  1
  S  S26  1  0.63227387  0.66947144  0.91622144  1
  S  S27  1  0.03683343  0.37128812  0.91893421  1
  S  S28  1  0.32857385  0.38263363  0.41871225  1
  S  S29  1  0.05588961  0.67603732  0.41746823  1
  O  O30  1  0.21636196  0.03910822  0.29988665  1
  O  O31  1  0.82308017  0.77971011  0.29995612  1
  O  O32  1  0.94219883  0.16555687  0.30343200  1
  O  O33  1  0.19548598  0.16548969  0.81446593  1
  O  O34  1  0.96780528  0.79455909  0.80929166  1
  O  O35  1  0.82197153  0.02016394  0.80959259  1
  O  O36  1  0.78454525  0.95573207  0.70305373  1
  O  O37  1  0.16290355  0.21551961  0.70014733  1
  O  O38  1  0.03794247  0.82559397  0.70324620  1
  O  O39  1  0.79905835  0.80923769  0.19348606  1
  O  O40  1  0.01353850  0.19343601  0.18948242  1
  O  O41  1  0.18309127  0.97981448  0.19398215  1
  O  O42  1  0.87927700  0.38072864  0.64045518  1
  O  O43  1  0.48883829  0.11863213  0.63614449  1
  O  O44  1  0.62752463  0.50950349  0.63577119  1
  O  O45  1  0.87843056  0.49533509  0.13274087  1
  O  O46  1  0.62062469  0.12445508  0.13184198  1
  O  O47  1  0.52300862  0.39044405  0.13855290  1
  O  O48  1  0.48707994  0.31409713  0.02116616  1
  O  O49  1  0.84333652  0.52833323  0.02519626  1
  O  O50  1  0.70021415  0.16205096  0.02566884  1
  O  O51  1  0.45062116  0.14766938  0.53091728  1
  O  O52  1  0.68303171  0.54499875  0.52983262  1
  O  O53  1  0.84940379  0.32041126  0.52606421  1
  O  O54  1  0.55352784  0.70368299  0.96876228  1
  O  O55  1  0.15410854  0.44380039  0.97197917  1
  O  O56  1  0.29595070  0.81202618  0.97547859  1
  O  O57  1  0.51577403  0.81498069  0.47940728  1
  O  O58  1  0.29150112  0.45654461  0.47228056  1
  O  O59  1  0.15957533  0.69753144  0.47158188  1
  O  O60  1  0.12794821  0.63658231  0.36462057  1
  O  O61  1  0.49735096  0.84951135  0.36069645  1
  O  O62  1  0.34974879  0.48438316  0.36449205  1
  O  O63  1  0.11447447  0.48667086  0.86653735  1
  O  O64  1  0.37060236  0.85214866  0.86004121  1
  O  O65  1  0.51373095  0.62590361  0.86356597  1
  O  O66  1  0.04966435  0.83904171  0.40864217  1
  O  O67  1  0.79957533  0.95307512  0.41415074  1
  O  O68  1  0.17612670  0.20308745  0.41223890  1
  O  O69  1  0.00854665  0.19006559  0.91037882  1
  O  O70  1  0.15606806  0.95983656  0.91035498  1
  O  O71  1  0.80640621  0.83266424  0.90617525  1
  O  O72  1  0.99041897  0.17967745  0.59028049  1
  O  O73  1  0.19885928  0.00400086  0.59294113  1
  O  O74  1  0.81381096  0.79782981  0.59320734  1
  O  O75  1  0.97202670  0.78150828  0.08728250  1
  O  O76  1  0.80252893  0.01581422  0.08655498  1
  O  O77  1  0.21108656  0.18503501  0.08765190  1
  O  O78  1  0.68907946  0.14468060  0.74784271  1
  O  O79  1  0.47640045  0.32129620  0.74347068  1
  O  O80  1  0.85495013  0.54208062  0.74981414  1
  O  O81  1  0.70075799  0.52346555  0.24060922  1
  O  O82  1  0.79699228  0.30003535  0.23009370  1
  O  O83  1  0.46969683  0.17950625  0.23714966  1
  O  O84  1  0.65920940  0.51418572  0.92369100  1
  O  O85  1  0.86200772  0.36145397  0.92865078  1
  O  O86  1  0.51035850  0.13802045  0.92565839  1
  O  O87  1  0.62601595  0.12903625  0.42545999  1
  O  O88  1  0.49024689  0.37341836  0.42591339  1
  O  O89  1  0.87350824  0.52653970  0.42361271  1
  O  O90  1  0.37730130  0.53067489  0.06654348  1
  O  O91  1  0.13131484  0.62233266  0.07243222  1
  O  O92  1  0.48944318  0.87135143  0.07101476  1
  O  O93  1  0.36963695  0.86192918  0.57603872  1
  O  O94  1  0.49619876  0.63957459  0.57807046  1
  O  O95  1  0.16920208  0.52962932  0.57098247  1
  O  O96  1  0.32404108  0.86345986  0.25236446  1
  O  O97  1  0.53975676  0.67976622  0.25300474  1
  O  O98  1  0.14462563  0.47829521  0.25617622  1
  O  O99  1  0.30128040  0.49523159  0.77109535  1
  O  O100  1  0.17162328  0.70504289  0.76530650  1
  O  O101  1  0.53157858  0.82782127  0.76335870  1
