# generated using pymatgen
data_CaV2O6
_symmetry_space_group_name_H-M   'P 1'
_cell_length_a   3.64334578
_cell_length_b   5.34623669
_cell_length_c   7.13805323
_cell_angle_alpha   103.19101996
_cell_angle_beta   90.00000000
_cell_angle_gamma   109.92192196
_symmetry_Int_Tables_number   1
_chemical_formula_structural   CaV2O6
_chemical_formula_sum   'Ca1 V2 O6'
_cell_volume   126.80711746
_cell_formula_units_Z   1
loop_
 _symmetry_equiv_pos_site_id
 _symmetry_equiv_pos_as_xyz
  1  'x, y, z'
loop_
 _atom_site_type_symbol
 _atom_site_label
 _atom_site_symmetry_multiplicity
 _atom_site_fract_x
 _atom_site_fract_y
 _atom_site_fract_z
 _atom_site_occupancy
  Ca  Ca0  1  -0.00000000  -0.00000000  0.00000000  1
  V  V1  1  0.23270965  0.46541830  0.66953380  1
  V  V2  1  0.76728935  0.53458170  0.33046620  1
  O  O3  1  0.75014961  0.50030021  0.60223646  1
  O  O4  1  0.24985039  0.49969979  0.39776254  1
  O  O5  1  0.35668903  0.71337806  0.87688930  1
  O  O6  1  0.08318404  0.16636709  0.72296589  1
  O  O7  1  0.64331097  0.28662194  0.12310970  1
  O  O8  1  0.91681596  0.83363291  0.27703311  1
