# generated using pymatgen
data_Na7Ti3ZnSi3(PO8)3
_symmetry_space_group_name_H-M   'P 1'
_cell_length_a   8.98140031
_cell_length_b   8.97600227
_cell_length_c   21.91045137
_cell_angle_alpha   90.00933996
_cell_angle_beta   90.27006048
_cell_angle_gamma   119.97291927
_symmetry_Int_Tables_number   1
_chemical_formula_structural   Na7Ti3ZnSi3(PO8)3
_chemical_formula_sum   'Na21 Ti9 Zn3 Si9 P9 O72'
_cell_volume   1530.10330023
_cell_formula_units_Z   3
loop_
 _symmetry_equiv_pos_site_id
 _symmetry_equiv_pos_as_xyz
  1  'x, y, z'
loop_
 _atom_site_type_symbol
 _atom_site_label
 _atom_site_symmetry_multiplicity
 _atom_site_fract_x
 _atom_site_fract_y
 _atom_site_fract_z
 _atom_site_occupancy
  Na  Na0  1  0.63539483  0.01185577  0.24492735  1
  Na  Na1  1  0.37872735  0.36682719  0.24474775  1
  Na  Na2  1  0.98905580  0.62708667  0.24701218  1
  Na  Na3  1  0.62860715  0.61723350  0.74597096  1
  Na  Na4  1  0.98654905  0.37105600  0.74366481  1
  Na  Na5  1  0.38112421  0.00922244  0.74491381  1
  Na  Na6  1  0.02989853  0.69180797  0.58473390  1
  Na  Na7  1  0.66422719  0.96903936  0.58126049  1
  Na  Na8  1  0.30957896  0.97117972  0.08319938  1
  Na  Na9  1  0.66120146  0.68802270  0.08635959  1
  Na  Na10  1  0.02804926  0.33756788  0.08084088  1
  Na  Na11  1  0.33320486  0.29553017  0.91699345  1
  Na  Na12  1  0.96491801  0.28349742  0.41351338  1
  Na  Na13  1  0.31936550  0.03608701  0.41474408  1
  Na  Na14  1  0.71670871  0.67981602  0.41485773  1
  Na  Na15  1  0.00940320  0.01113353  0.49566368  1
  Na  Na16  1  0.98820257  0.99108525  0.99607830  1
  Na  Na17  1  0.68266465  0.34012476  0.83353322  1
  Na  Na18  1  0.66452370  0.33375079  0.33033074  1
  Na  Na19  1  0.33745018  0.66880387  0.16546409  1
  Na  Na20  1  0.32934155  0.65012324  0.66356092  1
  Ti  Ti21  1  0.98791407  0.98892319  0.85653662  1
  Ti  Ti22  1  0.00785327  0.00476756  0.64501397  1
  Ti  Ti23  1  0.00075708  0.00589978  0.14640185  1
  Ti  Ti24  1  0.67149865  0.33001444  0.97921135  1
  Ti  Ti25  1  0.67056215  0.32947233  0.47971708  1
  Ti  Ti26  1  0.34101832  0.66311441  0.01619388  1
  Ti  Ti27  1  0.32844351  0.65727933  0.51836242  1
  Ti  Ti28  1  0.33355457  0.66651132  0.31724410  1
  Ti  Ti29  1  0.32307627  0.66058772  0.81585983  1
  Zn  Zn30  1  0.99858128  0.99931424  0.35484065  1
  Zn  Zn31  1  0.67732240  0.34456970  0.68032186  1
  Zn  Zn32  1  0.66143397  0.33017348  0.17560497  1
  Si  Si33  1  0.00410763  0.71345177  0.75031908  1
  Si  Si34  1  0.96633737  0.33477397  0.58582585  1
  Si  Si35  1  0.66373975  0.03760832  0.08497129  1
  Si  Si36  1  0.37340665  0.33395110  0.08323256  1
  Si  Si37  1  0.62526653  0.66354785  0.91506769  1
  Si  Si38  1  0.03618761  0.37296118  0.91645708  1
  Si  Si39  1  0.61877129  0.95714541  0.41922744  1
  Si  Si40  1  0.34021711  0.37883830  0.41621876  1
  Si  Si41  1  0.04143061  0.66179801  0.41779014  1
  P  P42  1  0.29045416  0.99688240  0.25191323  1
  P  P43  1  0.70708064  0.70915512  0.25129962  1
  P  P44  1  0.00205882  0.29593349  0.25133554  1
  P  P45  1  0.28340159  0.28703106  0.75277828  1
  P  P46  1  0.71108975  0.99418837  0.75003443  1
  P  P47  1  0.37503791  0.04371735  0.58507666  1
  P  P48  1  0.66493376  0.62638550  0.58500810  1
  P  P49  1  0.96051354  0.62707045  0.08381487  1
  P  P50  1  0.33463291  0.95640024  0.91679180  1
  O  O51  1  0.20767404  0.01587701  0.30966156  1
  O  O52  1  0.80824294  0.79050289  0.30967746  1
  O  O53  1  0.97917475  0.19215758  0.30889497  1
  O  O54  1  0.19696574  0.18459787  0.81068733  1
  O  O55  1  0.98978102  0.82487623  0.80740382  1
  O  O56  1  0.82811789  0.01744983  0.80611959  1
  O  O57  1  0.79932723  0.97388994  0.69176537  1
  O  O58  1  0.16592898  0.19310289  0.69592839  1
  O  O59  1  0.02789996  0.83259566  0.68918701  1
  O  O60  1  0.80533263  0.82363197  0.19384636  1
  O  O61  1  0.01769074  0.19531890  0.19367723  1
  O  O62  1  0.17670295  0.98132391  0.19390548  1
  O  O63  1  0.89437105  0.37791920  0.64656843  1
  O  O64  1  0.48068233  0.12099536  0.64345547  1
  O  O65  1  0.63833811  0.53024333  0.64509738  1
  O  O66  1  0.89614756  0.52365718  0.14295054  1
  O  O67  1  0.62241840  0.10585250  0.14672082  1
  O  O68  1  0.48831551  0.38488441  0.14442967  1
  O  O69  1  0.46614304  0.29769944  0.02528066  1
  O  O70  1  0.83354854  0.53309603  0.03024984  1
  O  O71  1  0.70163424  0.17557564  0.02927577  1
  O  O72  1  0.46522610  0.15422229  0.52782557  1
  O  O73  1  0.69048079  0.53211404  0.52993117  1
  O  O74  1  0.83263639  0.30455489  0.52752328  1
  O  O75  1  0.53043822  0.68766394  0.97562775  1
  O  O76  1  0.16288792  0.47381263  0.97449897  1
  O  O77  1  0.31401635  0.84800248  0.97425025  1
  O  O78  1  0.52262054  0.84092195  0.47859305  1
  O  O79  1  0.31469470  0.48324952  0.47268441  1
  O  O80  1  0.16271827  0.68708068  0.47716305  1
  O  O81  1  0.13419956  0.62979198  0.35691943  1
  O  O82  1  0.49511817  0.86258063  0.35776986  1
  O  O83  1  0.36939243  0.50126364  0.35479463  1
  O  O84  1  0.13317697  0.49511972  0.85572777  1
  O  O85  1  0.35283092  0.86467088  0.85897272  1
  O  O86  1  0.49801414  0.63882902  0.85663198  1
  O  O87  1  0.01984804  0.82812174  0.41567301  1
  O  O88  1  0.80771685  0.98119952  0.41629424  1
  O  O89  1  0.17218185  0.19238904  0.41449997  1
  O  O90  1  0.03119967  0.18916800  0.91173176  1
  O  O91  1  0.17694292  0.98249164  0.91240483  1
  O  O92  1  0.81482051  0.83554198  0.91071251  1
  O  O93  1  0.97157489  0.15382376  0.58925021  1
  O  O94  1  0.19038697  0.02189104  0.58738291  1
  O  O95  1  0.83495851  0.80792947  0.58687536  1
  O  O96  1  0.97531050  0.80828341  0.08808215  1
  O  O97  1  0.83778992  0.01708788  0.08946725  1
  O  O98  1  0.18013970  0.15823635  0.09004593  1
  O  O99  1  0.68849152  0.15183536  0.74906415  1
  O  O100  1  0.46178638  0.30621514  0.74816077  1
  O  O101  1  0.83333840  0.52619931  0.75163018  1
  O  O102  1  0.68463593  0.52870055  0.24647867  1
  O  O103  1  0.84806817  0.32328623  0.24491822  1
  O  O104  1  0.47142807  0.15363543  0.24787694  1
  O  O105  1  0.63235828  0.48684798  0.92205459  1
  O  O106  1  0.84848139  0.35618496  0.92351617  1
  O  O107  1  0.49686519  0.13688527  0.92054610  1
  O  O108  1  0.62750623  0.14513667  0.42246815  1
  O  O109  1  0.51673666  0.37046830  0.42294625  1
  O  O110  1  0.85386222  0.48433133  0.42307968  1
  O  O111  1  0.33874257  0.49769400  0.07477543  1
  O  O112  1  0.14363903  0.65631519  0.07371710  1
  O  O113  1  0.49696377  0.84457260  0.07480460  1
  O  O114  1  0.35010270  0.85973261  0.57985722  1
  O  O115  1  0.51428065  0.66220709  0.57779065  1
  O  O116  1  0.15638511  0.50440627  0.57686312  1
  O  O117  1  0.29794756  0.82521559  0.25087975  1
  O  O118  1  0.52809688  0.70141776  0.25016630  1
  O  O119  1  0.17461254  0.47250709  0.25000090  1
  O  O120  1  0.29722892  0.46852538  0.75303684  1
  O  O121  1  0.18268173  0.70172176  0.75394839  1
  O  O122  1  0.53308778  0.82638257  0.75379399  1
