# generated using pymatgen
data_WO3
_symmetry_space_group_name_H-M   'P 1'
_cell_length_a   7.69379305
_cell_length_b   7.68587757
_cell_length_c   7.75876421
_cell_angle_alpha   90.00000000
_cell_angle_beta   90.00000000
_cell_angle_gamma   90.00000000
_symmetry_Int_Tables_number   1
_chemical_formula_structural   WO3
_chemical_formula_sum   'W8 O24'
_cell_volume   458.80328245
_cell_formula_units_Z   8
loop_
 _symmetry_equiv_pos_site_id
 _symmetry_equiv_pos_as_xyz
  1  'x, y, z'
loop_
 _atom_site_type_symbol
 _atom_site_label
 _atom_site_symmetry_multiplicity
 _atom_site_fract_x
 _atom_site_fract_y
 _atom_site_fract_z
 _atom_site_occupancy
  W  W0  1  0.25935618  0.50663682  0.73554017  1
  W  W1  1  0.24064382  0.00663682  0.76445983  1
  W  W2  1  0.74064382  0.49336318  0.26445983  1
  W  W3  1  0.75935618  0.99336318  0.23554017  1
  W  W4  1  0.24064382  0.50663682  0.23554017  1
  W  W5  1  0.25935618  0.00663682  0.26445983  1
  W  W6  1  0.75935618  0.49336318  0.76445983  1
  W  W7  1  0.74064382  0.99336318  0.73554017  1
  O  O8  1  0.00200321  0.52160225  0.75801062  1
  O  O9  1  0.49799679  0.02160225  0.74198938  1
  O  O10  1  0.99799679  0.47839775  0.24198938  1
  O  O11  1  0.50200321  0.97839775  0.25801062  1
  O  O12  1  0.99799679  0.97839775  0.75801062  1
  O  O13  1  0.50200321  0.47839775  0.74198938  1
  O  O14  1  0.00200321  0.02160225  0.24198938  1
  O  O15  1  0.49799679  0.52160225  0.25801062  1
  O  O16  1  0.27190055  0.75187712  0.74892915  1
  O  O17  1  0.22809945  0.25187712  0.75107085  1
  O  O18  1  0.72809945  0.24812288  0.25107085  1
  O  O19  1  0.77190055  0.74812288  0.24892915  1
  O  O20  1  0.22809945  0.75187712  0.24892915  1
  O  O21  1  0.27190055  0.25187712  0.25107085  1
  O  O22  1  0.77190055  0.24812288  0.75107085  1
  O  O23  1  0.72809945  0.74812288  0.74892915  1
  O  O24  1  0.75734833  0.49899958  0.50309511  1
  O  O25  1  0.24265167  0.00100042  0.50309511  1
  O  O26  1  0.74265167  0.49899958  0.00309511  1
  O  O27  1  0.75734833  0.99899958  0.49690489  1
  O  O28  1  0.25734833  0.00100042  0.00309511  1
  O  O29  1  0.24265167  0.50100042  0.49690489  1
  O  O30  1  0.74265167  0.99899958  0.99690489  1
  O  O31  1  0.25734833  0.50100042  0.99690489  1
