# generated using pymatgen
data_Rb2CoCl4
_symmetry_space_group_name_H-M   'P 1'
_cell_length_a   7.16086034
_cell_length_b   9.32396210
_cell_length_c   12.72514693
_cell_angle_alpha   90.00000000
_cell_angle_beta   90.00000000
_cell_angle_gamma   90.00000000
_symmetry_Int_Tables_number   1
_chemical_formula_structural   Rb2CoCl4
_chemical_formula_sum   'Rb8 Co4 Cl16'
_cell_volume   849.62739817
_cell_formula_units_Z   4
loop_
 _symmetry_equiv_pos_site_id
 _symmetry_equiv_pos_as_xyz
  1  'x, y, z'
loop_
 _atom_site_type_symbol
 _atom_site_label
 _atom_site_symmetry_multiplicity
 _atom_site_fract_x
 _atom_site_fract_y
 _atom_site_fract_z
 _atom_site_occupancy
  Rb  Rb0  1  0.25000000  0.36847790  0.08389978  1
  Rb  Rb1  1  0.75000000  0.63152210  0.91610022  1
  Rb  Rb2  1  0.25000000  0.86847790  0.41610022  1
  Rb  Rb3  1  0.75000000  0.13152210  0.58389978  1
  Rb  Rb4  1  0.25000000  0.01769935  0.82512589  1
  Rb  Rb5  1  0.75000000  0.98230065  0.17487411  1
  Rb  Rb6  1  0.25000000  0.51769935  0.67487411  1
  Rb  Rb7  1  0.75000000  0.48230065  0.32512589  1
  Co  Co8  1  0.25000000  0.77202506  0.07548512  1
  Co  Co9  1  0.75000000  0.22797494  0.92451488  1
  Co  Co10  1  0.25000000  0.27202506  0.42451488  1
  Co  Co11  1  0.75000000  0.72797494  0.57548512  1
  Cl  Cl12  1  0.00347587  0.32281368  0.84778840  1
  Cl  Cl13  1  0.50347587  0.67718632  0.15221160  1
  Cl  Cl14  1  0.49652413  0.82281368  0.65221160  1
  Cl  Cl15  1  0.99652413  0.17718632  0.34778840  1
  Cl  Cl16  1  0.99652413  0.67718632  0.15221160  1
  Cl  Cl17  1  0.49652413  0.32281368  0.84778840  1
  Cl  Cl18  1  0.50347587  0.17718632  0.34778840  1
  Cl  Cl19  1  0.00347587  0.82281368  0.65221160  1
  Cl  Cl20  1  0.25000000  0.68418132  0.91002957  1
  Cl  Cl21  1  0.75000000  0.31581868  0.08997043  1
  Cl  Cl22  1  0.25000000  0.18418132  0.58997043  1
  Cl  Cl23  1  0.75000000  0.81581868  0.41002957  1
  Cl  Cl24  1  0.75000000  0.48771838  0.58863810  1
  Cl  Cl25  1  0.25000000  0.51228162  0.41136190  1
  Cl  Cl26  1  0.75000000  0.98771838  0.91136190  1
  Cl  Cl27  1  0.25000000  0.01228162  0.08863810  1
