# generated using pymatgen
data_Na18Ta4Zn8Si9(SO8)9
_symmetry_space_group_name_H-M   'P 1'
_cell_length_a   9.04813279
_cell_length_b   9.09880374
_cell_length_c   22.43802458
_cell_angle_alpha   90.53675676
_cell_angle_beta   89.36689713
_cell_angle_gamma   119.89818427
_symmetry_Int_Tables_number   1
_chemical_formula_structural   Na18Ta4Zn8Si9(SO8)9
_chemical_formula_sum   'Na18 Ta4 Zn8 Si9 S9 O72'
_cell_volume   1601.29869971
_cell_formula_units_Z   1
loop_
 _symmetry_equiv_pos_site_id
 _symmetry_equiv_pos_as_xyz
  1  'x, y, z'
loop_
 _atom_site_type_symbol
 _atom_site_label
 _atom_site_symmetry_multiplicity
 _atom_site_fract_x
 _atom_site_fract_y
 _atom_site_fract_z
 _atom_site_occupancy
  Na  Na0  1  0.65411938  0.02762839  0.25572678  1
  Na  Na1  1  0.35047984  0.33935317  0.25226519  1
  Na  Na2  1  0.99116012  0.63177334  0.24179669  1
  Na  Na3  1  0.64209177  0.63088331  0.73483644  1
  Na  Na4  1  0.98723323  0.34298580  0.73885332  1
  Na  Na5  1  0.37797828  0.03230406  0.74908248  1
  Na  Na6  1  0.29630988  0.34008709  0.59006572  1
  Na  Na7  1  0.02855980  0.69358809  0.58606837  1
  Na  Na8  1  0.67561258  0.95331180  0.58185069  1
  Na  Na9  1  0.27875044  0.94843341  0.08358477  1
  Na  Na10  1  0.67828929  0.70740310  0.08415706  1
  Na  Na11  1  0.03297331  0.33877237  0.09246910  1
  Na  Na12  1  0.97792294  0.99673767  0.49771941  1
  Na  Na13  1  0.00952718  0.98687170  0.99273820  1
  Na  Na14  1  0.64866676  0.31570700  0.82391729  1
  Na  Na15  1  0.66279612  0.31415121  0.33176389  1
  Na  Na16  1  0.31093871  0.66244282  0.16490608  1
  Na  Na17  1  0.33631663  0.65291849  0.65591402  1
  Ta  Ta18  1  0.66780786  0.33795639  0.97594733  1
  Ta  Ta19  1  0.67608727  0.33056102  0.48142069  1
  Ta  Ta20  1  0.33145218  0.67491029  0.31730086  1
  Ta  Ta21  1  0.34184711  0.67777749  0.81390489  1
  Zn  Zn22  1  0.00209395  0.02337032  0.35083673  1
  Zn  Zn23  1  0.02004555  0.01937365  0.84618879  1
  Zn  Zn24  1  0.98085044  0.02122963  0.64761516  1
  Zn  Zn25  1  0.01899804  0.00168379  0.16070225  1
  Zn  Zn26  1  0.66760896  0.33517820  0.68099855  1
  Zn  Zn27  1  0.68040927  0.32862124  0.18714120  1
  Zn  Zn28  1  0.30592748  0.67525328  0.01155440  1
  Zn  Zn29  1  0.35447449  0.66431808  0.51858150  1
  Si  Si30  1  0.29307117  0.00200892  0.25016500  1
  Si  Si31  1  0.00216249  0.29470620  0.24817710  1
  Si  Si32  1  0.29786382  0.29395879  0.74904635  1
  Si  Si33  1  0.71666233  0.00498705  0.75228145  1
  Si  Si34  1  0.96964151  0.34127311  0.58548582  1
  Si  Si35  1  0.67148696  0.62834768  0.58567776  1
  Si  Si36  1  0.95880363  0.62832201  0.08549892  1
  Si  Si37  1  0.32065739  0.96340797  0.92013899  1
  Si  Si38  1  0.63667250  0.96221111  0.42121736  1
  S  S39  1  0.69965870  0.70489836  0.25059714  1
  S  S40  1  0.00522080  0.70706934  0.75289626  1
  S  S41  1  0.37516310  0.04213875  0.58302276  1
  S  S42  1  0.66593967  0.04173595  0.08097053  1
  S  S43  1  0.37868595  0.33792639  0.08181480  1
  S  S44  1  0.62201957  0.66480629  0.91978731  1
  S  S45  1  0.03860763  0.37216715  0.91950760  1
  S  S46  1  0.33817321  0.37413654  0.41741961  1
  S  S47  1  0.03673847  0.66495407  0.41946283  1
  O  O48  1  0.19739790  0.02895058  0.30572387  1
  O  O49  1  0.80891509  0.78391030  0.30144091  1
  O  O50  1  0.95331678  0.16441462  0.30143144  1
  O  O51  1  0.22383496  0.17279660  0.80588876  1
  O  O52  1  0.98030108  0.78838568  0.80576743  1
  O  O53  1  0.82859647  0.02755354  0.81000395  1
  O  O54  1  0.76464258  0.93911848  0.69135285  1
  O  O55  1  0.18008694  0.22935957  0.68915327  1
  O  O56  1  0.04696256  0.80650271  0.69797708  1
  O  O57  1  0.76316307  0.80580960  0.19450485  1
  O  O58  1  0.04657719  0.22592898  0.18534400  1
  O  O59  1  0.18391474  0.94001554  0.18784430  1
  O  O60  1  0.88499092  0.36934230  0.64505403  1
  O  O61  1  0.47510802  0.11422649  0.63785046  1
  O  O62  1  0.63497176  0.51166706  0.64379902  1
  O  O63  1  0.86823031  0.51245240  0.14333748  1
  O  O64  1  0.63362324  0.11176234  0.13609289  1
  O  O65  1  0.47452249  0.35727839  0.13658708  1
  O  O66  1  0.47535679  0.31816485  0.02865531  1
  O  O67  1  0.82926853  0.51425546  0.02718876  1
  O  O68  1  0.68057172  0.15512210  0.02885854  1
  O  O69  1  0.47181315  0.15562559  0.52985339  1
  O  O70  1  0.68008166  0.51053363  0.52650852  1
  O  O71  1  0.83362001  0.31349232  0.52746245  1
  O  O72  1  0.53558551  0.67427219  0.97476498  1
  O  O73  1  0.13536287  0.45039652  0.97466277  1
  O  O74  1  0.31591053  0.87224129  0.98189066  1
  O  O75  1  0.53786783  0.85911494  0.47940315  1
  O  O76  1  0.31564442  0.45263345  0.47147642  1
  O  O77  1  0.13444300  0.68006900  0.47183687  1
  O  O78  1  0.12627618  0.63843315  0.36346689  1
  O  O79  1  0.50317674  0.85491951  0.36177685  1
  O  O80  1  0.35561469  0.48360977  0.36285246  1
  O  O81  1  0.12094862  0.48160954  0.86672295  1
  O  O82  1  0.35224498  0.85736064  0.86364746  1
  O  O83  1  0.51029502  0.63622910  0.86621729  1
  O  O84  1  0.01425752  0.81019060  0.40898360  1
  O  O85  1  0.82084193  0.98092562  0.41142443  1
  O  O86  1  0.19226811  0.20424021  0.41095574  1
  O  O87  1  0.00729880  0.20095191  0.91451576  1
  O  O88  1  0.15775403  0.98470809  0.91183000  1
  O  O89  1  0.79069996  0.80719947  0.91264659  1
  O  O90  1  0.97854006  0.16754149  0.57994923  1
  O  O91  1  0.20958098  0.03547859  0.58355185  1
  O  O92  1  0.85182267  0.80750871  0.58320149  1
  O  O93  1  0.96867579  0.81340313  0.08343454  1
  O  O94  1  0.82696787  0.03794374  0.08137088  1
  O  O95  1  0.20976394  0.18344899  0.07986753  1
  O  O96  1  0.67852493  0.16126667  0.74691489  1
  O  O97  1  0.49516617  0.33499835  0.74481449  1
  O  O98  1  0.85979503  0.53310894  0.74907424  1
  O  O99  1  0.66677033  0.52887411  0.24390365  1
  O  O100  1  0.84496029  0.33553032  0.24686674  1
  O  O101  1  0.48570761  0.16631127  0.24299252  1
  O  O102  1  0.63345107  0.49998566  0.92233103  1
  O  O103  1  0.86309422  0.36348664  0.92403768  1
  O  O104  1  0.50757108  0.15546462  0.92566329  1
  O  O105  1  0.64105309  0.15168087  0.42216995  1
  O  O106  1  0.50120681  0.36782545  0.41847218  1
  O  O107  1  0.86529026  0.50143571  0.41958779  1
  O  O108  1  0.36632949  0.49327117  0.07407501  1
  O  O109  1  0.14677896  0.63956279  0.08073550  1
  O  O110  1  0.52013163  0.86637035  0.07480592  1
  O  O111  1  0.35269021  0.87104712  0.57587565  1
  O  O112  1  0.50417553  0.65101967  0.58089804  1
  O  O113  1  0.15121987  0.51406675  0.57465658  1
  O  O114  1  0.31782728  0.82728541  0.26162331  1
  O  O115  1  0.52209282  0.68736191  0.25878226  1
  O  O116  1  0.18180380  0.48650502  0.26022169  1
  O  O117  1  0.30884812  0.48608521  0.76522011  1
  O  O118  1  0.16479396  0.68446660  0.76174280  1
  O  O119  1  0.51445166  0.82724670  0.76332626  1
