# generated using pymatgen
data_Na4NbIn3(PO4)6
_symmetry_space_group_name_H-M   'P 1'
_cell_length_a   8.98864552
_cell_length_b   8.98224176
_cell_length_c   22.84194009
_cell_angle_alpha   89.93457061
_cell_angle_beta   90.09898390
_cell_angle_gamma   120.02773585
_symmetry_Int_Tables_number   1
_chemical_formula_structural   Na4NbIn3(PO4)6
_chemical_formula_sum   'Na12 Nb3 In9 P18 O72'
_cell_volume   1596.68960221
_cell_formula_units_Z   3
loop_
 _symmetry_equiv_pos_site_id
 _symmetry_equiv_pos_as_xyz
  1  'x, y, z'
loop_
 _atom_site_type_symbol
 _atom_site_label
 _atom_site_symmetry_multiplicity
 _atom_site_fract_x
 _atom_site_fract_y
 _atom_site_fract_z
 _atom_site_occupancy
  Na  Na0  1  0.63622662  0.99945190  0.25075077  1
  Na  Na1  1  0.36299715  0.36351282  0.25061937  1
  Na  Na2  1  0.99971283  0.63716633  0.24995046  1
  Na  Na3  1  0.29846021  0.33379121  0.58608349  1
  Na  Na4  1  0.03672828  0.69965595  0.58594671  1
  Na  Na5  1  0.66454268  0.70266218  0.08020962  1
  Na  Na6  1  0.98765645  0.99892722  0.49672916  1
  Na  Na7  1  0.01261008  0.01173695  0.99547432  1
  Na  Na8  1  0.66680278  0.33348081  0.82635191  1
  Na  Na9  1  0.66653609  0.33307013  0.33488204  1
  Na  Na10  1  0.32009819  0.66617096  0.16110119  1
  Na  Na11  1  0.35002985  0.68201399  0.66723843  1
  Nb  Nb12  1  0.66656291  0.33124397  0.97767116  1
  Nb  Nb13  1  0.66686187  0.33137039  0.48001845  1
  Nb  Nb14  1  0.33189391  0.66582118  0.81403180  1
  In  In15  1  0.00139494  0.00043455  0.35298549  1
  In  In16  1  0.99914551  0.99929623  0.85061606  1
  In  In17  1  0.99185689  0.99929252  0.65303293  1
  In  In18  1  0.00708090  0.00643555  0.14453069  1
  In  In19  1  0.66675214  0.33035902  0.68750434  1
  In  In20  1  0.66657777  0.33034122  0.17945568  1
  In  In21  1  0.32695895  0.66637566  0.01556103  1
  In  In22  1  0.33953098  0.67275270  0.51439332  1
  In  In23  1  0.33431664  0.66754594  0.32291554  1
  P  P24  1  0.29438496  0.99875338  0.24997256  1
  P  P25  1  0.70421680  0.70495852  0.24824578  1
  P  P26  1  0.00137431  0.29597454  0.25017281  1
  P  P27  1  0.29665209  0.29787574  0.75015990  1
  P  P28  1  0.00115496  0.70360960  0.74997219  1
  P  P29  1  0.70199065  0.99839108  0.75222551  1
  P  P30  1  0.95825287  0.33238762  0.58294099  1
  P  P31  1  0.37506531  0.04067996  0.58366855  1
  P  P32  1  0.66603423  0.62346792  0.58328793  1
  P  P33  1  0.96076528  0.62547093  0.08307760  1
  P  P34  1  0.66585788  0.03802281  0.08252821  1
  P  P35  1  0.37436255  0.33388683  0.08189690  1
  P  P36  1  0.62634224  0.66718206  0.91895068  1
  P  P37  1  0.04068558  0.37259959  0.91739783  1
  P  P38  1  0.33194654  0.95926324  0.91706464  1
  P  P39  1  0.63548441  0.96862645  0.41625643  1
  P  P40  1  0.33382981  0.36584239  0.41853000  1
  P  P41  1  0.03165448  0.66607977  0.41829253  1
  O  O42  1  0.21809776  0.03683965  0.30395752  1
  O  O43  1  0.82214927  0.78739410  0.30111818  1
  O  O44  1  0.96439652  0.18124722  0.30405442  1
  O  O45  1  0.20826793  0.18501331  0.80252687  1
  O  O46  1  0.97611053  0.79078648  0.80256301  1
  O  O47  1  0.81140663  0.02513469  0.80588409  1
  O  O48  1  0.76602521  0.95662000  0.69532255  1
  O  O49  1  0.19555042  0.23461746  0.69142509  1
  O  O50  1  0.03853145  0.80518360  0.69134318  1
  O  O51  1  0.77794168  0.81130511  0.19121904  1
  O  O52  1  0.03769054  0.21993399  0.19516317  1
  O  O53  1  0.18128954  0.96217770  0.19502512  1
  O  O54  1  0.88156184  0.36752268  0.63669887  1
  O  O55  1  0.47875217  0.11963187  0.63846297  1
  O  O56  1  0.63396985  0.51276446  0.63733575  1
  O  O57  1  0.88828741  0.53264080  0.14205453  1
  O  O58  1  0.64342675  0.10829579  0.14136548  1
  O  O59  1  0.47362128  0.36191513  0.14023947  1
  O  O60  1  0.48171763  0.32060518  0.02967211  1
  O  O61  1  0.83771997  0.51764386  0.03097849  1
  O  O62  1  0.67809569  0.15751785  0.03017952  1
  O  O63  1  0.47472088  0.15700750  0.52908979  1
  O  O64  1  0.68547559  0.52449515  0.52886432  1
  O  O65  1  0.84376778  0.31607173  0.52811365  1
  O  O66  1  0.55327335  0.69069219  0.97649792  1
  O  O67  1  0.14315913  0.44777719  0.97326944  1
  O  O68  1  0.30679995  0.85870906  0.97322686  1
  O  O69  1  0.54855421  0.85616989  0.46914851  1
  O  O70  1  0.31095529  0.44997961  0.47344006  1
  O  O71  1  0.13767735  0.68791447  0.47348847  1
  O  O72  1  0.10265534  0.63121517  0.36138465  1
  O  O73  1  0.53221457  0.90259483  0.35836191  1
  O  O74  1  0.36987068  0.47183833  0.36142691  1
  O  O75  1  0.13245985  0.49443016  0.86396467  1
  O  O76  1  0.35983399  0.86624933  0.86378712  1
  O  O77  1  0.50261399  0.63980914  0.86648837  1
  O  O78  1  0.00459262  0.82032067  0.41392618  1
  O  O79  1  0.81705781  0.99676178  0.41285282  1
  O  O80  1  0.17956124  0.18485600  0.41415639  1
  O  O81  1  0.00879991  0.19159861  0.90994092  1
  O  O82  1  0.18325062  0.99222609  0.90976367  1
  O  O83  1  0.80726300  0.81694871  0.91099053  1
  O  O84  1  0.97715251  0.17055696  0.58446978  1
  O  O85  1  0.19805459  0.03401688  0.58391395  1
  O  O86  1  0.83673292  0.79750868  0.58467639  1
  O  O87  1  0.95786710  0.79654457  0.08196713  1
  O  O88  1  0.83110711  0.02499501  0.08148203  1
  O  O89  1  0.20004572  0.16811928  0.08116307  1
  O  O90  1  0.67109158  0.15069415  0.74712277  1
  O  O91  1  0.48022839  0.32954377  0.74653277  1
  O  O92  1  0.84913454  0.51981018  0.74619833  1
  O  O93  1  0.68131013  0.52082658  0.24461595  1
  O  O94  1  0.83981059  0.31760451  0.24485297  1
  O  O95  1  0.47759765  0.16027164  0.24447212  1
  O  O96  1  0.63630589  0.49553021  0.92475975  1
  O  O97  1  0.86027400  0.36387404  0.92471374  1
  O  O98  1  0.50411072  0.13996995  0.92407218  1
  O  O99  1  0.64918321  0.14921966  0.42602379  1
  O  O100  1  0.50025810  0.35029712  0.42682967  1
  O  O101  1  0.84974681  0.49921638  0.42620162  1
  O  O102  1  0.36436272  0.49930465  0.07625107  1
  O  O103  1  0.13978034  0.64816150  0.07797755  1
  O  O104  1  0.50939704  0.85545508  0.07729673  1
  O  O105  1  0.34208380  0.85526641  0.57740341  1
  O  O106  1  0.50390042  0.63932139  0.57633516  1
  O  O107  1  0.13989892  0.49401768  0.57600542  1
  O  O108  1  0.31463249  0.83668887  0.25626633  1
  O  O109  1  0.52256841  0.68559629  0.25547872  1
  O  O110  1  0.16303554  0.47892412  0.25654600  1
  O  O111  1  0.31301891  0.48153284  0.76145607  1
  O  O112  1  0.16863297  0.68797162  0.76101962  1
  O  O113  1  0.51812106  0.83132062  0.76242736  1
