# generated using pymatgen
data_Na5MgSbO5
_symmetry_space_group_name_H-M   'P 1'
_cell_length_a   4.82973700
_cell_length_b   6.03070655
_cell_length_c   6.70168009
_cell_angle_alpha   74.92409393
_cell_angle_beta   90.00000000
_cell_angle_gamma   66.39500816
_symmetry_Int_Tables_number   1
_chemical_formula_structural   Na5MgSbO5
_chemical_formula_sum   'Na5 Mg1 Sb1 O5'
_cell_volume   171.50846820
_cell_formula_units_Z   1
loop_
 _symmetry_equiv_pos_site_id
 _symmetry_equiv_pos_as_xyz
  1  'x, y, z'
loop_
 _atom_site_type_symbol
 _atom_site_label
 _atom_site_symmetry_multiplicity
 _atom_site_fract_x
 _atom_site_fract_y
 _atom_site_fract_z
 _atom_site_occupancy
  Na  Na0  1  0.68642700  0.62714500  0.88574200  1
  Na  Na1  1  0.70403500  0.59193000  0.30895800  1
  Na  Na2  1  0.29596500  0.40807000  0.69104200  1
  Na  Na3  1  0.31357300  0.37285500  0.11425800  1
  Na  Na4  1  0.00000000  0.00000000  0.50000000  1
  Mg  Mg5  1  0.50000000  0.00000000  0.50000000  1
  Sb  Sb6  1  0.00000000  0.00000000  0.00000000  1
  O  O7  1  0.12989300  0.74021300  0.84094500  1
  O  O8  1  0.13870700  0.72258700  0.27203400  1
  O  O9  1  0.86129300  0.27741300  0.72796600  1
  O  O10  1  0.87010700  0.25978700  0.15905500  1
  O  O11  1  0.50000000  0.00000000  0.00000000  1
