# generated using pymatgen
data_MgMnV4O12
_symmetry_space_group_name_H-M   'P 1'
_cell_length_a   6.91893597
_cell_length_b   6.91920742
_cell_length_c   5.94213749
_cell_angle_alpha   73.01395304
_cell_angle_beta   106.98513962
_cell_angle_gamma   102.13978381
_symmetry_Int_Tables_number   1
_chemical_formula_structural   MgMnV4O12
_chemical_formula_sum   'Mg1 Mn1 V4 O12'
_cell_volume   257.75472335
_cell_formula_units_Z   1
loop_
 _symmetry_equiv_pos_site_id
 _symmetry_equiv_pos_as_xyz
  1  'x, y, z'
loop_
 _atom_site_type_symbol
 _atom_site_label
 _atom_site_symmetry_multiplicity
 _atom_site_fract_x
 _atom_site_fract_y
 _atom_site_fract_z
 _atom_site_occupancy
  Mg  Mg0  1  0.74156818  0.74156629  0.75000635  1
  Mn  Mn1  1  0.93692335  0.93690256  0.24999315  1
  V  V2  1  0.19300599  0.60302916  0.78066611  1
  V  V3  1  0.39145701  0.79351075  0.29087788  1
  V  V4  1  0.60304023  0.19302762  0.71932643  1
  V  V5  1  0.79349465  0.39144663  0.20911806  1
  O  O6  1  0.99590938  0.75153968  0.64071380  1
  O  O7  1  0.08828881  0.36717309  0.80817339  1
  O  O8  1  0.23717001  0.97089902  0.20410562  1
  O  O9  1  0.38531271  0.65506327  0.60113893  1
  O  O10  1  0.36719368  0.08830551  0.69183353  1
  O  O11  1  0.33208579  0.63754482  0.07970129  1
  O  O12  1  0.65507367  0.38530373  0.89886503  1
  O  O13  1  0.64617760  0.89142705  0.35118704  1
  O  O14  1  0.63754520  0.33207697  0.42028698  1
  O  O15  1  0.75153354  0.99592511  0.85928753  1
  O  O16  1  0.89141654  0.64616998  0.14882040  1
  O  O17  1  0.97089366  0.23717976  0.29589647  1
