# generated using pymatgen
data_ReBi3O8
_symmetry_space_group_name_H-M   'P 1'
_cell_length_a   11.54335519
_cell_length_b   11.54335519
_cell_length_c   11.54335519
_cell_angle_alpha   90.00000000
_cell_angle_beta   90.00000000
_cell_angle_gamma   90.00000000
_symmetry_Int_Tables_number   1
_chemical_formula_structural   ReBi3O8
_chemical_formula_sum   'Re8 Bi24 O64'
_cell_volume   1538.14110183
_cell_formula_units_Z   8
loop_
 _symmetry_equiv_pos_site_id
 _symmetry_equiv_pos_as_xyz
  1  'x, y, z'
loop_
 _atom_site_type_symbol
 _atom_site_label
 _atom_site_symmetry_multiplicity
 _atom_site_fract_x
 _atom_site_fract_y
 _atom_site_fract_z
 _atom_site_occupancy
  Re  Re0  1  0.12042423  0.12042423  0.12042423  1
  Re  Re1  1  0.37957577  0.87957577  0.62042423  1
  Re  Re2  1  0.62042423  0.37957577  0.87957577  1
  Re  Re3  1  0.87957577  0.62042423  0.37957577  1
  Re  Re4  1  0.61641848  0.61641848  0.61641848  1
  Re  Re5  1  0.88358152  0.38358152  0.11641848  1
  Re  Re6  1  0.11641848  0.88358152  0.38358152  1
  Re  Re7  1  0.38358152  0.11641848  0.88358152  1
  Bi  Bi8  1  0.34845404  0.36182504  0.61560989  1
  Bi  Bi9  1  0.15154596  0.63817496  0.11560989  1
  Bi  Bi10  1  0.63817496  0.11560989  0.15154596  1
  Bi  Bi11  1  0.11560989  0.15154596  0.63817496  1
  Bi  Bi12  1  0.35530582  0.64439657  0.88891822  1
  Bi  Bi13  1  0.85530582  0.85560343  0.11108178  1
  Bi  Bi14  1  0.64469418  0.14439657  0.61108178  1
  Bi  Bi15  1  0.85560343  0.11108178  0.85530582  1
  Bi  Bi16  1  0.61108178  0.64469418  0.14439657  1
  Bi  Bi17  1  0.11108178  0.85530582  0.85560343  1
  Bi  Bi18  1  0.64439657  0.88891822  0.35530582  1
  Bi  Bi19  1  0.88891822  0.35530582  0.64439657  1
  Bi  Bi20  1  0.14439657  0.61108178  0.64469418  1
  Bi  Bi21  1  0.35560343  0.38891822  0.14469418  1
  Bi  Bi22  1  0.38891822  0.14469418  0.35560343  1
  Bi  Bi23  1  0.14469418  0.35560343  0.38891822  1
  Bi  Bi24  1  0.13817496  0.38439011  0.84845404  1
  Bi  Bi25  1  0.84845404  0.13817496  0.38439011  1
  Bi  Bi26  1  0.86182504  0.88439011  0.65154596  1
  Bi  Bi27  1  0.36182504  0.61560989  0.34845404  1
  Bi  Bi28  1  0.65154596  0.86182504  0.88439011  1
  Bi  Bi29  1  0.61560989  0.34845404  0.36182504  1
  Bi  Bi30  1  0.88439011  0.65154596  0.86182504  1
  Bi  Bi31  1  0.38439011  0.84845404  0.13817496  1
  O  O32  1  0.24097742  0.46788872  0.50321031  1
  O  O33  1  0.74097742  0.03211128  0.49678969  1
  O  O34  1  0.75902258  0.96788872  0.99678969  1
  O  O35  1  0.03211128  0.49678969  0.74097742  1
  O  O36  1  0.99678969  0.75902258  0.96788872  1
  O  O37  1  0.49678969  0.74097742  0.03211128  1
  O  O38  1  0.46788872  0.50321031  0.24097742  1
  O  O39  1  0.50321031  0.24097742  0.46788872  1
  O  O40  1  0.96788872  0.99678969  0.75902258  1
  O  O41  1  0.53211128  0.00321031  0.25902258  1
  O  O42  1  0.00321031  0.25902258  0.53211128  1
  O  O43  1  0.25902258  0.53211128  0.00321031  1
  O  O44  1  0.25731543  0.77259938  0.00339773  1
  O  O45  1  0.75731543  0.72740062  0.99660227  1
  O  O46  1  0.74268457  0.27259938  0.49660227  1
  O  O47  1  0.72740062  0.99660227  0.75731543  1
  O  O48  1  0.49660227  0.74268457  0.27259938  1
  O  O49  1  0.99660227  0.75731543  0.72740062  1
  O  O50  1  0.77259938  0.00339773  0.25731543  1
  O  O51  1  0.00339773  0.25731543  0.77259938  1
  O  O52  1  0.27259938  0.49660227  0.74268457  1
  O  O53  1  0.22740062  0.50339773  0.24268457  1
  O  O54  1  0.50339773  0.24268457  0.22740062  1
  O  O55  1  0.88507030  0.24281889  0.06242787  1
  O  O56  1  0.24268457  0.22740062  0.50339773  1
  O  O57  1  0.26907033  0.73092967  0.23092967  1
  O  O58  1  0.73092967  0.23092967  0.26907033  1
  O  O59  1  0.76907033  0.76907033  0.76907033  1
  O  O60  1  0.71627237  0.78372763  0.21627237  1
  O  O61  1  0.78372763  0.21627237  0.71627237  1
  O  O62  1  0.21627237  0.71627237  0.78372763  1
  O  O63  1  0.28372763  0.28372763  0.28372763  1
  O  O64  1  0.03284219  0.03284219  0.03284219  1
  O  O65  1  0.46715781  0.96715781  0.53284219  1
  O  O66  1  0.53284219  0.46715781  0.96715781  1
  O  O67  1  0.96715781  0.53284219  0.46715781  1
  O  O68  1  0.52852152  0.52852152  0.52852152  1
  O  O69  1  0.97147848  0.47147848  0.02852152  1
  O  O70  1  0.02852152  0.97147848  0.47147848  1
  O  O71  1  0.47147848  0.02852152  0.97147848  1
  O  O72  1  0.14306361  0.25520355  0.05593898  1
  O  O73  1  0.05593898  0.14306361  0.25520355  1
  O  O74  1  0.25520355  0.05593898  0.14306361  1
  O  O75  1  0.24479645  0.94406102  0.64306361  1
  O  O76  1  0.55593898  0.35693639  0.74479645  1
  O  O77  1  0.74479645  0.55593898  0.35693639  1
  O  O78  1  0.44406102  0.85693639  0.75520355  1
  O  O79  1  0.94406102  0.64306361  0.24479645  1
  O  O80  1  0.75520355  0.44406102  0.85693639  1
  O  O81  1  0.64306361  0.24479645  0.94406102  1
  O  O82  1  0.85693639  0.75520355  0.44406102  1
  O  O83  1  0.35693639  0.74479645  0.55593898  1
  O  O84  1  0.61492970  0.75718111  0.56242787  1
  O  O85  1  0.56242787  0.61492970  0.75718111  1
  O  O86  1  0.75718111  0.56242787  0.61492970  1
  O  O87  1  0.74281889  0.43757213  0.11492970  1
  O  O88  1  0.06242787  0.88507030  0.24281889  1
  O  O89  1  0.24281889  0.06242787  0.88507030  1
  O  O90  1  0.93757213  0.38507030  0.25718111  1
  O  O91  1  0.43757213  0.11492970  0.74281889  1
  O  O92  1  0.25718111  0.93757213  0.38507030  1
  O  O93  1  0.11492970  0.74281889  0.43757213  1
  O  O94  1  0.38507030  0.25718111  0.93757213  1
  O  O95  1  0.23092967  0.26907033  0.73092967  1
