# generated using pymatgen
data_Na6Y5Ta3Si6(SO8)6
_symmetry_space_group_name_H-M   'P 1'
_cell_length_a   18.32836999
_cell_length_b   9.15914054
_cell_length_c   23.42619146
_cell_angle_alpha   90.40433981
_cell_angle_beta   89.88336576
_cell_angle_gamma   120.00941824
_symmetry_Int_Tables_number   1
_chemical_formula_structural   Na6Y5Ta3Si6(SO8)6
_chemical_formula_sum   'Na18 Y15 Ta9 Si18 S18 O144'
_cell_volume   3405.32213321
_cell_formula_units_Z   3
loop_
 _symmetry_equiv_pos_site_id
 _symmetry_equiv_pos_as_xyz
  1  'x, y, z'
loop_
 _atom_site_type_symbol
 _atom_site_label
 _atom_site_symmetry_multiplicity
 _atom_site_fract_x
 _atom_site_fract_y
 _atom_site_fract_z
 _atom_site_occupancy
  Na  Na0  1  0.48934384  0.69221205  0.90654418  1
  Na  Na1  1  0.15828233  0.32895075  0.90711745  1
  Na  Na2  1  0.49185236  0.29764315  0.41164439  1
  Na  Na3  1  0.97819924  0.29047082  0.40240716  1
  Na  Na4  1  0.16076733  0.01744253  0.40726968  1
  Na  Na5  1  0.66166953  0.02817976  0.41783967  1
  Na  Na6  1  0.97231024  0.95072120  0.48956718  1
  Na  Na7  1  0.49034718  0.98062216  0.49059484  1
  Na  Na8  1  0.98868243  0.00318690  0.00046812  1
  Na  Na9  1  0.50042665  0.99021836  0.98675862  1
  Na  Na10  1  0.33129398  0.32494119  0.81740679  1
  Na  Na11  1  0.83109894  0.35242648  0.83222059  1
  Na  Na12  1  0.34000485  0.32278417  0.33009730  1
  Na  Na13  1  0.84315562  0.34084501  0.33503425  1
  Na  Na14  1  0.14364803  0.65509789  0.16426085  1
  Na  Na15  1  0.66625190  0.63405440  0.16903405  1
  Na  Na16  1  0.17005480  0.67157139  0.67827217  1
  Na  Na17  1  0.66025820  0.65286693  0.66611267  1
  Y  Y18  1  0.99516431  0.98973429  0.34911526  1
  Y  Y19  1  0.49248635  0.99583109  0.35081543  1
  Y  Y20  1  0.99847528  0.99554748  0.85201987  1
  Y  Y21  1  0.50023381  0.00270562  0.84973239  1
  Y  Y22  1  0.33482457  0.33283099  0.68893089  1
  Y  Y23  1  0.83393673  0.33991452  0.68723329  1
  Y  Y24  1  0.33616681  0.32875708  0.18941158  1
  Y  Y25  1  0.84086607  0.34327685  0.18415753  1
  Y  Y26  1  0.33101594  0.33896362  0.97862745  1
  Y  Y27  1  0.33808139  0.33768867  0.47825031  1
  Y  Y28  1  0.83420137  0.34099641  0.47628404  1
  Y  Y29  1  0.16313602  0.66193336  0.01882377  1
  Y  Y30  1  0.66854453  0.66982065  0.02349844  1
  Y  Y31  1  0.16918057  0.67308600  0.52142473  1
  Y  Y32  1  0.66710835  0.66630774  0.51725892  1
  Ta  Ta33  1  0.00490873  0.99677113  0.65613266  1
  Ta  Ta34  1  0.50055565  0.00443226  0.66060337  1
  Ta  Ta35  1  0.00429752  0.99773296  0.15331046  1
  Ta  Ta36  1  0.50999533  0.02569076  0.14929784  1
  Ta  Ta37  1  0.83504278  0.34029878  0.98070130  1
  Ta  Ta38  1  0.16126071  0.67464681  0.30918886  1
  Ta  Ta39  1  0.66599963  0.65536752  0.31803638  1
  Ta  Ta40  1  0.16315971  0.64908477  0.81078544  1
  Ta  Ta41  1  0.66695626  0.67890982  0.81030156  1
  Si  Si42  1  0.14762769  0.99706746  0.25430536  1
  Si  Si43  1  0.00409715  0.29907860  0.25428796  1
  Si  Si44  1  0.51192426  0.31711718  0.25290127  1
  Si  Si45  1  0.14610369  0.29691852  0.75527565  1
  Si  Si46  1  0.64847720  0.30569870  0.75454630  1
  Si  Si47  1  0.00459717  0.70096036  0.75411412  1
  Si  Si48  1  0.50522304  0.71040430  0.75445586  1
  Si  Si49  1  0.34594230  0.98593129  0.75454084  1
  Si  Si50  1  0.97961002  0.64275480  0.08335202  1
  Si  Si51  1  0.68871599  0.32849573  0.08456206  1
  Si  Si52  1  0.31129367  0.66731596  0.91713689  1
  Si  Si53  1  0.01559077  0.37605383  0.91651281  1
  Si  Si54  1  0.67314287  0.96735752  0.91937176  1
  Si  Si55  1  0.30782484  0.95542136  0.41483725  1
  Si  Si56  1  0.81268813  0.95811571  0.41502986  1
  Si  Si57  1  0.66758309  0.37058630  0.41599570  1
  Si  Si58  1  0.02168230  0.66544084  0.41649351  1
  Si  Si59  1  0.52020685  0.66170600  0.41545211  1
  S  S60  1  0.64222647  0.98553874  0.24775092  1
  S  S61  1  0.34985506  0.71630101  0.24439792  1
  S  S62  1  0.84721048  0.71270244  0.24571397  1
  S  S63  1  0.84975063  0.98364931  0.74816223  1
  S  S64  1  0.48390109  0.31451710  0.58493939  1
  S  S65  1  0.98310025  0.31253789  0.58536526  1
  S  S66  1  0.17420895  0.03437634  0.58513571  1
  S  S67  1  0.67439919  0.03219769  0.58594777  1
  S  S68  1  0.34235781  0.64917663  0.58685559  1
  S  S69  1  0.84080533  0.65172922  0.58767999  1
  S  S70  1  0.48125502  0.64567623  0.08558443  1
  S  S71  1  0.34270890  0.03545330  0.08670039  1
  S  S72  1  0.84322215  0.05400483  0.08136761  1
  S  S73  1  0.17785062  0.31777896  0.08667153  1
  S  S74  1  0.80834770  0.64987609  0.91672216  1
  S  S75  1  0.52532616  0.39420082  0.91349107  1
  S  S76  1  0.16866867  0.95968450  0.91449610  1
  S  S77  1  0.16863127  0.38202825  0.41375967  1
  O  O78  1  0.11030891  0.01323292  0.31372675  1
  O  O79  1  0.60378493  0.00253485  0.30024651  1
  O  O80  1  0.39664527  0.77879246  0.29784005  1
  O  O81  1  0.89478140  0.78426843  0.29846892  1
  O  O82  1  0.49864658  0.21451652  0.31014802  1
  O  O83  1  0.99655771  0.20550638  0.31332931  1
  O  O84  1  0.10725024  0.19853628  0.81338501  1
  O  O85  1  0.60994240  0.20125460  0.81058511  1
  O  O86  1  0.49340251  0.77544540  0.81462847  1
  O  O87  1  0.98286969  0.78139942  0.80693418  1
  O  O88  1  0.40196439  0.02499975  0.81002341  1
  O  O89  1  0.89738420  0.01402592  0.80057517  1
  O  O90  1  0.40336097  0.96766726  0.69807614  1
  O  O91  1  0.89462786  0.95943885  0.69803066  1
  O  O92  1  0.07820677  0.18121844  0.70036953  1
  O  O93  1  0.58098504  0.20240809  0.69831778  1
  O  O94  1  0.01147131  0.83077599  0.69629663  1
  O  O95  1  0.51775903  0.84688755  0.70176012  1
  O  O96  1  0.40009240  0.82944721  0.19593872  1
  O  O97  1  0.89692198  0.81915452  0.19531269  1
  O  O98  1  0.00764014  0.17775605  0.19890066  1
  O  O99  1  0.51819253  0.19749183  0.19678461  1
  O  O100  1  0.07980080  0.97004853  0.19913917  1
  O  O101  1  0.58419424  0.97197587  0.19755383  1
  O  O102  1  0.43483655  0.32847045  0.63170662  1
  O  O103  1  0.93708072  0.33257075  0.63316017  1
  O  O104  1  0.22847095  0.13042381  0.63229470  1
  O  O105  1  0.73043054  0.13012113  0.63335390  1
  O  O106  1  0.33504720  0.54367189  0.63553569  1
  O  O107  1  0.83520630  0.54704885  0.63621029  1
  O  O108  1  0.43484308  0.53270131  0.13238545  1
  O  O109  1  0.93968409  0.53381223  0.13932768  1
  O  O110  1  0.33460333  0.12472725  0.13612945  1
  O  O111  1  0.82911243  0.12222787  0.13385900  1
  O  O112  1  0.23283608  0.33165906  0.13367860  1
  O  O113  1  0.73690442  0.34033687  0.14167564  1
  O  O114  1  0.21125170  0.29235534  0.03169592  1
  O  O115  1  0.73892275  0.30676640  0.02780863  1
  O  O116  1  0.43620391  0.57441617  0.03031370  1
  O  O117  1  0.91673773  0.53155847  0.02712829  1
  O  O118  1  0.35729363  0.13378967  0.03391881  1
  O  O119  1  0.85092765  0.15984617  0.03049441  1
  O  O120  1  0.20571115  0.12005525  0.53004897  1
  O  O121  1  0.71017889  0.11834427  0.53082013  1
  O  O122  1  0.34867909  0.56981880  0.53267417  1
  O  O123  1  0.85258882  0.58252255  0.53363051  1
  O  O124  1  0.44051722  0.30019345  0.52932435  1
  O  O125  1  0.93873782  0.29375270  0.53070155  1
  O  O126  1  0.26745575  0.67425117  0.97533854  1
  O  O127  1  0.76750914  0.66336270  0.96839490  1
  O  O128  1  0.07749938  0.45634237  0.97023915  1
  O  O129  1  0.57175818  0.47241018  0.96569405  1
  O  O130  1  0.16293692  0.87049830  0.96733327  1
  O  O131  1  0.65854269  0.84091446  0.97051165  1
  O  O132  1  0.26679252  0.85323533  0.47252243  1
  O  O133  1  0.76937576  0.85209686  0.47149865  1
  O  O134  1  0.16031861  0.45962108  0.46677351  1
  O  O135  1  0.64983361  0.45239859  0.47095359  1
  O  O136  1  0.07705545  0.67845749  0.47110443  1
  O  O137  1  0.57183987  0.68509473  0.47302787  1
  O  O138  1  0.07446803  0.65347698  0.35689933  1
  O  O139  1  0.57585626  0.64620298  0.35850682  1
  O  O140  1  0.25084833  0.84150257  0.35724281  1
  O  O141  1  0.75601860  0.84884521  0.35600481  1
  O  O142  1  0.17501445  0.48258685  0.36275890  1
  O  O143  1  0.67434317  0.49085781  0.35821516  1
  O  O144  1  0.06704768  0.49480145  0.85924555  1
  O  O145  1  0.57393867  0.50008583  0.86216257  1
  O  O146  1  0.17245841  0.87082724  0.86305714  1
  O  O147  1  0.68464221  0.86133976  0.86028290  1
  O  O148  1  0.24613282  0.64418183  0.86192219  1
  O  O149  1  0.75906297  0.63539416  0.86426633  1
  O  O150  1  0.01394945  0.83317671  0.41428072  1
  O  O151  1  0.51337826  0.82743321  0.40616880  1
  O  O152  1  0.40551242  0.00493963  0.41128682  1
  O  O153  1  0.91009047  0.00221358  0.41288512  1
  O  O154  1  0.09310034  0.21048337  0.41094431  1
  O  O155  1  0.58775897  0.18159684  0.40905990  1
  O  O156  1  -0.00002835  0.18487697  0.91085915  1
  O  O157  1  0.51015611  0.22305164  0.90988338  1
  O  O158  1  0.09582289  0.98995326  0.91360292  1
  O  O159  1  0.59092209  0.98668616  0.91410079  1
  O  O160  1  0.40785472  0.81918487  0.91491351  1
  O  O161  1  0.89429044  0.79555666  0.91426522  1
  O  O162  1  0.48932350  0.15675531  0.59159853  1
  O  O163  1  0.98705611  0.15294449  0.59474391  1
  O  O164  1  0.08752331  0.01965083  0.59423822  1
  O  O165  1  0.59000220  0.02082753  0.59361859  1
  O  O166  1  0.42096385  0.81922014  0.59227681  1
  O  O167  1  0.91823894  0.82470478  0.59500341  1
  O  O168  1  0.48607543  0.81256819  0.09438791  1
  O  O169  1  0.97992816  0.82824421  0.09371714  1
  O  O170  1  0.42190321  0.02185511  0.09573397  1
  O  O171  1  0.92281425  0.04695665  0.08512111  1
  O  O172  1  0.09217220  0.15943393  0.09481639  1
  O  O173  1  0.59119133  0.14672951  0.09436958  1
  O  O174  1  0.32651649  0.13328443  0.73903101  1
  O  O175  1  0.83249636  0.11968111  0.73732415  1
  O  O176  1  0.23836673  0.33112205  0.74221523  1
  O  O177  1  0.74119458  0.33704589  0.74111833  1
  O  O178  1  0.43443466  0.52198434  0.74009966  1
  O  O179  1  0.93190822  0.51148932  0.74075611  1
  O  O180  1  0.33473219  0.54433822  0.23509797  1
  O  O181  1  0.83138290  0.54068282  0.24056980  1
  O  O182  1  0.43537843  0.35133780  0.24161887  1
  O  O183  1  0.92604816  0.33124923  0.24752378  1
  O  O184  1  0.23927402  0.15376033  0.24296153  1
  O  O185  1  0.72555338  0.13289110  0.24049092  1
  O  O186  1  0.31195674  0.48306407  0.91717497  1
  O  O187  1  0.81322706  0.48931441  0.91990849  1
  O  O188  1  0.44434974  0.39790782  0.91358628  1
  O  O189  1  0.92477361  0.37143198  0.92720639  1
  O  O190  1  0.24721405  0.13099662  0.91643690  1
  O  O191  1  0.76080501  0.15119859  0.92902834  1
  O  O192  1  0.30321346  0.13189186  0.41569940  1
  O  O193  1  0.81063851  0.13570575  0.41508351  1
  O  O194  1  0.24468219  0.36293909  0.41641208  1
  O  O195  1  0.75335027  0.36188025  0.41620387  1
  O  O196  1  0.43150652  0.48050991  0.41521031  1
  O  O197  1  0.93370685  0.48721513  0.41529699  1
  O  O198  1  0.16458250  0.46302051  0.08583748  1
  O  O199  1  0.66453146  0.47403630  0.07774137  1
  O  O200  1  0.07674150  0.69101878  0.07707447  1
  O  O201  1  0.56766609  0.67222855  0.08434652  1
  O  O202  1  0.27078317  0.86437953  0.08416242  1
  O  O203  1  0.77186587  0.88042357  0.07450984  1
  O  O204  1  0.15950238  0.86034763  0.58552327  1
  O  O205  1  0.66240321  0.85952363  0.58703992  1
  O  O206  1  0.26772644  0.67247760  0.58612470  1
  O  O207  1  0.76633175  0.67357405  0.58754501  1
  O  O208  1  0.07062717  0.45665570  0.58457629  1
  O  O209  1  0.57005930  0.46292551  0.58629602  1
  O  O210  1  0.15194293  0.81879683  0.25455027  1
  O  O211  1  0.64478188  0.82652561  0.24641978  1
  O  O212  1  0.26781978  0.71218023  0.24731432  1
  O  O213  1  0.76714835  0.71656014  0.24668768  1
  O  O214  1  0.09671571  0.48213892  0.25665824  1
  O  O215  1  0.60248368  0.49787914  0.25349739  1
  O  O216  1  0.14353558  0.47471789  0.75617471  1
  O  O217  1  0.65491252  0.49445488  0.76151806  1
  O  O218  1  0.09610806  0.71179649  0.75933969  1
  O  O219  1  0.59883625  0.71225783  0.75829847  1
  O  O220  1  0.25726067  0.80404422  0.75938142  1
  O  O221  1  0.76722575  0.81959491  0.75274414  1
