# generated using pymatgen
data_Na6Hf3MgGe2(PO6)4
_symmetry_space_group_name_H-M   'P 1'
_cell_length_a   9.16606846
_cell_length_b   9.16683616
_cell_length_c   22.70390875
_cell_angle_alpha   89.58222825
_cell_angle_beta   90.12561713
_cell_angle_gamma   119.84176357
_symmetry_Int_Tables_number   1
_chemical_formula_structural   Na6Hf3MgGe2(PO6)4
_chemical_formula_sum   'Na18 Hf9 Mg3 Ge6 P12 O72'
_cell_volume   1654.67217767
_cell_formula_units_Z   3
loop_
 _symmetry_equiv_pos_site_id
 _symmetry_equiv_pos_as_xyz
  1  'x, y, z'
loop_
 _atom_site_type_symbol
 _atom_site_label
 _atom_site_symmetry_multiplicity
 _atom_site_fract_x
 _atom_site_fract_y
 _atom_site_fract_z
 _atom_site_occupancy
  Na  Na0  1  0.00261169  0.99394516  0.49798775  1
  Na  Na1  1  0.99988474  0.99692303  0.99813235  1
  Na  Na2  1  0.64633967  0.29757168  0.82994112  1
  Na  Na3  1  0.64852786  0.33156195  0.32248497  1
  Na  Na4  1  0.32907361  0.66589332  0.16347988  1
  Na  Na5  1  0.32152311  0.66340479  0.66462908  1
  Na  Na6  1  0.64375323  0.01266778  0.24241096  1
  Na  Na7  1  0.98543550  0.62173458  0.23874849  1
  Na  Na8  1  0.63237068  0.61725920  0.74075912  1
  Na  Na9  1  0.98962040  0.36696740  0.74425586  1
  Na  Na10  1  0.66558164  0.97401452  0.58816782  1
  Na  Na11  1  0.66543668  0.68473647  0.07924417  1
  Na  Na12  1  0.02352326  0.33900059  0.08690533  1
  Na  Na13  1  0.96845408  0.66667133  0.91944169  1
  Na  Na14  1  0.33565088  0.30502791  0.91754773  1
  Na  Na15  1  0.96531423  0.28548286  0.40726621  1
  Na  Na16  1  0.32787345  0.03114962  0.40853700  1
  Na  Na17  1  0.71549079  0.68402066  0.41427980  1
  Hf  Hf18  1  0.99809590  0.00077666  0.85207236  1
  Hf  Hf19  1  0.00916417  0.99977333  0.64510101  1
  Hf  Hf20  1  0.00818035  0.00565189  0.15024855  1
  Hf  Hf21  1  0.66427946  0.32955920  0.98203329  1
  Hf  Hf22  1  0.66797221  0.33567663  0.48362933  1
  Hf  Hf23  1  0.33500330  0.67283244  0.02077398  1
  Hf  Hf24  1  0.33098167  0.66207697  0.52222874  1
  Hf  Hf25  1  0.33327441  0.66293822  0.31157777  1
  Hf  Hf26  1  0.33571550  0.67363535  0.81040401  1
  Mg  Mg27  1  0.00207114  0.99972427  0.34918581  1
  Mg  Mg28  1  0.65671769  0.32317686  0.68401811  1
  Mg  Mg29  1  0.65609818  0.32854583  0.18369456  1
  Ge  Ge30  1  0.66802589  0.62863414  0.58774206  1
  Ge  Ge31  1  0.96292338  0.62978802  0.08822567  1
  Ge  Ge32  1  0.62667073  0.66922793  0.91690144  1
  Ge  Ge33  1  0.03985760  0.37389441  0.91630666  1
  Ge  Ge34  1  0.33776853  0.96187556  0.91449371  1
  Ge  Ge35  1  0.63206856  0.96422330  0.41582030  1
  P  P36  1  0.29508597  0.00044105  0.25506493  1
  P  P37  1  0.70636565  0.70577936  0.25262565  1
  P  P38  1  0.99819256  0.29476683  0.25320009  1
  P  P39  1  0.29435380  0.29286135  0.75049899  1
  P  P40  1  0.00090747  0.70498646  0.75012606  1
  P  P41  1  0.70746007  0.99887497  0.74574429  1
  P  P42  1  0.95957222  0.33450677  0.58726957  1
  P  P43  1  0.37623266  0.04233539  0.58253367  1
  P  P44  1  0.66659268  0.03926120  0.08993875  1
  P  P45  1  0.37387012  0.33352443  0.08467737  1
  P  P46  1  0.33586622  0.37639763  0.41736316  1
  P  P47  1  0.04199541  0.66316635  0.41573173  1
  O  O48  1  0.21569539  0.01243401  0.31257945  1
  O  O49  1  0.80665900  0.78950628  0.30875414  1
  O  O50  1  0.98968528  0.19402039  0.30850972  1
  O  O51  1  0.20326739  0.19775799  0.80805098  1
  O  O52  1  0.99484883  0.79904754  0.80616480  1
  O  O53  1  0.81928807  0.01054256  0.79951524  1
  O  O54  1  0.79756984  0.98327100  0.68968119  1
  O  O55  1  0.17747899  0.19344918  0.69826534  1
  O  O56  1  0.00942769  0.81590523  0.69622646  1
  O  O57  1  0.80027411  0.82320488  0.19795265  1
  O  O58  1  0.01296664  0.20518127  0.19678007  1
  O  O59  1  0.17588564  0.98324104  0.20233840  1
  O  O60  1  0.87988010  0.35187191  0.64342147  1
  O  O61  1  0.49586362  0.12343684  0.63354437  1
  O  O62  1  0.64549221  0.51800859  0.65069305  1
  O  O63  1  0.87577257  0.50457091  0.14940877  1
  O  O64  1  0.64533671  0.11237068  0.14695712  1
  O  O65  1  0.48785414  0.35400648  0.13563362  1
  O  O66  1  0.44564237  0.31046488  0.02544878  1
  O  O67  1  0.83674589  0.53889774  0.02498188  1
  O  O68  1  0.68455311  0.15423800  0.03630150  1
  O  O69  1  0.45835752  0.14439855  0.52397727  1
  O  O70  1  0.68513409  0.53511447  0.52173221  1
  O  O71  1  0.84226775  0.30829584  0.53204704  1
  O  O72  1  0.54302126  0.69681422  0.98177916  1
  O  O73  1  0.16687751  0.46397633  0.97865114  1
  O  O74  1  0.29286525  0.82980878  0.97530301  1
  O  O75  1  0.52660419  0.83838420  0.47692078  1
  O  O76  1  0.31317965  0.46497832  0.47142778  1
  O  O77  1  0.15364057  0.67873876  0.46862767  1
  O  O78  1  0.12345966  0.63546460  0.35935371  1
  O  O79  1  0.49870859  0.86589939  0.35462415  1
  O  O80  1  0.35587190  0.48908438  0.36235108  1
  O  O81  1  0.13102262  0.50086443  0.85356828  1
  O  O82  1  0.36733529  0.87160381  0.85212442  1
  O  O83  1  0.50030645  0.63343163  0.85456168  1
  O  O84  1  0.02455239  0.82124934  0.41203633  1
  O  O85  1  0.83131728  0.98493552  0.41432889  1
  O  O86  1  0.18422997  0.19855254  0.41253653  1
  O  O87  1  0.02707205  0.17896297  0.91151539  1
  O  O88  1  0.15795846  0.98167305  0.91047155  1
  O  O89  1  0.83146024  0.83588758  0.91120821  1
  O  O90  1  0.97796239  0.17384342  0.58869419  1
  O  O91  1  0.20201202  0.03046152  0.58904411  1
  O  O92  1  0.84440057  0.83799532  0.58536206  1
  O  O93  1  0.97462067  0.82950009  0.09058048  1
  O  O94  1  0.83545987  0.03137199  0.09120313  1
  O  O95  1  0.18885575  0.18219254  0.09187320  1
  O  O96  1  0.69242384  0.15781997  0.74491241  1
  O  O97  1  0.47059294  0.31466337  0.74832397  1
  O  O98  1  0.84386225  0.52884109  0.74979563  1
  O  O99  1  0.68548368  0.53061139  0.24583138  1
  O  O100  1  0.83919112  0.31262842  0.25066014  1
  O  O101  1  0.47514860  0.14626130  0.24717489  1
  O  O102  1  0.64085417  0.48623683  0.92166686  1
  O  O103  1  0.84539292  0.36040036  0.92309701  1
  O  O104  1  0.50454902  0.16321773  0.92111539  1
  O  O105  1  0.64590166  0.16419286  0.41838954  1
  O  O106  1  0.50176870  0.36759818  0.42095090  1
  O  O107  1  0.86429623  0.50240742  0.42202453  1
  O  O108  1  0.35630418  0.49510365  0.08150481  1
  O  O109  1  0.16168227  0.64491419  0.08350133  1
  O  O110  1  0.52081576  0.85553677  0.08198190  1
  O  O111  1  0.34658609  0.86061309  0.57477872  1
  O  O112  1  0.49373223  0.66512631  0.58251990  1
  O  O113  1  0.13446148  0.49066142  0.57701843  1
  O  O114  1  0.29911804  0.82818267  0.25333362  1
  O  O115  1  0.52945154  0.69815216  0.25389539  1
  O  O116  1  0.15743558  0.47713630  0.25353018  1
  O  O117  1  0.30406226  0.46981729  0.74952576  1
  O  O118  1  0.16066746  0.68535856  0.74839078  1
  O  O119  1  0.53571246  0.83139398  0.74884116  1
