# generated using pymatgen
data_Na4Zn3SiSnS5O24
_symmetry_space_group_name_H-M   'P 1'
_cell_length_a   8.87922168
_cell_length_b   8.87871379
_cell_length_c   22.54211523
_cell_angle_alpha   90.50260744
_cell_angle_beta   90.38091300
_cell_angle_gamma   120.10918852
_symmetry_Int_Tables_number   1
_chemical_formula_structural   Na4Zn3SiSnS5O24
_chemical_formula_sum   'Na12 Zn9 Si3 Sn3 S15 O72'
_cell_volume   1537.16054427
_cell_formula_units_Z   3
loop_
 _symmetry_equiv_pos_site_id
 _symmetry_equiv_pos_as_xyz
  1  'x, y, z'
loop_
 _atom_site_type_symbol
 _atom_site_label
 _atom_site_symmetry_multiplicity
 _atom_site_fract_x
 _atom_site_fract_y
 _atom_site_fract_z
 _atom_site_occupancy
  Na  Na0  1  0.36344679  0.36392170  0.24989438  1
  Na  Na1  1  0.31144100  0.34183703  0.58839324  1
  Na  Na2  1  0.02410130  0.69913277  0.58180919  1
  Na  Na3  1  0.98738642  0.67701299  0.91654272  1
  Na  Na4  1  0.70031418  0.03216215  0.91097876  1
  Na  Na5  1  0.31002289  0.28708791  0.91906412  1
  Na  Na6  1  0.97356484  0.98320412  0.49858541  1
  Na  Na7  1  0.01479810  0.01375032  0.00210423  1
  Na  Na8  1  0.66776275  0.32367148  0.82630349  1
  Na  Na9  1  0.68040021  0.33172016  0.32899800  1
  Na  Na10  1  0.33261057  0.67893476  0.16503907  1
  Na  Na11  1  0.36202167  0.67867878  0.66282560  1
  Zn  Zn12  1  0.99767892  0.99716162  0.34715322  1
  Zn  Zn13  1  0.01338103  0.01406003  0.84917855  1
  Zn  Zn14  1  0.97062028  0.98221934  0.65170967  1
  Zn  Zn15  1  0.99505455  0.99461423  0.15287693  1
  Zn  Zn16  1  0.66300996  0.34566637  0.68226681  1
  Zn  Zn17  1  0.67471994  0.33179197  0.18417175  1
  Zn  Zn18  1  0.31090254  0.66140979  0.01514128  1
  Zn  Zn19  1  0.35938941  0.67596446  0.51391026  1
  Zn  Zn20  1  0.33243233  0.67845703  0.31783771  1
  Si  Si21  1  0.66505977  0.63276464  0.58456173  1
  Si  Si22  1  0.04022005  0.37075929  0.91865672  1
  Si  Si23  1  0.33294683  0.96181739  0.91881290  1
  Sn  Sn24  1  0.66858958  0.32596591  0.98680267  1
  Sn  Sn25  1  0.67081293  0.34056141  0.48211433  1
  Sn  Sn26  1  0.32567314  0.67090135  0.81687046  1
  S  S27  1  0.29413015  0.99900639  0.24975404  1
  S  S28  1  0.70266199  0.70344261  0.25034356  1
  S  S29  1  0.00051448  0.29499069  0.25068050  1
  S  S30  1  0.29922621  0.30092855  0.74971660  1
  S  S31  1  0.00020711  0.70253484  0.75004997  1
  S  S32  1  0.69711671  0.99788788  0.75185043  1
  S  S33  1  0.95904906  0.33058460  0.58404453  1
  S  S34  1  0.37536335  0.03905861  0.58406304  1
  S  S35  1  0.96033961  0.63200947  0.08611464  1
  S  S36  1  0.66799244  0.03031946  0.08580313  1
  S  S37  1  0.37070382  0.33541928  0.08602790  1
  S  S38  1  0.62482345  0.66448487  0.91815475  1
  S  S39  1  0.63316167  0.96902157  0.41651175  1
  S  S40  1  0.32949463  0.36391814  0.41525086  1
  S  S41  1  0.03987897  0.66632634  0.41786595  1
  O  O42  1  0.21503085  0.03021594  0.30303624  1
  O  O43  1  0.80757696  0.78419301  0.30461660  1
  O  O44  1  0.97607406  0.19089613  0.30429697  1
  O  O45  1  0.21633095  0.20697761  0.80459839  1
  O  O46  1  0.98679116  0.78670344  0.80493970  1
  O  O47  1  0.79330271  0.01327193  0.80750647  1
  O  O48  1  0.77969573  0.97524489  0.69875702  1
  O  O49  1  0.19406400  0.21774839  0.69530641  1
  O  O50  1  0.02066864  0.80431838  0.69600676  1
  O  O51  1  0.78207311  0.80596931  0.19669553  1
  O  O52  1  0.02999748  0.21434465  0.19703282  1
  O  O53  1  0.18906150  0.97390908  0.19534735  1
  O  O54  1  0.87328265  0.35272846  0.63594029  1
  O  O55  1  0.48685321  0.11548393  0.63648680  1
  O  O56  1  0.61860774  0.50038666  0.63876955  1
  O  O57  1  0.86398917  0.51842979  0.13497116  1
  O  O58  1  0.64591094  0.12567389  0.13514988  1
  O  O59  1  0.47859321  0.35074106  0.13837772  1
  O  O60  1  0.45269635  0.31073980  0.02840260  1
  O  O61  1  0.85821551  0.55577522  0.02678503  1
  O  O62  1  0.69646921  0.13234390  0.02711925  1
  O  O63  1  0.45603545  0.14682017  0.52872653  1
  O  O64  1  0.71690628  0.55131144  0.52489094  1
  O  O65  1  0.84827218  0.29075397  0.52801396  1
  O  O66  1  0.54951572  0.69814777  0.97056151  1
  O  O67  1  0.17380512  0.44419497  0.97359401  1
  O  O68  1  0.29770549  0.84318041  0.97529847  1
  O  O69  1  0.55401516  0.87251440  0.47102587  1
  O  O70  1  0.31290422  0.44555074  0.47056378  1
  O  O71  1  0.13525765  0.68176302  0.47407462  1
  O  O72  1  0.12322853  0.64263304  0.36526897  1
  O  O73  1  0.52635164  0.89063950  0.36279377  1
  O  O74  1  0.35642441  0.47015707  0.36194651  1
  O  O75  1  0.11433346  0.49732650  0.85910528  1
  O  O76  1  0.39944651  0.89441830  0.86024740  1
  O  O77  1  0.51137306  0.62241494  0.86317179  1
  O  O78  1  0.01445234  0.81813014  0.41303052  1
  O  O79  1  0.80938280  0.99273372  0.41158692  1
  O  O80  1  0.17530374  0.18769145  0.41005569  1
  O  O81  1  0.99619186  0.17141410  0.90924577  1
  O  O82  1  0.16068398  0.97835415  0.90891005  1
  O  O83  1  0.79959933  0.81400040  0.90880506  1
  O  O84  1  0.99435490  0.18471972  0.58853671  1
  O  O85  1  0.20586643  0.03503080  0.58855176  1
  O  O86  1  0.84652816  0.81966229  0.58758012  1
  O  O87  1  0.97547533  0.80522098  0.08926390  1
  O  O88  1  0.82872992  0.01997930  0.09046212  1
  O  O89  1  0.19769737  0.17618992  0.08735193  1
  O  O90  1  0.67429713  0.15078795  0.74649736  1
  O  O91  1  0.47318016  0.31756062  0.74751640  1
  O  O92  1  0.84863214  0.52407192  0.74657019  1
  O  O93  1  0.67856453  0.52307010  0.24534735  1
  O  O94  1  0.84532206  0.31607241  0.24448130  1
  O  O95  1  0.46969531  0.16201529  0.24511597  1
  O  O96  1  0.64065706  0.50385028  0.92392549  1
  O  O97  1  0.85094305  0.36758865  0.92533774  1
  O  O98  1  0.50343033  0.16371766  0.92405319  1
  O  O99  1  0.64801195  0.14954873  0.42130546  1
  O  O100  1  0.49307939  0.34632589  0.41926341  1
  O  O101  1  0.86055833  0.49815602  0.41854699  1
  O  O102  1  0.36253231  0.49585552  0.08134829  1
  O  O103  1  0.13078201  0.64283360  0.08256077  1
  O  O104  1  0.51150963  0.85800359  0.07968938  1
  O  O105  1  0.33935598  0.85836014  0.57563623  1
  O  O106  1  0.48652460  0.64074368  0.57677321  1
  O  O107  1  0.12743905  0.49581479  0.57679006  1
  O  O108  1  0.31478734  0.84378200  0.25534592  1
  O  O109  1  0.52260886  0.67916294  0.25520598  1
  O  O110  1  0.16333517  0.47067168  0.25640643  1
  O  O111  1  0.31861016  0.48255139  0.75313200  1
  O  O112  1  0.16699919  0.69132032  0.75111783  1
  O  O113  1  0.51962548  0.82919086  0.75305866  1
