# generated using pymatgen
data_SiSe2
_symmetry_space_group_name_H-M   'P 1'
_cell_length_a   8.15808119
_cell_length_b   8.12252839
_cell_length_c   6.47558898
_cell_angle_alpha   128.89323047
_cell_angle_beta   129.07091691
_cell_angle_gamma   89.98199243
_symmetry_Int_Tables_number   1
_chemical_formula_structural   SiSe2
_chemical_formula_sum   'Si2 Se4'
_cell_volume   196.06226303
_cell_formula_units_Z   2
loop_
 _symmetry_equiv_pos_site_id
 _symmetry_equiv_pos_as_xyz
  1  'x, y, z'
loop_
 _atom_site_type_symbol
 _atom_site_label
 _atom_site_symmetry_multiplicity
 _atom_site_fract_x
 _atom_site_fract_y
 _atom_site_fract_z
 _atom_site_occupancy
  Si  Si0  1  0.24990271  0.24998390  0.49983250  1
  Si  Si1  1  0.75009729  0.75001610  0.50016750  1
  Se  Se2  1  0.65001615  0.34772106  -0.00029221  1
  Se  Se3  1  0.15030071  0.15245329  0.00040921  1
  Se  Se4  1  0.34998385  0.65227894  0.00029221  1
  Se  Se5  1  0.84969929  0.84754671  -0.00040921  1
