# generated using pymatgen
data_Na14Y4Mg4Si5S7O48
_symmetry_space_group_name_H-M   'P 1'
_cell_length_a   18.58514174
_cell_length_b   9.26134162
_cell_length_c   22.99027158
_cell_angle_alpha   89.98372603
_cell_angle_beta   90.45783109
_cell_angle_gamma   119.90288620
_symmetry_Int_Tables_number   1
_chemical_formula_structural   Na14Y4Mg4Si5S7O48
_chemical_formula_sum   'Na42 Y12 Mg12 Si15 S21 O144'
_cell_volume   3430.21117032
_cell_formula_units_Z   3
loop_
 _symmetry_equiv_pos_site_id
 _symmetry_equiv_pos_as_xyz
  1  'x, y, z'
loop_
 _atom_site_type_symbol
 _atom_site_label
 _atom_site_symmetry_multiplicity
 _atom_site_fract_x
 _atom_site_fract_y
 _atom_site_fract_z
 _atom_site_occupancy
  Na  Na0  1  0.80653536  0.99247120  0.25107965  1
  Na  Na1  1  0.18311574  0.34960671  0.25329218  1
  Na  Na2  1  0.68337605  0.35218267  0.25182914  1
  Na  Na3  1  0.00293627  0.65299294  0.24550653  1
  Na  Na4  1  0.51208125  0.65453163  0.24119510  1
  Na  Na5  1  0.31776651  0.61968970  0.75342188  1
  Na  Na6  1  0.01137467  0.36769118  0.74162567  1
  Na  Na7  1  0.50196434  0.37179233  0.74482201  1
  Na  Na8  1  0.18665740  0.02067395  0.75095969  1
  Na  Na9  1  0.66907753  0.99711527  0.75103694  1
  Na  Na10  1  0.14796489  0.32541973  0.58289380  1
  Na  Na11  1  0.65184767  0.32060455  0.58230033  1
  Na  Na12  1  0.32898629  0.98054046  0.59089246  1
  Na  Na13  1  0.83267418  0.99450139  0.58441284  1
  Na  Na14  1  0.15654039  0.98987917  0.07476814  1
  Na  Na15  1  0.64593070  0.96779621  0.07753586  1
  Na  Na16  1  0.33473418  0.67332114  0.07987005  1
  Na  Na17  1  0.82704950  0.67599885  0.08496788  1
  Na  Na18  1  0.48659282  0.68215418  0.91704186  1
  Na  Na19  1  0.99365266  0.68456767  0.91448556  1
  Na  Na20  1  0.34131350  0.03338098  0.91070987  1
  Na  Na21  1  0.83926834  0.02997021  0.91211292  1
  Na  Na22  1  0.16973074  0.28119506  0.91308110  1
  Na  Na23  1  0.66343659  0.28049687  0.91454238  1
  Na  Na24  1  0.49456548  0.30411026  0.41865844  1
  Na  Na25  1  0.98734233  0.29640083  0.43181988  1
  Na  Na26  1  0.16802626  0.05291038  0.42229402  1
  Na  Na27  1  0.66925523  0.05825579  0.41905358  1
  Na  Na28  1  0.34292170  0.64953361  0.41749988  1
  Na  Na29  1  0.83830785  0.64695713  0.41592095  1
  Na  Na30  1  0.01355086  0.02087345  0.50549886  1
  Na  Na31  1  0.51584984  0.01078318  0.50027413  1
  Na  Na32  1  0.01578422  0.02246398  0.99415135  1
  Na  Na33  1  0.51341572  0.00514841  0.99979695  1
  Na  Na34  1  0.32753833  0.33397507  0.82727780  1
  Na  Na35  1  0.81693282  0.32335730  0.83298111  1
  Na  Na36  1  0.32051200  0.31225981  0.33479458  1
  Na  Na37  1  0.81577348  0.31901274  0.33556355  1
  Na  Na38  1  0.16928714  0.66918264  0.16418342  1
  Na  Na39  1  0.65175446  0.64760921  0.16233864  1
  Na  Na40  1  0.15466810  0.65575381  0.66619104  1
  Na  Na41  1  0.65818594  0.66724330  0.67193548  1
  Y  Y42  1  0.00931293  0.01321858  0.64869753  1
  Y  Y43  1  0.50758268  0.99649580  0.65145679  1
  Y  Y44  1  0.00710802  0.00918311  0.14821836  1
  Y  Y45  1  0.50973350  0.00575870  0.14757240  1
  Y  Y46  1  0.82980023  0.32976822  0.68290443  1
  Y  Y47  1  0.33123537  0.32958810  0.18193799  1
  Y  Y48  1  0.16130849  0.65825228  0.01368393  1
  Y  Y49  1  0.65582341  0.65536375  0.01894294  1
  Y  Y50  1  0.15716999  0.65865540  0.52116921  1
  Y  Y51  1  0.66076723  0.66313830  0.51528864  1
  Y  Y52  1  0.17107904  0.67454324  0.31902702  1
  Y  Y53  1  0.66657632  0.66720362  0.81677066  1
  Mg  Mg54  1  0.01066912  0.01528715  0.34975996  1
  Mg  Mg55  1  0.51599581  0.02311942  0.34698134  1
  Mg  Mg56  1  0.01421731  0.00705803  0.84654332  1
  Mg  Mg57  1  0.51312504  0.98903941  0.84405114  1
  Mg  Mg58  1  0.32642026  0.33313360  0.68730073  1
  Mg  Mg59  1  0.81927199  0.31358414  0.18204523  1
  Mg  Mg60  1  0.32727097  0.33246748  0.98610062  1
  Mg  Mg61  1  0.82265534  0.31729956  0.98520822  1
  Mg  Mg62  1  0.32284294  0.33160167  0.48745497  1
  Mg  Mg63  1  0.82757733  0.32542952  0.48864065  1
  Mg  Mg64  1  0.66663326  0.66352628  0.31874726  1
  Mg  Mg65  1  0.17004067  0.67438110  0.81741913  1
  Si  Si66  1  0.14920355  0.99682543  0.25237484  1
  Si  Si67  1  0.65382312  0.99465492  0.25372929  1
  Si  Si68  1  0.15190851  0.31266005  0.75414026  1
  Si  Si69  1  0.65023867  0.30049297  0.75231345  1
  Si  Si70  1  0.49372219  0.68742666  0.75318550  1
  Si  Si71  1  0.97840128  0.32969539  0.58158489  1
  Si  Si72  1  0.19224927  0.04616102  0.58397396  1
  Si  Si73  1  0.68351360  0.03308664  0.57946647  1
  Si  Si74  1  0.47850911  0.62625728  0.08204025  1
  Si  Si75  1  0.18404934  0.33666231  0.08155784  1
  Si  Si76  1  0.69043810  0.34049266  0.08393351  1
  Si  Si77  1  0.16741510  0.96854018  0.91519654  1
  Si  Si78  1  0.66905936  0.97760799  0.91712555  1
  Si  Si79  1  0.16763966  0.36075088  0.41510561  1
  Si  Si80  1  0.66772629  0.36686884  0.41378653  1
  S  S81  1  0.35465069  0.71050112  0.25273450  1
  S  S82  1  0.85299149  0.70595042  0.25236067  1
  S  S83  1  0.99644712  0.29462719  0.25232375  1
  S  S84  1  0.50140787  0.29913917  0.25556970  1
  S  S85  1  0.00169678  0.70376458  0.75553666  1
  S  S86  1  0.35107496  0.99715849  0.75220958  1
  S  S87  1  0.85629698  0.00069211  0.75295738  1
  S  S88  1  0.47481373  0.33224390  0.58208369  1
  S  S89  1  0.33502797  0.62604923  0.58163401  1
  S  S90  1  0.83271642  0.62855756  0.57888756  1
  S  S91  1  0.97528867  0.61582537  0.08450015  1
  S  S92  1  0.33226028  0.03519507  0.07952514  1
  S  S93  1  0.83524477  0.04639378  0.08303616  1
  S  S94  1  0.31600684  0.67011128  0.91462900  1
  S  S95  1  0.82167144  0.67087157  0.91912652  1
  S  S96  1  0.01387580  0.36353701  0.91315676  1
  S  S97  1  0.51128938  0.35593789  0.91528667  1
  S  S98  1  0.32232046  0.97350431  0.41849012  1
  S  S99  1  0.81705425  0.96263126  0.41233879  1
  S  S100  1  0.01232573  0.66697803  0.41368304  1
  S  S101  1  0.51472689  0.66526181  0.41215571  1
  O  O102  1  0.10057002  0.01633761  0.30755058  1
  O  O103  1  0.61042839  0.03068099  0.30892383  1
  O  O104  1  0.40317073  0.80007894  0.30469966  1
  O  O105  1  0.90552174  0.79475245  0.30340533  1
  O  O106  1  0.49046578  0.19667316  0.30759291  1
  O  O107  1  0.98329299  0.19126711  0.30429346  1
  O  O108  1  0.10699453  0.19119655  0.80953243  1
  O  O109  1  0.60308962  0.18621017  0.80865622  1
  O  O110  1  0.47592408  0.76576390  0.81139038  1
  O  O111  1  0.99042349  0.78341138  0.80770800  1
  O  O112  1  0.40372277  0.01661029  0.80336881  1
  O  O113  1  0.90580166  0.00944866  0.80472357  1
  O  O114  1  0.38765783  0.97152674  0.69795998  1
  O  O115  1  0.89292371  0.98143450  0.69881507  1
  O  O116  1  0.09226498  0.23151283  0.69541387  1
  O  O117  1  0.59653456  0.22357343  0.69119818  1
  O  O118  1  0.00959842  0.80272779  0.70298153  1
  O  O119  1  0.51306334  0.81395721  0.69848745  1
  O  O120  1  0.39120415  0.80295597  0.19885052  1
  O  O121  1  0.88975415  0.80718377  0.19860524  1
  O  O122  1  0.00935912  0.21526827  0.20068826  1
  O  O123  1  0.50929410  0.21683875  0.20294887  1
  O  O124  1  0.09420630  0.96865956  0.19209704  1
  O  O125  1  0.59545383  0.95987024  0.19508572  1
  O  O126  1  0.43669272  0.34915296  0.63513056  1
  O  O127  1  0.93839346  0.34923146  0.64208862  1
  O  O128  1  0.24861303  0.13613087  0.64149299  1
  O  O129  1  0.73698557  0.11572221  0.63963349  1
  O  O130  1  0.32793644  0.52880552  0.63379080  1
  O  O131  1  0.82086286  0.52658172  0.63098507  1
  O  O132  1  0.44012257  0.52966056  0.14403431  1
  O  O133  1  0.93740261  0.52218168  0.13817256  1
  O  O134  1  0.31979446  0.11244930  0.13224811  1
  O  O135  1  0.82949899  0.12965857  0.13647784  1
  O  O136  1  0.23505557  0.35868404  0.14314977  1
  O  O137  1  0.74444488  0.36761183  0.14373114  1
  O  O138  1  0.22843498  0.30895499  0.02565923  1
  O  O139  1  0.73322460  0.31679795  0.02600245  1
  O  O140  1  0.42247406  0.52893949  0.02533196  1
  O  O141  1  0.92876734  0.53163087  0.03137957  1
  O  O142  1  0.34165183  0.13317936  0.02727633  1
  O  O143  1  0.84685014  0.14582419  0.03050051  1
  O  O144  1  0.23023216  0.14709183  0.52317764  1
  O  O145  1  0.72787005  0.14454274  0.52212173  1
  O  O146  1  0.34620656  0.55119798  0.52787505  1
  O  O147  1  0.84294439  0.55115409  0.52604992  1
  O  O148  1  0.42876990  0.32648872  0.52832079  1
  O  O149  1  0.92548514  0.31887170  0.52291143  1
  O  O150  1  0.27623829  0.68963474  0.96869139  1
  O  O151  1  0.78390975  0.69777265  0.97190897  1
  O  O152  1  0.06896087  0.43571094  0.96556632  1
  O  O153  1  0.56849522  0.43372389  0.96565822  1
  O  O154  1  0.14936391  0.85577777  0.97565993  1
  O  O155  1  0.65705396  0.86088273  0.97398708  1
  O  O156  1  0.28326809  0.86893580  0.47021936  1
  O  O157  1  0.77923301  0.86197699  0.46604896  1
  O  O158  1  0.15462602  0.45850102  0.46966918  1
  O  O159  1  0.65109671  0.44909259  0.47256149  1
  O  O160  1  0.06991477  0.70354536  0.46366752  1
  O  O161  1  0.56963091  0.70249597  0.46419534  1
  O  O162  1  0.05159886  0.64077767  0.36110579  1
  O  O163  1  0.55529690  0.64079473  0.36115165  1
  O  O164  1  0.26449538  0.89672765  0.36771158  1
  O  O165  1  0.76204989  0.87856515  0.36187440  1
  O  O166  1  0.18218393  0.47346002  0.35587429  1
  O  O167  1  0.68061986  0.48913542  0.35852516  1
  O  O168  1  0.05472285  0.46947574  0.86239959  1
  O  O169  1  0.55080613  0.46138983  0.86342089  1
  O  O170  1  0.17928731  0.86749449  0.86124168  1
  O  O171  1  0.68652814  0.89173880  0.86051319  1
  O  O172  1  0.26101918  0.64445089  0.86421928  1
  O  O173  1  0.76426438  0.63309498  0.86914576  1
  O  O174  1  0.00026525  0.81311752  0.40737573  1
  O  O175  1  0.50018466  0.80930945  0.40628311  1
  O  O176  1  0.40242152  0.97871830  0.40859892  1
  O  O177  1  0.89988832  0.97505851  0.40602482  1
  O  O178  1  0.08166406  0.17687397  0.41228758  1
  O  O179  1  0.58228899  0.18016562  0.41090864  1
  O  O180  1  0.99930440  0.19044904  0.90770090  1
  O  O181  1  0.49870203  0.18565934  0.90898367  1
  O  O182  1  0.08181579  0.98414872  0.91118612  1
  O  O183  1  0.58300032  0.98825422  0.91333535  1
  O  O184  1  0.39751070  0.82522966  0.91045413  1
  O  O185  1  0.90254159  0.82644591  0.90979768  1
  O  O186  1  0.47819068  0.17222373  0.58305557  1
  O  O187  1  0.98045084  0.15118348  0.58252504  1
  O  O188  1  0.09866172  0.02677513  0.58702217  1
  O  O189  1  0.59266358  0.02482281  0.58132631  1
  O  O190  1  0.40481449  0.80176972  0.58516047  1
  O  O191  1  0.90473643  0.79907124  0.58553129  1
  O  O192  1  0.48145352  0.80988255  0.08348654  1
  O  O193  1  0.97805409  0.78290998  0.08644211  1
  O  O194  1  0.40379966  0.00865152  0.08663637  1
  O  O195  1  0.90573251  0.01225299  0.08759567  1
  O  O196  1  0.09184209  0.16327354  0.08337297  1
  O  O197  1  0.59767288  0.17132713  0.08628227  1
  O  O198  1  0.34427292  0.15040296  0.74711464  1
  O  O199  1  0.85300942  0.15974195  0.75153627  1
  O  O200  1  0.24262509  0.32390999  0.74703844  1
  O  O201  1  0.74007111  0.30371500  0.75015326  1
  O  O202  1  0.41482214  0.49999389  0.74269951  1
  O  O203  1  0.92930290  0.53174591  0.75118435  1
  O  O204  1  0.35003431  0.54325629  0.25167070  1
  O  O205  1  0.84993907  0.54152184  0.24757141  1
  O  O206  1  0.42862676  0.32607732  0.25167547  1
  O  O207  1  0.92396084  0.31939953  0.24420088  1
  O  O208  1  0.24019464  0.16882843  0.25032513  1
  O  O209  1  0.74758923  0.16331940  0.24691016  1
  O  O210  1  0.32622875  0.52116440  0.91930084  1
  O  O211  1  0.83642647  0.52716975  0.92513419  1
  O  O212  1  0.43041278  0.34907582  0.92311412  1
  O  O213  1  0.93347586  0.35851375  0.92261377  1
  O  O214  1  0.25259583  0.15360675  0.92063660  1
  O  O215  1  0.75444649  0.16306021  0.92101613  1
  O  O216  1  0.33593697  0.14531868  0.42399540  1
  O  O217  1  0.82755543  0.13223310  0.41720661  1
  O  O218  1  0.25374591  0.34896839  0.42035654  1
  O  O219  1  0.75327398  0.35244640  0.41941093  1
  O  O220  1  0.43380637  0.50959601  0.42102372  1
  O  O221  1  0.93156155  0.51367216  0.42110610  1
  O  O222  1  0.18017332  0.51105639  0.07990735  1
  O  O223  1  0.68563408  0.51427895  0.08057965  1
  O  O224  1  0.06361683  0.65298611  0.08214139  1
  O  O225  1  0.57615683  0.66975957  0.08240179  1
  O  O226  1  0.25496491  0.86638612  0.07632640  1
  O  O227  1  0.75766903  0.88040673  0.07961484  1
  O  O228  1  0.18749573  0.86216353  0.58098775  1
  O  O229  1  0.68057095  0.85186130  0.57780319  1
  O  O230  1  0.25677109  0.63545948  0.57738785  1
  O  O231  1  0.75592778  0.64317308  0.57495428  1
  O  O232  1  0.07634797  0.48138716  0.58228416  1
  O  O233  1  0.56318284  0.47317118  0.57960969  1
  O  O234  1  0.15251124  0.82111292  0.25364401  1
  O  O235  1  0.66233107  0.82492841  0.26030702  1
  O  O236  1  0.26698400  0.67757271  0.25446570  1
  O  O237  1  0.76791264  0.68161017  0.25692385  1
  O  O238  1  0.07344736  0.46236521  0.25728349  1
  O  O239  1  0.57839846  0.46615935  0.25918220  1
  O  O240  1  0.16163594  0.50016595  0.76027963  1
  O  O241  1  0.65894294  0.48511024  0.75479539  1
  O  O242  1  0.07904143  0.69217227  0.75911656  1
  O  O243  1  0.58059134  0.67809902  0.75639253  1
  O  O244  1  0.26619145  0.84832614  0.75698124  1
  O  O245  1  0.76961263  0.85908753  0.75511353  1
