# generated using pymatgen
data_HfTiSi(SO6)2
_symmetry_space_group_name_H-M   'P 1'
_cell_length_a   8.83874124
_cell_length_b   8.84150008
_cell_length_c   22.78840905
_cell_angle_alpha   90.17001473
_cell_angle_beta   90.00117645
_cell_angle_gamma   120.04689094
_symmetry_Int_Tables_number   1
_chemical_formula_structural   HfTiSi(SO6)2
_chemical_formula_sum   'Hf6 Ti6 Si6 S12 O72'
_cell_volume   1541.53377143
_cell_formula_units_Z   6
loop_
 _symmetry_equiv_pos_site_id
 _symmetry_equiv_pos_as_xyz
  1  'x, y, z'
loop_
 _atom_site_type_symbol
 _atom_site_label
 _atom_site_symmetry_multiplicity
 _atom_site_fract_x
 _atom_site_fract_y
 _atom_site_fract_z
 _atom_site_occupancy
  Hf  Hf0  1  0.01710891  0.00726621  0.85490543  1
  Hf  Hf1  1  0.66500260  0.33807293  0.19225218  1
  Hf  Hf2  1  0.65005513  0.32433547  0.97771175  1
  Hf  Hf3  1  0.32914628  0.66886793  0.02420558  1
  Hf  Hf4  1  0.33801264  0.66619160  0.52374797  1
  Hf  Hf5  1  0.33646202  0.67190315  0.80757018  1
  Ti  Ti6  1  0.98979777  0.01279099  0.35650047  1
  Ti  Ti7  1  0.01096930  0.02413611  0.64243598  1
  Ti  Ti8  1  0.01582174  0.02489283  0.14603642  1
  Ti  Ti9  1  0.67116107  0.34015325  0.68818630  1
  Ti  Ti10  1  0.67994358  0.32165193  0.47629990  1
  Ti  Ti11  1  0.33549885  0.67322288  0.31061648  1
  Si  Si12  1  0.00737890  0.29345787  0.25172333  1
  Si  Si13  1  0.29508155  0.28942273  0.74735682  1
  Si  Si14  1  0.94970567  0.33382521  0.58489371  1
  Si  Si15  1  0.37634222  0.33379422  0.08527232  1
  Si  Si16  1  0.33321094  0.95227799  0.91627396  1
  Si  Si17  1  0.61652450  0.95029379  0.41574697  1
  S  S18  1  0.27967554  0.99428241  0.25134315  1
  S  S19  1  0.71527407  0.72142345  0.25145271  1
  S  S20  1  0.99431320  0.71177714  0.74711813  1
  S  S21  1  0.71677106  0.00591581  0.74725688  1
  S  S22  1  0.38132162  0.05251156  0.58352934  1
  S  S23  1  0.67395939  0.61907297  0.58387507  1
  S  S24  1  0.95228212  0.62702037  0.08513498  1
  S  S25  1  0.67381031  0.04690216  0.08493189  1
  S  S26  1  0.62153963  0.66890277  0.91621996  1
  S  S27  1  0.04504295  0.38037824  0.91633055  1
  S  S28  1  0.33626218  0.37871281  0.41539817  1
  S  S29  1  0.04547633  0.66875495  0.41545364  1
  O  O30  1  0.20169681  0.02346812  0.30342388  1
  O  O31  1  0.82618209  0.79951558  0.30397763  1
  O  O32  1  0.97938390  0.16255169  0.30717476  1
  O  O33  1  0.20387153  0.16569579  0.80401817  1
  O  O34  1  0.96227864  0.78640344  0.80135020  1
  O  O35  1  0.81975835  0.03188504  0.80132508  1
  O  O36  1  0.79807344  0.97298164  0.69591725  1
  O  O37  1  0.16287059  0.18543525  0.69108867  1
  O  O38  1  0.02299537  0.82047541  0.69591263  1
  O  O39  1  0.79226962  0.82410201  0.19820754  1
  O  O40  1  0.03506621  0.19309121  0.19457181  1
  O  O41  1  0.17280473  0.96449942  0.19763481  1
  O  O42  1  0.84718798  0.35483464  0.64056955  1
  O  O43  1  0.49020743  0.13098855  0.63601261  1
  O  O44  1  0.63891853  0.50726087  0.63690842  1
  O  O45  1  0.87168165  0.51142996  0.13673497  1
  O  O46  1  0.64239027  0.12814469  0.13647631  1
  O  O47  1  0.49631879  0.35891655  0.14189833  1
  O  O48  1  0.46311006  0.29777410  0.02768099  1
  O  O49  1  0.84822813  0.54524009  0.03154113  1
  O  O50  1  0.70630611  0.15620341  0.03181969  1
  O  O51  1  0.45808941  0.16074075  0.53053174  1
  O  O52  1  0.69626959  0.53672844  0.53109655  1
  O  O53  1  0.82399172  0.30233728  0.52643401  1
  O  O54  1  0.53947294  0.69303461  0.96910754  1
  O  O55  1  0.15597058  0.45641909  0.96905660  1
  O  O56  1  0.30591219  0.83425480  0.97380371  1
  O  O57  1  0.53152534  0.83367642  0.47326680  1
  O  O58  1  0.29756301  0.45398636  0.46844754  1
  O  O59  1  0.15544206  0.69682535  0.46839543  1
  O  O60  1  0.12430234  0.63233902  0.36338456  1
  O  O61  1  0.49235968  0.85306900  0.35861078  1
  O  O62  1  0.36262005  0.49005072  0.36383831  1
  O  O63  1  0.12764730  0.48665223  0.86378733  1
  O  O64  1  0.35973784  0.85925782  0.85890583  1
  O  O65  1  0.50987527  0.63343889  0.86372952  1
  O  O66  1  0.02757024  0.82284604  0.40525819  1
  O  O67  1  0.81186556  0.97659710  0.40299817  1
  O  O68  1  0.18111782  0.20100000  0.40592148  1
  O  O69  1  0.01935193  0.20271041  0.90812254  1
  O  O70  1  0.16007043  0.97094185  0.90921411  1
  O  O71  1  0.79269663  0.82602471  0.90719274  1
  O  O72  1  0.96330883  0.15601122  0.59510114  1
  O  O73  1  0.20280907  0.02641130  0.59226489  1
  O  O74  1  0.82668746  0.79249775  0.59448394  1
  O  O75  1  0.97037541  0.79845118  0.09522049  1
  O  O76  1  0.82510702  0.02196761  0.09390968  1
  O  O77  1  0.18343528  0.15479275  0.09623980  1
  O  O78  1  0.69326650  0.15843329  0.73906358  1
  O  O79  1  0.48391481  0.30747337  0.73227112  1
  O  O80  1  0.83868673  0.53481344  0.73997330  1
  O  O81  1  0.69571303  0.54390826  0.24460013  1
  O  O82  1  0.83706054  0.30940228  0.24026514  1
  O  O83  1  0.45762853  0.14827035  0.24273295  1
  O  O84  1  0.64705874  0.51680148  0.92448756  1
  O  O85  1  0.87400109  0.36631375  0.92566363  1
  O  O86  1  0.50745412  0.14358989  0.92351973  1
  O  O87  1  0.63952484  0.14637356  0.42699126  1
  O  O88  1  0.49120810  0.36200784  0.42598565  1
  O  O89  1  0.86861744  0.51265733  0.42558571  1
  O  O90  1  0.34749339  0.49676810  0.07416617  1
  O  O91  1  0.12749668  0.64348245  0.07785411  1
  O  O92  1  0.51697252  0.87256287  0.07621616  1
  O  O93  1  0.36116736  0.87579471  0.57524128  1
  O  O94  1  0.51434670  0.63638265  0.57648979  1
  O  O95  1  0.13973509  0.49900928  0.57332077  1
  O  O96  1  0.29939357  0.83710934  0.25881331  1
  O  O97  1  0.53723226  0.69632426  0.26025103  1
  O  O98  1  0.17961705  0.48216754  0.26620352  1
  O  O99  1  0.31294140  0.47758131  0.75734760  1
  O  O100  1  0.14879345  0.68957004  0.75622162  1
  O  O101  1  0.54094876  0.84703073  0.75438681  1
