# generated using pymatgen
data_Na2CaHfP2SO12
_symmetry_space_group_name_H-M   'P 1'
_cell_length_a   9.11184835
_cell_length_b   9.15097404
_cell_length_c   23.05047094
_cell_angle_alpha   90.49486394
_cell_angle_beta   90.00000000
_cell_angle_gamma   119.85866560
_symmetry_Int_Tables_number   1
_chemical_formula_structural   Na2CaHfP2SO12
_chemical_formula_sum   'Na12 Ca6 Hf6 P12 S6 O72'
_cell_volume   1666.78451312
_cell_formula_units_Z   6
loop_
 _symmetry_equiv_pos_site_id
 _symmetry_equiv_pos_as_xyz
  1  'x, y, z'
loop_
 _atom_site_type_symbol
 _atom_site_label
 _atom_site_symmetry_multiplicity
 _atom_site_fract_x
 _atom_site_fract_y
 _atom_site_fract_z
 _atom_site_occupancy
  Na  Na0  1  0.99373677  0.63331309  0.24318775  1
  Na  Na1  1  0.63957631  0.63331309  0.74318775  1
  Na  Na2  1  0.66040377  0.96664609  0.57652075  1
  Na  Na3  1  0.30624331  0.96664609  0.07652075  1
  Na  Na4  1  0.32706977  0.29998009  0.90985475  1
  Na  Na5  1  0.97290931  0.29998009  0.40985475  1
  Na  Na6  1  0.99575878  0.96974538  0.49478762  1
  Na  Na7  1  0.97398660  0.96974538  0.99478762  1
  Na  Na8  1  0.66242578  0.30307838  0.82812062  1
  Na  Na9  1  0.64065360  0.30307838  0.32812062  1
  Na  Na10  1  0.32909178  0.63641238  0.16145462  1
  Na  Na11  1  0.30731960  0.63641238  0.66145462  1
  Ca  Ca12  1  0.99801220  0.99692384  0.35185255  1
  Ca  Ca13  1  0.99891163  0.99692384  0.85185255  1
  Ca  Ca14  1  0.66467920  0.33025684  0.68518555  1
  Ca  Ca15  1  0.66557863  0.33025684  0.18518555  1
  Ca  Ca16  1  0.33134520  0.66359084  0.01851955  1
  Ca  Ca17  1  0.33224463  0.66359084  0.51851955  1
  Hf  Hf18  1  0.00070081  0.01005611  0.64918302  1
  Hf  Hf19  1  0.00935530  0.01005611  0.14918302  1
  Hf  Hf20  1  0.66736781  0.34338911  0.98251602  1
  Hf  Hf21  1  0.67602230  0.34338911  0.48251602  1
  Hf  Hf22  1  0.33403381  0.67672311  0.31585002  1
  Hf  Hf23  1  0.34268830  0.67672311  0.81585002  1
  P  P24  1  0.29376761  0.99363561  0.25082307  1
  P  P25  1  0.01093987  0.30431025  0.25420043  1
  P  P26  1  0.29337038  0.30431025  0.75420043  1
  P  P27  1  0.69986799  0.99363561  0.75082307  1
  P  P28  1  0.96043461  0.32696861  0.58415607  1
  P  P29  1  0.67760687  0.63764325  0.58753343  1
  P  P30  1  0.96003738  0.63764325  0.08753343  1
  P  P31  1  0.36653499  0.32696861  0.08415607  1
  P  P32  1  0.62710061  0.66030261  0.91749007  1
  P  P33  1  0.34427287  0.97097725  0.92086743  1
  P  P34  1  0.62670338  0.97097725  0.42086743  1
  P  P35  1  0.03320099  0.66030261  0.41749007  1
  S  S36  1  0.70006797  0.71209896  0.24928376  1
  S  S37  1  0.01203099  0.71209896  0.74928376  1
  S  S38  1  0.36673497  0.04543196  0.58261676  1
  S  S39  1  0.67869799  0.04543196  0.08261676  1
  S  S40  1  0.03340097  0.37876596  0.91595076  1
  S  S41  1  0.34536399  0.37876596  0.41595076  1
  O  O42  1  0.20472560  0.00738207  0.30335098  1
  O  O43  1  0.79798624  0.78671393  0.30157932  1
  O  O44  1  0.98854429  0.21125323  0.31027937  1
  O  O45  1  0.22270893  0.21125323  0.81027937  1
  O  O46  1  0.98872768  0.78671393  0.80157932  1
  O  O47  1  0.80265647  0.00738207  0.80335098  1
  O  O48  1  0.78921292  0.96663050  0.69457684  1
  O  O49  1  0.17563201  0.20011244  0.70056360  1
  O  O50  1  0.03170497  0.81944019  0.69727833  1
  O  O51  1  0.78773522  0.81944019  0.19727833  1
  O  O52  1  0.02448043  0.20011244  0.20056360  1
  O  O53  1  0.17741758  0.96663050  0.19457684  1
  O  O54  1  0.87139260  0.34071507  0.63668398  1
  O  O55  1  0.46465324  0.12004693  0.63491232  1
  O  O56  1  0.65521129  0.54458623  0.64361237  1
  O  O57  1  0.88937593  0.54458623  0.14361237  1
  O  O58  1  0.65539468  0.12004693  0.13491232  1
  O  O59  1  0.46932347  0.34071507  0.13668398  1
  O  O60  1  0.45587992  0.29996350  0.02790984  1
  O  O61  1  0.84229901  0.53344544  0.03389660  1
  O  O62  1  0.69837197  0.15277319  0.03061133  1
  O  O63  1  0.45440222  0.15277319  0.53061133  1
  O  O64  1  0.69114743  0.53344544  0.53389660  1
  O  O65  1  0.84408458  0.29996350  0.52790984  1
  O  O66  1  0.53805860  0.67404907  0.97001798  1
  O  O67  1  0.13131924  0.45338093  0.96824632  1
  O  O68  1  0.32187729  0.87792023  0.97694637  1
  O  O69  1  0.55604193  0.87792023  0.47694637  1
  O  O70  1  0.32206068  0.45338093  0.46824632  1
  O  O71  1  0.13598947  0.67404907  0.47001798  1
  O  O72  1  0.12254592  0.63329750  0.36124384  1
  O  O73  1  0.50896501  0.86677944  0.36723060  1
  O  O74  1  0.36503797  0.48610719  0.36394533  1
  O  O75  1  0.12106822  0.48610719  0.86394533  1
  O  O76  1  0.35781343  0.86677944  0.86723060  1
  O  O77  1  0.51075058  0.63329750  0.86124384  1
  O  O78  1  0.99927520  0.80502789  0.41174282  1
  O  O79  1  0.80945993  0.00936080  0.41320665  1
  O  O80  1  0.19552696  0.20995880  0.40958710  1
  O  O81  1  0.01443184  0.20995880  0.90958710  1
  O  O82  1  0.19990087  0.00936080  0.91320665  1
  O  O83  1  0.80575269  0.80502789  0.91174282  1
  O  O84  1  0.96283091  0.15292985  0.58816325  1
  O  O85  1  0.19531554  0.03107995  0.58680889  1
  O  O86  1  0.84804611  0.81472713  0.58954464  1
  O  O87  1  0.96668102  0.81472713  0.08954464  1
  O  O88  1  0.83576442  0.03107995  0.08680889  1
  O  O89  1  0.19009894  0.15292985  0.08816325  1
  O  O90  1  0.66594220  0.13836089  0.74507582  1
  O  O91  1  0.47612693  0.34269380  0.74653965  1
  O  O92  1  0.86219396  0.54329180  0.74292010  1
  O  O93  1  0.68109884  0.54329180  0.24292010  1
  O  O94  1  0.86656787  0.34269380  0.24653965  1
  O  O95  1  0.47241969  0.13836089  0.24507582  1
  O  O96  1  0.62949791  0.48626285  0.92149625  1
  O  O97  1  0.86198254  0.36441295  0.92014189  1
  O  O98  1  0.51471311  0.14806013  0.92287764  1
  O  O99  1  0.63334802  0.14806013  0.42287764  1
  O  O100  1  0.50243142  0.36441295  0.42014189  1
  O  O101  1  0.85676594  0.48626285  0.42149625  1
  O  O102  1  0.33260820  0.47169489  0.07840982  1
  O  O103  1  0.14279293  0.67602780  0.07987365  1
  O  O104  1  0.52885996  0.87662580  0.07625410  1
  O  O105  1  0.34776484  0.87662580  0.57625410  1
  O  O106  1  0.53323387  0.67602780  0.57987365  1
  O  O107  1  0.13908569  0.47169489  0.57840982  1
  O  O108  1  0.29616391  0.81959685  0.25483025  1
  O  O109  1  0.52864854  0.69774695  0.25347589  1
  O  O110  1  0.18137911  0.48139413  0.25621164  1
  O  O111  1  0.30001402  0.48139413  0.75621164  1
  O  O112  1  0.16909742  0.69774695  0.75347589  1
  O  O113  1  0.52343194  0.81959685  0.75483025  1
