# generated using pymatgen
data_Na10Ta2Ga6Si7S5O48
_symmetry_space_group_name_H-M   'P 1'
_cell_length_a   17.76506055
_cell_length_b   8.82434877
_cell_length_c   22.22900717
_cell_angle_alpha   90.09401152
_cell_angle_beta   90.17245849
_cell_angle_gamma   119.83317229
_symmetry_Int_Tables_number   1
_chemical_formula_structural   Na10Ta2Ga6Si7S5O48
_chemical_formula_sum   'Na30 Ta6 Ga18 Si21 S15 O144'
_cell_volume   3022.89367048
_cell_formula_units_Z   3
loop_
 _symmetry_equiv_pos_site_id
 _symmetry_equiv_pos_as_xyz
  1  'x, y, z'
loop_
 _atom_site_type_symbol
 _atom_site_label
 _atom_site_symmetry_multiplicity
 _atom_site_fract_x
 _atom_site_fract_y
 _atom_site_fract_z
 _atom_site_occupancy
  Na  Na0  1  0.31803785  0.00215163  0.24688582  1
  Na  Na1  1  0.81534232  0.00505161  0.24839880  1
  Na  Na2  1  0.18595526  0.36567445  0.24680190  1
  Na  Na3  1  0.31554626  0.62550371  0.74885674  1
  Na  Na4  1  0.81762281  0.63318262  0.74681455  1
  Na  Na5  1  0.68498062  0.00527744  0.74709945  1
  Na  Na6  1  0.15764364  0.33748398  0.58336711  1
  Na  Na7  1  0.65423689  0.33583611  0.57978964  1
  Na  Na8  1  0.01774237  0.69837881  0.57643243  1
  Na  Na9  1  0.15549481  0.97507316  0.08148170  1
  Na  Na10  1  0.65702133  0.97692218  0.08326838  1
  Na  Na11  1  0.51707186  0.33595758  0.07587710  1
  Na  Na12  1  0.85132123  0.02979583  0.91950337  1
  Na  Na13  1  0.66547715  0.30658017  0.91855497  1
  Na  Na14  1  0.48443974  0.29625316  0.41903743  1
  Na  Na15  1  0.16695268  0.02623788  0.41906947  1
  Na  Na16  1  0.66663497  0.04591901  0.41599750  1
  Na  Na17  1  0.84912414  0.65999377  0.41649182  1
  Na  Na18  1  0.99755293  0.99695418  0.49725135  1
  Na  Na19  1  0.49053027  0.98359598  0.49564901  1
  Na  Na20  1  0.99855037  0.99870959  0.99584329  1
  Na  Na21  1  0.49129974  0.99742373  0.99514983  1
  Na  Na22  1  0.33396769  0.32970253  0.83310896  1
  Na  Na23  1  0.83953684  0.34060190  0.83234459  1
  Na  Na24  1  0.33588480  0.34724330  0.33261965  1
  Na  Na25  1  0.83517223  0.33928353  0.33142513  1
  Na  Na26  1  0.16627350  0.65619027  0.16201585  1
  Na  Na27  1  0.67232093  0.66777408  0.16512480  1
  Na  Na28  1  0.17305109  0.67746043  0.66522753  1
  Na  Na29  1  0.66616909  0.67605503  0.66194109  1
  Ta  Ta30  1  0.00003605  0.00533306  0.64832175  1
  Ta  Ta31  1  0.50286670  0.98837451  0.64309672  1
  Ta  Ta32  1  0.00332973  0.01737699  0.14267881  1
  Ta  Ta33  1  0.49905941  0.99325313  0.14792360  1
  Ta  Ta34  1  0.16366116  0.67425627  0.31201272  1
  Ta  Ta35  1  0.66191313  0.64891643  0.81241067  1
  Ga  Ga36  1  0.00411455  0.00200925  0.34774867  1
  Ga  Ga37  1  0.49971977  0.99364130  0.35283158  1
  Ga  Ga38  1  0.99904238  0.00643102  0.84966244  1
  Ga  Ga39  1  0.49912092  0.00671155  0.84843907  1
  Ga  Ga40  1  0.32214533  0.33765160  0.68663935  1
  Ga  Ga41  1  0.82081680  0.31335853  0.68362227  1
  Ga  Ga42  1  0.32122621  0.32724146  0.18356705  1
  Ga  Ga43  1  0.82188599  0.30683430  0.18659699  1
  Ga  Ga44  1  0.33218212  0.31418437  0.98074369  1
  Ga  Ga45  1  0.83114313  0.34053073  0.98782783  1
  Ga  Ga46  1  0.32746907  0.32568535  0.48699808  1
  Ga  Ga47  1  0.82917473  0.35032749  0.47985217  1
  Ga  Ga48  1  0.17570761  0.66744444  0.02060145  1
  Ga  Ga49  1  0.68145682  0.65355383  0.01827920  1
  Ga  Ga50  1  0.18132997  0.70644576  0.51951634  1
  Ga  Ga51  1  0.67165315  0.66689872  0.52114739  1
  Ga  Ga52  1  0.66367895  0.66512383  0.31570219  1
  Ga  Ga53  1  0.16418218  0.65426205  0.81699564  1
  Si  Si54  1  0.14455944  0.00195659  0.24966931  1
  Si  Si55  1  0.64503804  0.99410399  0.25557331  1
  Si  Si56  1  0.35830313  0.70234014  0.25290806  1
  Si  Si57  1  0.99509913  0.28998680  0.25337562  1
  Si  Si58  1  0.14517355  0.29300434  0.75575385  1
  Si  Si59  1  0.64371464  0.28446411  0.75020256  1
  Si  Si60  1  0.49506069  0.70090201  0.75392306  1
  Si  Si61  1  0.85662132  0.01329251  0.75274421  1
  Si  Si62  1  0.19244942  0.04330583  0.58526534  1
  Si  Si63  1  0.69212363  0.03610401  0.57905946  1
  Si  Si64  1  0.32980500  0.61909408  0.58004832  1
  Si  Si65  1  0.83263739  0.62228611  0.58496360  1
  Si  Si66  1  0.33211139  0.04341022  0.08393644  1
  Si  Si67  1  0.82988860  0.03986710  0.07918717  1
  Si  Si68  1  0.19361685  0.34495856  0.07900379  1
  Si  Si69  1  0.69251635  0.34063479  0.08528939  1
  Si  Si70  1  0.82180839  0.66943071  0.91646326  1
  Si  Si71  1  0.51413868  0.36885783  0.92057413  1
  Si  Si72  1  0.31809873  0.96705038  0.41711935  1
  Si  Si73  1  0.66485791  0.38079243  0.41561118  1
  Si  Si74  1  0.01785718  0.66123645  0.42027172  1
  S  S75  1  0.85533813  0.70634809  0.25016731  1
  S  S76  1  0.50201756  0.29735151  0.25033574  1
  S  S77  1  0.00294936  0.70911468  0.75146853  1
  S  S78  1  0.35428830  0.00312988  0.75067601  1
  S  S79  1  0.47690717  0.33530800  0.58445969  1
  S  S80  1  0.97519126  0.33180947  0.58283076  1
  S  S81  1  0.47556087  0.61889907  0.08283634  1
  S  S82  1  0.97813649  0.61979782  0.08389089  1
  S  S83  1  0.31289771  0.66740671  0.91632617  1
  S  S84  1  0.02335026  0.38250023  0.91780920  1
  S  S85  1  0.16508996  0.94914134  0.91582802  1
  S  S86  1  0.66440915  0.95417073  0.91782338  1
  S  S87  1  0.81420003  0.96052881  0.41646454  1
  S  S88  1  0.16561140  0.37597752  0.41773753  1
  S  S89  1  0.52113687  0.66406952  0.41775570  1
  O  O90  1  0.10545738  0.04105940  0.30960596  1
  O  O91  1  0.60122227  0.02682419  0.31375314  1
  O  O92  1  0.41658881  0.80093450  0.30996485  1
  O  O93  1  0.90552337  0.78448224  0.30704107  1
  O  O94  1  0.48583792  0.18756521  0.30408355  1
  O  O95  1  0.97566436  0.15642311  0.30892364  1
  O  O96  1  0.09799450  0.16332900  0.81092519  1
  O  O97  1  0.60378474  0.16614061  0.80956671  1
  O  O98  1  0.47646949  0.79723365  0.80925442  1
  O  O99  1  0.98452663  0.78831896  0.80372038  1
  O  O100  1  0.40671244  0.02887232  0.80597993  1
  O  O101  1  0.91132759  0.03454202  0.81287544  1
  O  O102  1  0.39529383  0.96709486  0.69741747  1
  O  O103  1  0.90106086  0.96453053  0.69529343  1
  O  O104  1  0.08437785  0.20263699  0.69325725  1
  O  O105  1  0.58353185  0.19893366  0.69007815  1
  O  O106  1  0.01630841  0.81940795  0.69525619  1
  O  O107  1  0.51533909  0.83370864  0.69401753  1
  O  O108  1  0.40004594  0.83540834  0.19384633  1
  O  O109  1  0.89906552  0.82535053  0.19776381  1
  O  O110  1  0.01506471  0.19652362  0.19379654  1
  O  O111  1  0.51473931  0.21004056  0.19527691  1
  O  O112  1  0.08388581  0.96851920  0.19000981  1
  O  O113  1  0.58381830  0.96535676  0.19383410  1
  O  O114  1  0.43598377  0.35848989  0.63720645  1
  O  O115  1  0.93717238  0.36200928  0.63757013  1
  O  O116  1  0.25348370  0.13558385  0.64217970  1
  O  O117  1  0.74206799  0.11162696  0.64271172  1
  O  O118  1  0.31303560  0.51054458  0.64248688  1
  O  O119  1  0.81933531  0.50498762  0.64513889  1
  O  O120  1  0.43726719  0.51200869  0.13758495  1
  O  O121  1  0.93966687  0.51573164  0.13759557  1
  O  O122  1  0.31696767  0.12745921  0.14559620  1
  O  O123  1  0.81379969  0.11865881  0.14092241  1
  O  O124  1  0.24192735  0.37028470  0.14348784  1
  O  O125  1  0.75398908  0.37259502  0.14232846  1
  O  O126  1  0.23505763  0.29327189  0.02335932  1
  O  O127  1  0.72482490  0.28879816  0.02336076  1
  O  O128  1  0.42306671  0.54941922  0.02897897  1
  O  O129  1  0.92534272  0.54864597  0.02822850  1
  O  O130  1  0.36003321  0.17359571  0.02712774  1
  O  O131  1  0.85172722  0.16428959  0.01946385  1
  O  O132  1  0.22313422  0.15758893  0.52281562  1
  O  O133  1  0.73233053  0.16634747  0.52163343  1
  O  O134  1  0.35320507  0.53589106  0.52257851  1
  O  O135  1  0.85889342  0.55240964  0.52510945  1
  O  O136  1  0.42696144  0.30398228  0.52713167  1
  O  O137  1  0.92224593  0.29762914  0.52888680  1
  O  O138  1  0.27133746  0.69898351  0.96938753  1
  O  O139  1  0.77814666  0.71883181  0.97148395  1
  O  O140  1  0.07759935  0.46888581  0.97140549  1
  O  O141  1  0.58103457  0.46001361  0.97787069  1
  O  O142  1  0.15319605  0.84442498  0.97180209  1
  O  O143  1  0.65273953  0.85000665  0.97190591  1
  O  O144  1  0.27481321  0.84423621  0.47389994  1
  O  O145  1  0.77292042  0.84479208  0.46905061  1
  O  O146  1  0.15289799  0.45513503  0.47184787  1
  O  O147  1  0.64638277  0.46548064  0.47629348  1
  O  O148  1  0.08231329  0.70433796  0.47805159  1
  O  O149  1  0.57769400  0.69600449  0.47065554  1
  O  O150  1  0.06874787  0.63978861  0.36038927  1
  O  O151  1  0.55974304  0.63343220  0.36236779  1
  O  O152  1  0.25162244  0.87393697  0.35760884  1
  O  O153  1  0.76007936  0.88576529  0.36065913  1
  O  O154  1  0.17709767  0.48271456  0.36237921  1
  O  O155  1  0.68512788  0.51349906  0.35840984  1
  O  O156  1  0.06217331  0.48785072  0.86227355  1
  O  O157  1  0.56770434  0.49631450  0.86092516  1
  O  O158  1  0.17798659  0.86202121  0.86159097  1
  O  O159  1  0.67813769  0.87052342  0.86284897  1
  O  O160  1  0.25968179  0.64210574  0.86018114  1
  O  O161  1  0.75378269  0.63275901  0.85739772  1
  O  O162  1  0.00819113  0.83974600  0.40971542  1
  O  O163  1  0.51351258  0.82362362  0.41333442  1
  O  O164  1  0.41425424  0.99468906  0.40771793  1
  O  O165  1  0.89994865  0.96994648  0.41118649  1
  O  O166  1  0.08737739  0.19749172  0.41230356  1
  O  O167  1  0.57943226  0.18511453  0.41096539  1
  O  O168  1  0.01475744  0.20589634  0.91431230  1
  O  O169  1  0.51158540  0.17963305  0.90970886  1
  O  O170  1  0.08675225  0.96520200  0.91082293  1
  O  O171  1  0.58749198  0.97733063  0.91218693  1
  O  O172  1  0.39923997  0.82669519  0.91165652  1
  O  O173  1  0.91599287  0.84736682  0.90798632  1
  O  O174  1  0.48753189  0.17461718  0.58941672  1
  O  O175  1  0.98635604  0.17019230  0.58934564  1
  O  O176  1  0.09259993  0.02584804  0.59303181  1
  O  O177  1  0.59427263  0.02914717  0.58780257  1
  O  O178  1  0.41514149  0.81942805  0.59007626  1
  O  O179  1  0.92165269  0.81704147  0.59246240  1
  O  O180  1  0.48713542  0.80290939  0.08964382  1
  O  O181  1  0.98789704  0.80089767  0.08936249  1
  O  O182  1  0.42054282  0.02454088  0.09237376  1
  O  O183  1  0.91546209  0.01167834  0.08960023  1
  O  O184  1  0.09460137  0.15759793  0.08744197  1
  O  O185  1  0.59277694  0.15965611  0.09308007  1
  O  O186  1  0.34656142  0.15863044  0.74358517  1
  O  O187  1  0.84546065  0.18236962  0.74291614  1
  O  O188  1  0.24126577  0.31672648  0.74812242  1
  O  O189  1  0.74241386  0.31676790  0.74602908  1
  O  O190  1  0.41259690  0.51102931  0.74220897  1
  O  O191  1  0.92535180  0.53702159  0.74303580  1
  O  O192  1  0.34557198  0.50937675  0.24311792  1
  O  O193  1  0.84748721  0.53573940  0.24371165  1
  O  O194  1  0.42377493  0.31216185  0.24223900  1
  O  O195  1  0.91231210  0.31402691  0.24201289  1
  O  O196  1  0.24273214  0.16816251  0.24598755  1
  O  O197  1  0.74126494  0.16369266  0.24766555  1
  O  O198  1  0.31915489  0.50892076  0.92233436  1
  O  O199  1  0.82183875  0.48369710  0.92341325  1
  O  O200  1  0.42042530  0.35974627  0.92262967  1
  O  O201  1  0.93480923  0.35989615  0.92109753  1
  O  O202  1  0.24437218  0.12371697  0.91922222  1
  O  O203  1  0.74497871  0.12907707  0.91904787  1
  O  O204  1  0.32473672  0.16293827  0.42306293  1
  O  O205  1  0.82225501  0.13350725  0.42332128  1
  O  O206  1  0.24429534  0.35664266  0.41919417  1
  O  O207  1  0.75170954  0.35903465  0.41951527  1
  O  O208  1  0.43507252  0.50422160  0.42237987  1
  O  O209  1  0.92219232  0.48855284  0.42272672  1
  O  O210  1  0.17266076  0.50285904  0.07372436  1
  O  O211  1  0.67028954  0.49848795  0.08148135  1
  O  O212  1  0.06726446  0.64952854  0.07628512  1
  O  O213  1  0.56447885  0.64790731  0.07823169  1
  O  O214  1  0.24266030  0.85522355  0.07594450  1
  O  O215  1  0.73973673  0.85050042  0.07314885  1
  O  O216  1  0.16915928  0.84037641  0.58232188  1
  O  O217  1  0.67236148  0.83773502  0.57182285  1
  O  O218  1  0.23962294  0.62809631  0.57404476  1
  O  O219  1  0.74427905  0.63338321  0.57916978  1
  O  O220  1  0.06405720  0.48044674  0.57789551  1
  O  O221  1  0.56582067  0.48675726  0.57943507  1
  O  O222  1  0.15524951  0.82644645  0.25346754  1
  O  O223  1  0.65889194  0.82020887  0.25937376  1
  O  O224  1  0.25997836  0.68360955  0.25879359  1
  O  O225  1  0.76930915  0.69876398  0.25368495  1
  O  O226  1  0.08856474  0.47236711  0.25823378  1
  O  O227  1  0.58145658  0.46902262  0.25384166  1
  O  O228  1  0.15775803  0.49346693  0.75873903  1
  O  O229  1  0.65502159  0.48217729  0.75387472  1
  O  O230  1  0.08287892  0.69847314  0.75681344  1
  O  O231  1  0.58846250  0.70400174  0.75887787  1
  O  O232  1  0.26731691  0.84017776  0.75644936  1
  O  O233  1  0.75907393  0.83505964  0.75852266  1
