# generated using pymatgen
data_PbSeO3
_symmetry_space_group_name_H-M   'P 1'
_cell_length_a   4.54391333
_cell_length_b   5.53663000
_cell_length_c   6.59042084
_cell_angle_alpha   90.00000000
_cell_angle_beta   106.65987994
_cell_angle_gamma   90.00000000
_symmetry_Int_Tables_number   1
_chemical_formula_structural   PbSeO3
_chemical_formula_sum   'Pb2 Se2 O6'
_cell_volume   158.84181497
_cell_formula_units_Z   2
loop_
 _symmetry_equiv_pos_site_id
 _symmetry_equiv_pos_as_xyz
  1  'x, y, z'
loop_
 _atom_site_type_symbol
 _atom_site_label
 _atom_site_symmetry_multiplicity
 _atom_site_fract_x
 _atom_site_fract_y
 _atom_site_fract_z
 _atom_site_occupancy
  Pb  Pb0  1  0.36554492  0.75000000  0.69810359  1
  Pb  Pb1  1  0.63445508  0.25000000  0.30189641  1
  Se  Se2  1  0.91296776  0.25000000  0.84146279  1
  Se  Se3  1  0.08703224  0.75000000  0.15853721  1
  O  O4  1  0.20215854  0.98591491  0.33286551  1
  O  O5  1  0.79784146  0.48591491  0.66713449  1
  O  O6  1  0.79784146  0.01408509  0.66713449  1
  O  O7  1  0.20215854  0.51408509  0.33286551  1
  O  O8  1  0.70114132  0.75000000  0.11764936  1
  O  O9  1  0.29885868  0.25000000  0.88235064  1
