# generated using pymatgen
data_ZnGe(SO4)3
_symmetry_space_group_name_H-M   'P 1'
_cell_length_a   8.52598745
_cell_length_b   8.52598718
_cell_length_c   21.90156560
_cell_angle_alpha   90.00000000
_cell_angle_beta   90.00000000
_cell_angle_gamma   120.00000099
_symmetry_Int_Tables_number   1
_chemical_formula_structural   ZnGe(SO4)3
_chemical_formula_sum   'Zn6 Ge6 S18 O72'
_cell_volume   1378.78056396
_cell_formula_units_Z   6
loop_
 _symmetry_equiv_pos_site_id
 _symmetry_equiv_pos_as_xyz
  1  'x, y, z'
loop_
 _atom_site_type_symbol
 _atom_site_label
 _atom_site_symmetry_multiplicity
 _atom_site_fract_x
 _atom_site_fract_y
 _atom_site_fract_z
 _atom_site_occupancy
  Zn  Zn0  1  0.00000000  -0.00000000  0.35578557  1
  Zn  Zn1  1  0.00000000  -0.00000000  0.85578557  1
  Zn  Zn2  1  0.66666700  0.33333300  0.68911857  1
  Zn  Zn3  1  0.66666700  0.33333300  0.18911857  1
  Zn  Zn4  1  0.33333300  0.66666700  0.02245257  1
  Zn  Zn5  1  0.33333300  0.66666700  0.52245257  1
  Ge  Ge6  1  0.00000000  -0.00000000  0.64875933  1
  Ge  Ge7  1  0.00000000  -0.00000000  0.14875933  1
  Ge  Ge8  1  0.66666700  0.33333300  0.98209233  1
  Ge  Ge9  1  0.66666700  0.33333300  0.48209233  1
  Ge  Ge10  1  0.33333300  0.66666700  0.31542633  1
  Ge  Ge11  1  0.33333300  0.66666700  0.81542633  1
  S  S12  1  0.28659875  0.98889334  0.25124704  1
  S  S13  1  0.70229458  0.71340125  0.25124704  1
  S  S14  1  0.01110666  0.29770542  0.25124704  1
  S  S15  1  0.28659875  0.29770542  0.75124704  1
  S  S16  1  0.01110666  0.71340125  0.75124704  1
  S  S17  1  0.70229458  0.98889334  0.75124704  1
  S  S18  1  0.95326575  0.32222634  0.58458004  1
  S  S19  1  0.36896158  0.04673425  0.58458004  1
  S  S20  1  0.67777366  0.63103842  0.58458004  1
  S  S21  1  0.95326575  0.63103842  0.08458004  1
  S  S22  1  0.67777366  0.04673425  0.08458004  1
  S  S23  1  0.36896158  0.32222634  0.08458004  1
  S  S24  1  0.61993175  0.65556034  0.91791404  1
  S  S25  1  0.03562758  0.38006825  0.91791404  1
  S  S26  1  0.34443966  0.96437242  0.91791404  1
  S  S27  1  0.61993175  0.96437242  0.41791404  1
  S  S28  1  0.34443966  0.38006825  0.41791404  1
  S  S29  1  0.03562758  0.65556034  0.41791404  1
  O  O30  1  0.20543517  0.01844537  0.30466196  1
  O  O31  1  0.81301020  0.79456483  0.30466196  1
  O  O32  1  0.98155463  0.18698980  0.30466196  1
  O  O33  1  0.20543517  0.18698980  0.80466196  1
  O  O34  1  0.98155463  0.79456483  0.80466196  1
  O  O35  1  0.81301020  0.01844537  0.80466196  1
  O  O36  1  0.78170720  0.94751709  0.69411258  1
  O  O37  1  0.16580989  0.21829280  0.69411258  1
  O  O38  1  0.05248291  0.83419011  0.69411258  1
  O  O39  1  0.78170720  0.83419011  0.19411258  1
  O  O40  1  0.05248291  0.21829280  0.19411258  1
  O  O41  1  0.16580989  0.94751709  0.19411258  1
  O  O42  1  0.87210217  0.35177837  0.63799496  1
  O  O43  1  0.47967720  0.12789783  0.63799496  1
  O  O44  1  0.64822163  0.52032280  0.63799496  1
  O  O45  1  0.87210217  0.52032280  0.13799496  1
  O  O46  1  0.64822163  0.12789783  0.13799496  1
  O  O47  1  0.47967720  0.35177837  0.13799496  1
  O  O48  1  0.44837420  0.28085009  0.02744558  1
  O  O49  1  0.83247689  0.55162580  0.02744558  1
  O  O50  1  0.71914991  0.16752311  0.02744558  1
  O  O51  1  0.44837420  0.16752311  0.52744558  1
  O  O52  1  0.71914991  0.55162580  0.52744558  1
  O  O53  1  0.83247689  0.28085009  0.52744558  1
  O  O54  1  0.53876817  0.68511237  0.97132896  1
  O  O55  1  0.14634320  0.46123183  0.97132896  1
  O  O56  1  0.31488763  0.85365680  0.97132896  1
  O  O57  1  0.53876817  0.85365680  0.47132896  1
  O  O58  1  0.31488763  0.46123183  0.47132896  1
  O  O59  1  0.14634320  0.68511237  0.47132896  1
  O  O60  1  0.11504020  0.61418409  0.36077958  1
  O  O61  1  0.49914289  0.88495980  0.36077958  1
  O  O62  1  0.38581591  0.50085711  0.36077958  1
  O  O63  1  0.11504020  0.50085711  0.86077958  1
  O  O64  1  0.38581591  0.88495980  0.86077958  1
  O  O65  1  0.49914289  0.61418409  0.86077958  1
  O  O66  1  0.00893908  0.80835771  0.40808638  1
  O  O67  1  0.79941863  0.99106092  0.40808638  1
  O  O68  1  0.19164229  0.20058137  0.40808638  1
  O  O69  1  0.00893908  0.20058137  0.90808638  1
  O  O70  1  0.19164229  0.99106092  0.90808638  1
  O  O71  1  0.79941863  0.80835771  0.90808638  1
  O  O72  1  0.96228152  0.14934425  0.59037707  1
  O  O73  1  0.18706273  0.03771848  0.59037707  1
  O  O74  1  0.85065575  0.81293727  0.59037707  1
  O  O75  1  0.96228152  0.81293727  0.09037707  1
  O  O76  1  0.85065575  0.03771848  0.09037707  1
  O  O77  1  0.18706273  0.14934425  0.09037707  1
  O  O78  1  0.67560608  0.14169071  0.74141938  1
  O  O79  1  0.46608563  0.32439392  0.74141938  1
  O  O80  1  0.85830929  0.53391437  0.74141938  1
  O  O81  1  0.67560608  0.53391437  0.24141938  1
  O  O82  1  0.85830929  0.32439392  0.24141938  1
  O  O83  1  0.46608563  0.14169071  0.24141938  1
  O  O84  1  0.62894852  0.48267725  0.92371007  1
  O  O85  1  0.85372973  0.37105148  0.92371007  1
  O  O86  1  0.51732275  0.14627027  0.92371007  1
  O  O87  1  0.62894852  0.14627027  0.42371007  1
  O  O88  1  0.51732275  0.37105148  0.42371007  1
  O  O89  1  0.85372973  0.48267725  0.42371007  1
  O  O90  1  0.34227208  0.47502471  0.07475338  1
  O  O91  1  0.13275163  0.65772792  0.07475338  1
  O  O92  1  0.52497529  0.86724837  0.07475338  1
  O  O93  1  0.34227208  0.86724837  0.57475338  1
  O  O94  1  0.52497529  0.65772792  0.57475338  1
  O  O95  1  0.13275163  0.47502471  0.57475338  1
  O  O96  1  0.29561452  0.81601125  0.25704407  1
  O  O97  1  0.52039573  0.70438548  0.25704407  1
  O  O98  1  0.18398875  0.47960427  0.25704407  1
  O  O99  1  0.29561452  0.47960427  0.75704407  1
  O  O100  1  0.18398875  0.70438548  0.75704407  1
  O  O101  1  0.52039573  0.81601125  0.75704407  1
