# generated using pymatgen
data_Na3GaSn3(PO4)6
_symmetry_space_group_name_H-M   'P 1'
_cell_length_a   8.73470795
_cell_length_b   8.72937702
_cell_length_c   22.63691809
_cell_angle_alpha   89.97910803
_cell_angle_beta   90.01534626
_cell_angle_gamma   120.14102264
_symmetry_Int_Tables_number   1
_chemical_formula_structural   Na3GaSn3(PO4)6
_chemical_formula_sum   'Na9 Ga3 Sn9 P18 O72'
_cell_volume   1492.65910834
_cell_formula_units_Z   3
loop_
 _symmetry_equiv_pos_site_id
 _symmetry_equiv_pos_as_xyz
  1  'x, y, z'
loop_
 _atom_site_type_symbol
 _atom_site_label
 _atom_site_symmetry_multiplicity
 _atom_site_fract_x
 _atom_site_fract_y
 _atom_site_fract_z
 _atom_site_occupancy
  Na  Na0  1  0.36675523  0.36305780  0.24824184  1
  Na  Na1  1  0.63641719  0.63277551  0.74874200  1
  Na  Na2  1  0.96953989  0.29919745  0.41512498  1
  Na  Na3  1  0.00051311  0.99464152  0.49898946  1
  Na  Na4  1  0.99995643  0.99996577  0.00118257  1
  Na  Na5  1  0.66714700  0.32797259  0.83292423  1
  Na  Na6  1  0.66698180  0.33336248  0.33023753  1
  Na  Na7  1  0.33302585  0.67216254  0.16537883  1
  Na  Na8  1  0.32831183  0.66733841  0.66561103  1
  Ga  Ga9  1  0.99914859  0.99288054  0.34947352  1
  Ga  Ga10  1  0.66696360  0.32750911  0.68395693  1
  Ga  Ga11  1  0.67238704  0.33269007  0.18400970  1
  Sn  Sn12  1  0.00110466  0.00141833  0.85286437  1
  Sn  Sn13  1  0.00128981  0.00144015  0.64675917  1
  Sn  Sn14  1  0.99831792  0.99814801  0.14725811  1
  Sn  Sn15  1  0.66684316  0.33323014  0.98233474  1
  Sn  Sn16  1  0.66221636  0.33360976  0.48251739  1
  Sn  Sn17  1  0.33310360  0.66684147  0.02089635  1
  Sn  Sn18  1  0.33436051  0.66851871  0.52008300  1
  Sn  Sn19  1  0.33417034  0.67269219  0.31381275  1
  Sn  Sn20  1  0.32888742  0.66722686  0.81554680  1
  P  P21  1  0.29103785  0.00228286  0.25045835  1
  P  P22  1  0.71392136  0.70878520  0.25084487  1
  P  P23  1  0.99209887  0.28671643  0.25132550  1
  P  P24  1  0.29425222  0.29008737  0.74944099  1
  P  P25  1  0.99882241  0.70541429  0.74913196  1
  P  P26  1  0.70954871  0.00698742  0.74954435  1
  P  P27  1  0.95492595  0.33378689  0.58455657  1
  P  P28  1  0.37830302  0.04493788  0.58514591  1
  P  P29  1  0.66637094  0.62172868  0.58545056  1
  P  P30  1  0.95415859  0.62096511  0.08485420  1
  P  P31  1  0.66700174  0.04595965  0.08498543  1
  P  P32  1  0.37861269  0.33309317  0.08524450  1
  P  P33  1  0.62468146  0.66576695  0.91668939  1
  P  P34  1  0.04067705  0.37494373  0.91727616  1
  P  P35  1  0.33414325  0.95914193  0.91716379  1
  P  P36  1  0.62831964  0.95728945  0.41654366  1
  P  P37  1  0.33221921  0.37184071  0.41577980  1
  P  P38  1  0.04218592  0.67364808  0.41654989  1
  O  O39  1  0.20952558  0.03836274  0.30535417  1
  O  O40  1  0.82474408  0.79191518  0.30614311  1
  O  O41  1  0.96822487  0.17875375  0.30796274  1
  O  O42  1  0.21442063  0.17837598  0.80530652  1
  O  O43  1  0.95934822  0.78452764  0.80451430  1
  O  O44  1  0.82128335  0.03521343  0.80531592  1
  O  O45  1  0.78554705  0.95865194  0.69540527  1
  O  O46  1  0.17665067  0.21373056  0.69467808  1
  O  O47  1  0.03577813  0.82332875  0.69451070  1
  O  O48  1  0.78608492  0.82275546  0.19497011  1
  O  O49  1  0.04055653  0.21327925  0.19647764  1
  O  O50  1  0.17702488  0.96478475  0.19468979  1
  O  O51  1  0.87162732  0.36583705  0.63863468  1
  O  O52  1  0.49280218  0.12735122  0.63950036  1
  O  O53  1  0.63507218  0.51028346  0.64124235  1
  O  O54  1  0.87254201  0.50698245  0.13943574  1
  O  O55  1  0.63387331  0.12727069  0.13945541  1
  O  O56  1  0.48973765  0.36490271  0.14116348  1
  O  O57  1  0.45331344  0.29866873  0.02827292  1
  O  O58  1  0.84599489  0.54799792  0.02744887  1
  O  O59  1  0.70209273  0.15383642  0.02753478  1
  O  O60  1  0.45093340  0.15316505  0.52773190  1
  O  O61  1  0.70193723  0.54748820  0.52853916  1
  O  O62  1  0.84888156  0.29931179  0.52601221  1
  O  O63  1  0.54363573  0.70112443  0.97119159  1
  O  O64  1  0.15668909  0.45478775  0.97206171  1
  O  O65  1  0.29800395  0.84335549  0.97199784  1
  O  O66  1  0.54763198  0.84478329  0.47224719  1
  O  O67  1  0.29368009  0.45317768  0.47072052  1
  O  O68  1  0.15461011  0.70192417  0.47218824  1
  O  O69  1  0.11793426  0.62460265  0.36241801  1
  O  O70  1  0.51085182  0.88138994  0.36173203  1
  O  O71  1  0.36809266  0.48702527  0.35981155  1
  O  O72  1  0.11750190  0.48669522  0.86085378  1
  O  O73  1  0.36974162  0.88254686  0.86085262  1
  O  O74  1  0.51531127  0.63221068  0.85905703  1
  O  O75  1  0.02309556  0.83625680  0.40887216  1
  O  O76  1  0.81488756  0.98302226  0.40941772  1
  O  O77  1  0.16274674  0.19035049  0.40904155  1
  O  O78  1  0.02378442  0.19087701  0.91108874  1
  O  O79  1  0.16688927  0.97562512  0.91083431  1
  O  O80  1  0.80913012  0.83306645  0.91061382  1
  O  O81  1  0.97497286  0.16758804  0.58909945  1
  O  O82  1  0.19166384  0.02399855  0.58928153  1
  O  O83  1  0.83241923  0.80880480  0.58948002  1
  O  O84  1  0.97594521  0.80812374  0.08910176  1
  O  O85  1  0.83250702  0.02467844  0.08945464  1
  O  O86  1  0.19117329  0.16749211  0.08949451  1
  O  O87  1  0.68967558  0.16928477  0.74215356  1
  O  O88  1  0.48120554  0.31623523  0.74247735  1
  O  O89  1  0.82924221  0.52357377  0.74226382  1
  O  O90  1  0.68521211  0.52012392  0.24350549  1
  O  O91  1  0.83097605  0.30899967  0.24330025  1
  O  O92  1  0.47466770  0.17068674  0.24329600  1
  O  O93  1  0.64240651  0.49950248  0.92213546  1
  O  O94  1  0.85646893  0.35673523  0.92241123  1
  O  O95  1  0.50034760  0.14391296  0.92241602  1
  O  O96  1  0.64980526  0.14587301  0.42280646  1
  O  O97  1  0.50010264  0.35739091  0.42220568  1
  O  O98  1  0.85955602  0.49800798  0.42297501  1
  O  O99  1  0.35918215  0.49967158  0.07844212  1
  O  O100  1  0.14046394  0.64099678  0.07843077  1
  O  O101  1  0.50052194  0.85908609  0.07842682  1
  O  O102  1  0.35857923  0.85894634  0.57870313  1
  O  O103  1  0.49992511  0.64066595  0.57852777  1
  O  O104  1  0.14146934  0.49984979  0.57813110  1
  O  O105  1  0.30878977  0.83475959  0.25574471  1
  O  O106  1  0.52251251  0.68408376  0.25626652  1
  O  O107  1  0.16804463  0.47223705  0.25662451  1
  O  O108  1  0.31636104  0.47901690  0.75584038  1
  O  O109  1  0.16627277  0.69004899  0.75545024  1
  O  O110  1  0.52662573  0.83133992  0.75598888  1
