# generated using pymatgen
data_AlGeP(SO6)2
_symmetry_space_group_name_H-M   'P 1'
_cell_length_a   8.28282321
_cell_length_b   8.29965231
_cell_length_c   21.54223420
_cell_angle_alpha   89.79102181
_cell_angle_beta   90.00000000
_cell_angle_gamma   119.93294725
_symmetry_Int_Tables_number   1
_chemical_formula_structural   AlGeP(SO6)2
_chemical_formula_sum   'Al6 Ge6 P6 S12 O72'
_cell_volume   1283.36107153
_cell_formula_units_Z   6
loop_
 _symmetry_equiv_pos_site_id
 _symmetry_equiv_pos_as_xyz
  1  'x, y, z'
loop_
 _atom_site_type_symbol
 _atom_site_label
 _atom_site_symmetry_multiplicity
 _atom_site_fract_x
 _atom_site_fract_y
 _atom_site_fract_z
 _atom_site_occupancy
  Al  Al0  1  0.00015413  0.99912734  0.35548957  1
  Al  Al1  1  0.99897321  0.99912734  0.85548957  1
  Al  Al2  1  0.67923280  0.34130996  0.68910300  1
  Al  Al3  1  0.66207816  0.34130996  0.18910300  1
  Al  Al4  1  0.32869937  0.65383507  0.02205446  1
  Al  Al5  1  0.32513469  0.65383507  0.52205446  1
  Ge  Ge6  1  0.00130283  0.00074411  0.64626890  1
  Ge  Ge7  1  0.99944129  0.00074411  0.14626890  1
  Ge  Ge8  1  0.66490536  0.33169970  0.97983318  1
  Ge  Ge9  1  0.66679535  0.33169970  0.47983318  1
  Ge  Ge10  1  0.34413178  0.66134562  0.31299136  1
  Ge  Ge11  1  0.31721284  0.66134562  0.81299136  1
  P  P12  1  0.71649678  0.71329757  0.25115009  1
  P  P13  1  0.99680078  0.71329757  0.75115009  1
  P  P14  1  0.95525656  0.33334639  0.58427527  1
  P  P15  1  0.37809083  0.33334639  0.08427527  1
  P  P16  1  0.04187484  0.37292666  0.91830474  1
  P  P17  1  0.33105083  0.37292666  0.41830474  1
  S  S18  1  0.29116325  0.99952897  0.25125718  1
  S  S19  1  0.99672878  0.28951868  0.25064063  1
  S  S20  1  0.29278990  0.28951868  0.75064063  1
  S  S21  1  0.70836572  0.99952897  0.75125718  1
  S  S22  1  0.37908126  0.04214133  0.58466740  1
  S  S23  1  0.66475065  0.62220089  0.58424005  1
  S  S24  1  0.95745125  0.62220089  0.08424005  1
  S  S25  1  0.66306107  0.04214133  0.08466740  1
  S  S26  1  0.62155864  0.66861872  0.91700370  1
  S  S27  1  0.33203514  0.95420947  0.91812823  1
  S  S28  1  0.62217333  0.95420947  0.41812823  1
  S  S29  1  0.04705908  0.66861872  0.41700370  1
  O  O30  1  0.20774908  0.03524963  0.30561396  1
  O  O31  1  0.83713330  0.80493625  0.30769356  1
  O  O32  1  0.96506465  0.17309446  0.30556379  1
  O  O33  1  0.20802981  0.17309446  0.80556379  1
  O  O34  1  0.96780294  0.80493625  0.80769356  1
  O  O35  1  0.82750055  0.03524963  0.80561396  1
  O  O36  1  0.78467262  0.95849177  0.69409136  1
  O  O37  1  0.17294872  0.21568526  0.69387771  1
  O  O38  1  0.04130375  0.83780188  0.69127827  1
  O  O39  1  0.79649814  0.83780188  0.19127827  1
  O  O40  1  0.04273655  0.21568526  0.19387771  1
  O  O41  1  0.17381915  0.95849177  0.19409136  1
  O  O42  1  0.86401287  0.36402142  0.64022058  1
  O  O43  1  0.49369075  0.12779976  0.63942717  1
  O  O44  1  0.62834039  0.50361919  0.63877974  1
  O  O45  1  0.87527980  0.50361919  0.13877974  1
  O  O46  1  0.63411001  0.12779976  0.13942717  1
  O  O47  1  0.50000955  0.36402142  0.14022058  1
  O  O48  1  0.45982959  0.29039572  0.02458388  1
  O  O49  1  0.83936265  0.54710384  0.02723631  1
  O  O50  1  0.70825005  0.16107888  0.02724980  1
  O  O51  1  0.45282983  0.16107888  0.52724980  1
  O  O52  1  0.70774219  0.54710384  0.52723631  1
  O  O53  1  0.83056712  0.29039572  0.52458388  1
  O  O54  1  0.54011811  0.70358854  0.97188261  1
  O  O55  1  0.16522190  0.46561319  0.97365911  1
  O  O56  1  0.30164796  0.83866108  0.97292273  1
  O  O57  1  0.53701212  0.83866108  0.47292273  1
  O  O58  1  0.30039029  0.46561319  0.47365911  1
  O  O59  1  0.16346944  0.70358854  0.47188261  1
  O  O60  1  0.12404067  0.62846500  0.35970243  1
  O  O61  1  0.50368777  0.88103514  0.36075503  1
  O  O62  1  0.37656796  0.49811300  0.35889020  1
  O  O63  1  0.12154404  0.49811300  0.85889020  1
  O  O64  1  0.37734637  0.88103514  0.86075503  1
  O  O65  1  0.50442333  0.62846500  0.85970243  1
  O  O66  1  0.02706815  0.83238046  0.40839962  1
  O  O67  1  0.80511180  0.97260694  0.40880111  1
  O  O68  1  0.16174695  0.18493800  0.40572801  1
  O  O69  1  0.02319105  0.18493800  0.90572801  1
  O  O70  1  0.16749514  0.97260694  0.90880111  1
  O  O71  1  0.80531231  0.83238046  0.90839962  1
  O  O72  1  0.97499283  0.15739030  0.59285947  1
  O  O73  1  0.19196317  0.02539306  0.59032701  1
  O  O74  1  0.83430748  0.80797240  0.59075538  1
  O  O75  1  0.97366492  0.80797240  0.09075538  1
  O  O76  1  0.83342989  0.02539306  0.09032701  1
  O  O77  1  0.18239747  0.15739030  0.09285947  1
  O  O78  1  0.68772827  0.16207762  0.74184620  1
  O  O79  1  0.47361110  0.30506764  0.74045042  1
  O  O80  1  0.82819298  0.52434832  0.74104141  1
  O  O81  1  0.69615634  0.52434832  0.24104141  1
  O  O82  1  0.83145754  0.30506764  0.24045042  1
  O  O83  1  0.47435035  0.16207762  0.24184620  1
  O  O84  1  0.63995515  0.50006741  0.92374660  1
  O  O85  1  0.84742861  0.35642428  0.92671624  1
  O  O86  1  0.50087143  0.14108065  0.92359780  1
  O  O87  1  0.64021023  0.14108065  0.42359780  1
  O  O88  1  0.50899667  0.35642428  0.42671624  1
  O  O89  1  0.86011326  0.50006741  0.42374660  1
  O  O90  1  0.36051241  0.50385392  0.07405345  1
  O  O91  1  0.14157009  0.64424992  0.07499567  1
  O  O92  1  0.49882536  0.86088019  0.07430689  1
  O  O93  1  0.36205383  0.86088019  0.57430689  1
  O  O94  1  0.50267883  0.64424992  0.57499567  1
  O  O95  1  0.14334051  0.50385392  0.57405345  1
  O  O96  1  0.30587023  0.82922202  0.25891358  1
  O  O97  1  0.52136522  0.69629404  0.25718095  1
  O  O98  1  0.16434762  0.47714834  0.25744418  1
  O  O99  1  0.31279973  0.47714834  0.75744418  1
  O  O100  1  0.17492782  0.69629404  0.75718095  1
  O  O101  1  0.52335079  0.82922202  0.75891358  1
