# generated using pymatgen
data_Na6Hf3ZnSi4(SO12)2
_symmetry_space_group_name_H-M   'P 1'
_cell_length_a   9.15732227
_cell_length_b   9.13687459
_cell_length_c   22.61622849
_cell_angle_alpha   89.70685189
_cell_angle_beta   90.30711775
_cell_angle_gamma   119.93698848
_symmetry_Int_Tables_number   1
_chemical_formula_structural   Na6Hf3ZnSi4(SO12)2
_chemical_formula_sum   'Na18 Hf9 Zn3 Si12 S6 O72'
_cell_volume   1639.77559408
_cell_formula_units_Z   3
loop_
 _symmetry_equiv_pos_site_id
 _symmetry_equiv_pos_as_xyz
  1  'x, y, z'
loop_
 _atom_site_type_symbol
 _atom_site_label
 _atom_site_symmetry_multiplicity
 _atom_site_fract_x
 _atom_site_fract_y
 _atom_site_fract_z
 _atom_site_occupancy
  Na  Na0  1  0.98783043  0.35240961  0.75369406  1
  Na  Na1  1  0.39607907  0.02345128  0.74857807  1
  Na  Na2  1  0.32960911  0.33513899  0.58583279  1
  Na  Na3  1  0.02840877  0.70382905  0.57201066  1
  Na  Na4  1  0.65152470  0.96381451  0.59223250  1
  Na  Na5  1  0.32396850  0.98391369  0.08467157  1
  Na  Na6  1  0.65518791  0.67484907  0.08954471  1
  Na  Na7  1  0.02016358  0.33880513  0.08596107  1
  Na  Na8  1  0.32752461  0.29302541  0.92592829  1
  Na  Na9  1  0.96473322  0.28802021  0.40602451  1
  Na  Na10  1  0.31886120  0.02976244  0.40981424  1
  Na  Na11  1  0.71493680  0.68221163  0.40991410  1
  Na  Na12  1  0.00091356  0.99186177  0.48724312  1
  Na  Na13  1  0.00001996  0.99327569  0.99895575  1
  Na  Na14  1  0.66402060  0.31700569  0.83032461  1
  Na  Na15  1  0.66880865  0.33451716  0.31757528  1
  Na  Na16  1  0.33578368  0.66530742  0.16580977  1
  Na  Na17  1  0.38090639  0.67534465  0.67005888  1
  Hf  Hf18  1  0.00163287  0.01425720  0.85385938  1
  Hf  Hf19  1  0.99692006  0.00088650  0.64807832  1
  Hf  Hf20  1  0.00251784  0.00009514  0.14817249  1
  Hf  Hf21  1  0.67267596  0.32321372  0.98206131  1
  Hf  Hf22  1  0.65661935  0.33572729  0.47786765  1
  Hf  Hf23  1  0.32300933  0.66904377  0.01849006  1
  Hf  Hf24  1  0.34301982  0.67183193  0.51607704  1
  Hf  Hf25  1  0.33335176  0.66909209  0.31595791  1
  Hf  Hf26  1  0.33651546  0.67418269  0.81340023  1
  Zn  Zn27  1  0.00054681  0.99866187  0.35519791  1
  Zn  Zn28  1  0.62169211  0.31480438  0.68551349  1
  Zn  Zn29  1  0.66626305  0.32896152  0.16329392  1
  Si  Si30  1  0.29619851  0.30227978  0.75026101  1
  Si  Si31  1  0.70319372  0.00313209  0.74765973  1
  Si  Si32  1  0.36864066  0.03035006  0.58573115  1
  Si  Si33  1  0.66780014  0.62493761  0.58486420  1
  Si  Si34  1  0.95505237  0.62132419  0.08571323  1
  Si  Si35  1  0.66263288  0.03388290  0.08733972  1
  Si  Si36  1  0.37662226  0.33673332  0.08324735  1
  Si  Si37  1  0.03425832  0.37751564  0.91443307  1
  Si  Si38  1  0.33381730  0.96814481  0.91540999  1
  Si  Si39  1  0.62961690  0.96445191  0.41573783  1
  Si  Si40  1  0.33074263  0.37311745  0.41677012  1
  Si  Si41  1  0.03831967  0.66159640  0.41710874  1
  S  S42  1  0.29574588  0.99814035  0.25347007  1
  S  S43  1  0.70271239  0.70545788  0.25304650  1
  S  S44  1  0.00330678  0.29796182  0.25294567  1
  S  S45  1  0.00295944  0.71126362  0.75121509  1
  S  S46  1  0.96235778  0.33345243  0.58475043  1
  S  S47  1  0.62615754  0.66714196  0.91725322  1
  O  O48  1  0.20739242  0.00118214  0.30759693  1
  O  O49  1  0.79513023  0.79331629  0.30737287  1
  O  O50  1  0.99941997  0.20528529  0.30738363  1
  O  O51  1  0.18897967  0.18306538  0.80707821  1
  O  O52  1  0.98901926  0.79965355  0.80307440  1
  O  O53  1  0.82221328  0.00698952  0.80264905  1
  O  O54  1  0.79008773  0.98061710  0.68648769  1
  O  O55  1  0.17872171  0.20297651  0.69103010  1
  O  O56  1  0.01949216  0.81284618  0.69607714  1
  O  O57  1  0.79702560  0.81011807  0.19921871  1
  O  O58  1  0.01379732  0.20391226  0.19931209  1
  O  O59  1  0.19179639  0.98839106  0.19941626  1
  O  O60  1  0.88979506  0.35587368  0.63879859  1
  O  O61  1  0.48443340  0.09489665  0.64439468  1
  O  O62  1  0.63436600  0.50112826  0.63941390  1
  O  O63  1  0.89358369  0.49618420  0.14172518  1
  O  O64  1  0.59823247  0.09895762  0.14172913  1
  O  O65  1  0.50410064  0.39367660  0.13857250  1
  O  O66  1  0.45316305  0.29284662  0.02408885  1
  O  O67  1  0.82558713  0.53725257  0.02938917  1
  O  O68  1  0.71092342  0.16493059  0.03051487  1
  O  O69  1  0.46451491  0.15626967  0.52858068  1
  O  O70  1  0.70002585  0.54499347  0.52382759  1
  O  O71  1  0.85686905  0.31302113  0.53153212  1
  O  O72  1  0.55080523  0.68906251  0.97183080  1
  O  O73  1  0.15727802  0.46689476  0.97165934  1
  O  O74  1  0.32574426  0.86055773  0.97461927  1
  O  O75  1  0.54237850  0.84925043  0.47565123  1
  O  O76  1  0.30778693  0.45801063  0.47742563  1
  O  O77  1  0.15071802  0.68558773  0.47713354  1
  O  O78  1  0.13508530  0.63179793  0.36145343  1
  O  O79  1  0.49715599  0.87009812  0.36097842  1
  O  O80  1  0.36669120  0.50456543  0.36184000  1
  O  O81  1  0.13468845  0.48688945  0.85528708  1
  O  O82  1  0.35146988  0.87176750  0.85677741  1
  O  O83  1  0.51766055  0.65275326  0.86518257  1
  O  O84  1  0.01714159  0.82681092  0.41174187  1
  O  O85  1  0.81350066  0.98217885  0.41058785  1
  O  O86  1  0.16909629  0.18600865  0.41116627  1
  O  O87  1  0.01768142  0.18783733  0.91219559  1
  O  O88  1  0.16032539  0.98166509  0.91288181  1
  O  O89  1  0.79709366  0.81386528  0.91082597  1
  O  O90  1  0.97648865  0.17484919  0.58578658  1
  O  O91  1  0.18159789  0.01897686  0.58927602  1
  O  O92  1  0.83616821  0.81752566  0.58873983  1
  O  O93  1  0.97704195  0.81240459  0.09478461  1
  O  O94  1  0.83624190  0.02169910  0.09629869  1
  O  O95  1  0.18712986  0.16513684  0.09383101  1
  O  O96  1  0.69954137  0.17938379  0.74785889  1
  O  O97  1  0.47441804  0.30913381  0.75263111  1
  O  O98  1  0.86378414  0.53920504  0.74733215  1
  O  O99  1  0.68288275  0.53730175  0.24985603  1
  O  O100  1  0.85446948  0.31676467  0.24976816  1
  O  O101  1  0.46331291  0.14655221  0.25049994  1
  O  O102  1  0.63063184  0.50757346  0.91901122  1
  O  O103  1  0.85046140  0.36243129  0.91951764  1
  O  O104  1  0.49641372  0.16160676  0.91880130  1
  O  O105  1  0.64434289  0.14943394  0.42309977  1
  O  O106  1  0.50483884  0.36166309  0.42040444  1
  O  O107  1  0.85534823  0.48753203  0.42235747  1
  O  O108  1  0.33963167  0.49360142  0.07309859  1
  O  O109  1  0.15020077  0.66131263  0.07427515  1
  O  O110  1  0.51196559  0.84001209  0.07416922  1
  O  O111  1  0.33277201  0.83549135  0.57738915  1
  O  O112  1  0.49897941  0.64844573  0.57991010  1
  O  O113  1  0.13619090  0.48011406  0.57807590  1
  O  O114  1  0.30336756  0.83660331  0.25130615  1
  O  O115  1  0.53370463  0.69797409  0.25116637  1
  O  O116  1  0.16372884  0.46783955  0.25126913  1
  O  O117  1  0.29938003  0.48455695  0.75272581  1
  O  O118  1  0.16764515  0.70988909  0.75282066  1
  O  O119  1  0.51080133  0.83947997  0.75300164  1
