# generated using pymatgen
data_Tb5Mg(MoO6)2
_symmetry_space_group_name_H-M   'P 1'
_cell_length_a   6.10545245
_cell_length_b   7.17361669
_cell_length_c   7.64687517
_cell_angle_alpha   106.76900162
_cell_angle_beta   86.70981763
_cell_angle_gamma   119.17525416
_symmetry_Int_Tables_number   1
_chemical_formula_structural   Tb5Mg(MoO6)2
_chemical_formula_sum   'Tb5 Mg1 Mo2 O12'
_cell_volume   278.60176273
_cell_formula_units_Z   1
loop_
 _symmetry_equiv_pos_site_id
 _symmetry_equiv_pos_as_xyz
  1  'x, y, z'
loop_
 _atom_site_type_symbol
 _atom_site_label
 _atom_site_symmetry_multiplicity
 _atom_site_fract_x
 _atom_site_fract_y
 _atom_site_fract_z
 _atom_site_occupancy
  Tb  Tb0  1  0.31454000  0.60275900  0.66514800  1
  Tb  Tb1  1  0.68448300  0.36543300  0.35941600  1
  Tb  Tb2  1  0.32127000  0.61686400  0.18000000  1
  Tb  Tb3  1  0.65525300  0.34824500  0.79259900  1
  Tb  Tb4  1  0.97324400  0.00545900  0.51391500  1
  Mg  Mg5  1  0.85824800  0.66593700  0.14036000  1
  Mo  Mo6  1  0.76987200  0.00686100  0.99659900  1
  Mo  Mo7  1  0.26182500  0.00882500  0.00165800  1
  O  O8  1  0.93171600  0.33324200  0.11095400  1
  O  O9  1  0.50860200  0.37719200  0.09729000  1
  O  O10  1  0.05668600  0.64737100  0.92345100  1
  O  O11  1  0.56043300  0.65785400  0.91567800  1
  O  O12  1  0.03710500  0.70450400  0.37600400  1
  O  O13  1  0.56349000  0.69436800  0.43536200  1
  O  O14  1  0.90597800  0.31715000  0.56607000  1
  O  O15  1  0.39438600  0.30376500  0.57427500  1
  O  O16  1  0.98337000  0.98961500  0.19698800  1
  O  O17  1  0.01952300  0.01486400  0.81132300  1
  O  O18  1  0.50088600  0.99090000  0.18530400  1
  O  O19  1  0.52200700  0.99693800  0.80046100  1
