# generated using pymatgen
data_K2Pb2O3
_symmetry_space_group_name_H-M   'P 1'
_cell_length_a   7.30952155
_cell_length_b   7.30952099
_cell_length_c   7.30952142
_cell_angle_alpha   109.47122181
_cell_angle_beta   109.47122028
_cell_angle_gamma   109.47121461
_symmetry_Int_Tables_number   1
_chemical_formula_structural   K2Pb2O3
_chemical_formula_sum   'K4 Pb4 O6'
_cell_volume   300.63874425
_cell_formula_units_Z   2
loop_
 _symmetry_equiv_pos_site_id
 _symmetry_equiv_pos_as_xyz
  1  'x, y, z'
loop_
 _atom_site_type_symbol
 _atom_site_label
 _atom_site_symmetry_multiplicity
 _atom_site_fract_x
 _atom_site_fract_y
 _atom_site_fract_z
 _atom_site_occupancy
  K  K0  1  0.45055059  0.50000000  0.00000000  1
  K  K1  1  0.04944941  0.04944941  0.04944941  1
  K  K2  1  0.00000000  0.45055059  0.50000000  1
  K  K3  1  0.50000000  -0.00000000  0.45055059  1
  Pb  Pb4  1  0.50000000  -0.00000000  0.98469350  1
  Pb  Pb5  1  -0.00000000  0.98469350  0.50000000  1
  Pb  Pb6  1  0.51530650  0.51530650  0.51530650  1
  Pb  Pb7  1  0.98469350  0.50000000  -0.00000000  1
  O  O8  1  0.75000000  0.96214400  0.21214400  1
  O  O9  1  0.25000000  0.53785600  0.28785600  1
  O  O10  1  0.96214400  0.21214400  0.75000000  1
  O  O11  1  0.21214400  0.75000000  0.96214400  1
  O  O12  1  0.28785600  0.25000000  0.53785600  1
  O  O13  1  0.53785600  0.28785600  0.25000000  1
