# generated using pymatgen
data_Na5MgBiO5
_symmetry_space_group_name_H-M   'P 1'
_cell_length_a   5.59205570
_cell_length_b   6.37895242
_cell_length_c   6.78537199
_cell_angle_alpha   78.50561768
_cell_angle_beta   93.84516900
_cell_angle_gamma   59.12507008
_symmetry_Int_Tables_number   1
_chemical_formula_structural   Na5MgBiO5
_chemical_formula_sum   'Na5 Mg1 Bi1 O5'
_cell_volume   199.40958894
_cell_formula_units_Z   1
loop_
 _symmetry_equiv_pos_site_id
 _symmetry_equiv_pos_as_xyz
  1  'x, y, z'
loop_
 _atom_site_type_symbol
 _atom_site_label
 _atom_site_symmetry_multiplicity
 _atom_site_fract_x
 _atom_site_fract_y
 _atom_site_fract_z
 _atom_site_occupancy
  Na  Na0  1  0.52404172  0.71522723  0.90265123  1
  Na  Na1  1  0.78296606  0.60251783  0.36204779  1
  Na  Na2  1  0.39747086  0.44994299  0.64278059  1
  Na  Na3  1  0.42097492  0.37814459  0.19821406  1
  Na  Na4  1  0.01731585  0.04069679  0.48526467  1
  Mg  Mg5  1  0.07996525  0.33751284  0.91899681  1
  Bi  Bi6  1  0.91458914  0.96375959  0.02571751  1
  O  O7  1  0.12855581  0.63436860  0.87278331  1
  O  O8  1  0.48851972  0.03636896  0.03221582  1
  O  O9  1  0.12516932  0.70855217  0.33237998  1
  O  O10  1  0.86650967  0.33080807  0.67931376  1
  O  O11  1  0.85799068  0.32661033  0.14444649  1
