# generated using pymatgen
data_SrFeF5
_symmetry_space_group_name_H-M   'P 1'
_cell_length_a   7.25782243
_cell_length_b   7.03332501
_cell_length_c   14.67240953
_cell_angle_alpha   84.85629800
_cell_angle_beta   90.00000000
_cell_angle_gamma   90.00000000
_symmetry_Int_Tables_number   1
_chemical_formula_structural   SrFeF5
_chemical_formula_sum   'Sr8 Fe8 F40'
_cell_volume   745.96082181
_cell_formula_units_Z   8
loop_
 _symmetry_equiv_pos_site_id
 _symmetry_equiv_pos_as_xyz
  1  'x, y, z'
loop_
 _atom_site_type_symbol
 _atom_site_label
 _atom_site_symmetry_multiplicity
 _atom_site_fract_x
 _atom_site_fract_y
 _atom_site_fract_z
 _atom_site_occupancy
  Sr  Sr0  1  0.15226750  0.99932214  0.63853509  1
  Sr  Sr1  1  0.65226750  0.00067786  0.86146491  1
  Sr  Sr2  1  0.84773250  0.00067786  0.36146491  1
  Sr  Sr3  1  0.34773250  0.99932214  0.13853509  1
  Sr  Sr4  1  0.65706056  0.31104163  0.58715408  1
  Sr  Sr5  1  0.15706056  0.68895837  0.91284592  1
  Sr  Sr6  1  0.34293944  0.68895837  0.41284592  1
  Sr  Sr7  1  0.84293944  0.31104163  0.08715408  1
  Fe  Fe8  1  0.18274425  0.18879676  0.87519539  1
  Fe  Fe9  1  0.68274425  0.81120324  0.62480461  1
  Fe  Fe10  1  0.81725575  0.81120324  0.12480461  1
  Fe  Fe11  1  0.31725575  0.18879676  0.37519539  1
  Fe  Fe12  1  0.11953564  0.49287553  0.66128981  1
  Fe  Fe13  1  0.61953564  0.50712447  0.83871019  1
  Fe  Fe14  1  0.88046436  0.50712447  0.33871019  1
  Fe  Fe15  1  0.38046436  0.49287553  0.16128981  1
  F  F16  1  0.32458532  0.04076761  0.96576310  1
  F  F17  1  0.82458532  0.95923239  0.53423690  1
  F  F18  1  0.67541468  0.95923239  0.03423690  1
  F  F19  1  0.17541468  0.04076761  0.46576310  1
  F  F20  1  0.07709256  0.34728726  0.96028423  1
  F  F21  1  0.57709256  0.65271274  0.53971577  1
  F  F22  1  0.92290744  0.65271274  0.03971577  1
  F  F23  1  0.42290744  0.34728726  0.46028423  1
  F  F24  1  0.36205493  0.39632410  0.85363766  1
  F  F25  1  0.86205493  0.60367590  0.64636234  1
  F  F26  1  0.63794507  0.60367590  0.14636234  1
  F  F27  1  0.13794507  0.39632410  0.35363766  1
  F  F28  1  0.31091764  0.02941641  0.79335776  1
  F  F29  1  0.81091764  0.97058359  0.70664224  1
  F  F30  1  0.68908236  0.97058359  0.20664224  1
  F  F31  1  0.18908236  0.02941641  0.29335776  1
  F  F32  1  0.50072726  0.30381921  0.09387606  1
  F  F33  1  0.00072726  0.69618079  0.40612394  1
  F  F34  1  0.49927274  0.69618079  0.90612394  1
  F  F35  1  0.99927274  0.30381921  0.59387606  1
  F  F36  1  0.30371632  0.68249241  0.06823515  1
  F  F37  1  0.80371632  0.31750759  0.43176485  1
  F  F38  1  0.69628368  0.31750759  0.93176485  1
  F  F39  1  0.19628368  0.68249241  0.56823515  1
  F  F40  1  0.34045643  0.68731222  0.24269944  1
  F  F41  1  0.84045643  0.31268778  0.25730056  1
  F  F42  1  0.65954357  0.31268778  0.75730056  1
  F  F43  1  0.15954357  0.68731222  0.74269944  1
  F  F44  1  0.44996626  0.31450300  0.27033962  1
  F  F45  1  0.94996626  0.68549700  0.22966038  1
  F  F46  1  0.55003374  0.68549700  0.72966038  1
  F  F47  1  0.05003374  0.31450300  0.77033962  1
  F  F48  1  0.16751506  0.34359984  0.15095224  1
  F  F49  1  0.66751506  0.65640016  0.34904776  1
  F  F50  1  0.83248494  0.65640016  0.84904776  1
  F  F51  1  0.33248494  0.34359984  0.65095224  1
  F  F52  1  0.51101494  0.00277149  0.39125100  1
  F  F53  1  0.01101494  -0.00277149  0.10874900  1
  F  F54  1  0.48898506  -0.00277149  0.60874900  1
  F  F55  1  0.98898506  0.00277149  0.89125100  1
