# generated using pymatgen
data_TcOF4
_symmetry_space_group_name_H-M   'P 1'
_cell_length_a   8.90390064
_cell_length_b   8.90420719
_cell_length_c   7.94708220
_cell_angle_alpha   90.00030813
_cell_angle_beta   89.99967844
_cell_angle_gamma   120.00116376
_symmetry_Int_Tables_number   1
_chemical_formula_structural   TcOF4
_chemical_formula_sum   'Tc6 O6 F24'
_cell_volume   545.64327311
_cell_formula_units_Z   6
loop_
 _symmetry_equiv_pos_site_id
 _symmetry_equiv_pos_as_xyz
  1  'x, y, z'
loop_
 _atom_site_type_symbol
 _atom_site_label
 _atom_site_symmetry_multiplicity
 _atom_site_fract_x
 _atom_site_fract_y
 _atom_site_fract_z
 _atom_site_occupancy
  Tc  Tc0  1  0.94044815  0.60284170  0.74999988  1
  Tc  Tc1  1  0.33765092  0.94050127  0.24999923  1
  Tc  Tc2  1  0.60288382  0.66240637  0.24999844  1
  Tc  Tc3  1  0.39710029  0.33756936  0.75000313  1
  Tc  Tc4  1  0.66239914  0.05952156  0.75000032  1
  Tc  Tc5  1  0.05949835  0.39716584  0.24999752  1
  O  O6  1  0.85340085  0.32413324  0.24999629  1
  O  O7  1  0.14655824  0.67591027  0.74999344  1
  O  O8  1  0.47073598  0.14660320  0.24999840  1
  O  O9  1  0.67589672  0.52932355  0.24999818  1
  O  O10  1  0.32405419  0.47061907  0.75000242  1
  O  O11  1  0.52933838  0.85341392  0.75000033  1
  F  F12  1  0.11409995  0.42061710  0.47710068  1
  F  F13  1  0.88587532  0.57939530  0.97711307  1
  F  F14  1  0.30649804  0.88592151  0.47710788  1
  F  F15  1  0.57945958  0.69355336  0.47711084  1
  F  F16  1  0.42053040  0.30641839  0.97711020  1
  F  F17  1  0.69354450  0.11408605  0.97711491  1
  F  F18  1  0.07938143  0.20270106  0.25000622  1
  F  F19  1  0.87675983  0.07942095  0.74999449  1
  F  F20  1  0.20263429  0.12321257  0.75000205  1
  F  F21  1  0.79738060  0.87674098  0.24999930  1
  F  F22  1  0.12330499  0.92063741  0.25000476  1
  F  F23  1  0.92055408  0.79730040  0.75000811  1
  F  F24  1  0.35785692  0.50744055  0.24999915  1
  F  F25  1  0.85042540  0.35782908  0.74999905  1
  F  F26  1  0.50740622  0.14954379  0.75000699  1
  F  F27  1  0.49261958  0.85045052  0.24999726  1
  F  F28  1  0.14957231  0.64218228  0.24999171  1
  F  F29  1  0.64212694  0.49255252  0.75000432  1
  F  F30  1  0.11410466  0.42060565  0.02289482  1
  F  F31  1  0.69353968  0.11408879  0.52288600  1
  F  F32  1  0.42053250  0.30641921  0.52289536  1
  F  F33  1  0.57946211  0.69355350  0.02288654  1
  F  F34  1  0.30649721  0.88592258  0.02289021  1
  F  F35  1  0.88586844  0.57939709  0.52288850  1
