# generated using pymatgen
data_SrSe2O5
_symmetry_space_group_name_H-M   'P 1'
_cell_length_a   6.92807693
_cell_length_b   6.97952320
_cell_length_c   10.89985837
_cell_angle_alpha   85.08257779
_cell_angle_beta   81.37721618
_cell_angle_gamma   79.62655453
_symmetry_Int_Tables_number   1
_chemical_formula_structural   SrSe2O5
_chemical_formula_sum   'Sr4 Se8 O20'
_cell_volume   511.64899310
_cell_formula_units_Z   4
loop_
 _symmetry_equiv_pos_site_id
 _symmetry_equiv_pos_as_xyz
  1  'x, y, z'
loop_
 _atom_site_type_symbol
 _atom_site_label
 _atom_site_symmetry_multiplicity
 _atom_site_fract_x
 _atom_site_fract_y
 _atom_site_fract_z
 _atom_site_occupancy
  Sr  Sr0  1  0.19491666  0.35913945  0.89220559  1
  Sr  Sr1  1  0.80508334  0.64086055  0.10779441  1
  Sr  Sr2  1  0.68454462  0.60893460  0.75716575  1
  Sr  Sr3  1  0.31545538  0.39106540  0.24283425  1
  Se  Se4  1  0.58437668  0.16620179  0.61969946  1
  Se  Se5  1  0.41562332  0.83379821  0.38030054  1
  Se  Se6  1  0.12646997  0.26907384  0.56663964  1
  Se  Se7  1  0.87353003  0.73092616  0.43336036  1
  Se  Se8  1  0.11796476  0.83787349  0.78555160  1
  Se  Se9  1  0.88203524  0.16212651  0.21444840  1
  Se  Se10  1  0.30074192  0.84052441  0.04176382  1
  Se  Se11  1  0.69925808  0.15947559  0.95823618  1
  O  O12  1  0.70190283  0.94781101  0.66248494  1
  O  O13  1  0.29809717  0.05218899  0.33751506  1
  O  O14  1  0.53968399  0.28906642  0.75117786  1
  O  O15  1  0.46031601  0.71093358  0.24882214  1
  O  O16  1  0.03105329  0.37030839  0.70122461  1
  O  O17  1  0.96894671  0.62969161  0.29877539  1
  O  O18  1  0.24110286  0.43324495  0.47954449  1
  O  O19  1  0.75889714  0.56675505  0.52045551  1
  O  O20  1  0.33903848  0.09800929  0.62262414  1
  O  O21  1  0.66096152  0.90199071  0.37737586  1
  O  O22  1  0.31578893  0.66369092  0.76508735  1
  O  O23  1  0.68421107  0.33630908  0.23491265  1
  O  O24  1  0.81612097  0.02589253  0.09516215  1
  O  O25  1  0.18387903  0.97410747  0.90483785  1
  O  O26  1  0.46748862  0.22306478  0.02749527  1
  O  O27  1  0.53251138  0.77693522  0.97250473  1
  O  O28  1  0.79304252  0.36766157  0.94611592  1
  O  O29  1  0.20695748  0.63233843  0.05388408  1
  O  O30  1  0.05049088  0.28617356  0.13085407  1
  O  O31  1  0.94950912  0.71382644  0.86914593  1
