# generated using pymatgen
data_TlHg5Cl11
_symmetry_space_group_name_H-M   'P 1'
_cell_length_a   6.53424174
_cell_length_b   9.25525259
_cell_length_c   9.25525299
_cell_angle_alpha   101.30558995
_cell_angle_beta   107.36702953
_cell_angle_gamma   107.36703045
_symmetry_Int_Tables_number   1
_chemical_formula_structural   TlHg5Cl11
_chemical_formula_sum   'Tl1 Hg5 Cl11'
_cell_volume   484.22824871
_cell_formula_units_Z   1
loop_
 _symmetry_equiv_pos_site_id
 _symmetry_equiv_pos_as_xyz
  1  'x, y, z'
loop_
 _atom_site_type_symbol
 _atom_site_label
 _atom_site_symmetry_multiplicity
 _atom_site_fract_x
 _atom_site_fract_y
 _atom_site_fract_z
 _atom_site_occupancy
  Tl  Tl0  1  -0.00000000  0.50000000  0.50000000  1
  Hg  Hg1  1  -0.00000000  -0.00000000  -0.00000000  1
  Hg  Hg2  1  0.31520480  0.48169480  0.14728262  1
  Hg  Hg3  1  0.68479520  0.85271738  0.51830520  1
  Hg  Hg4  1  0.68479520  0.51830520  0.85271738  1
  Hg  Hg5  1  0.31520480  0.14728262  0.48169480  1
  Cl  Cl6  1  0.60857156  0.84967732  0.84967732  1
  Cl  Cl7  1  0.39142844  0.15032268  0.15032268  1
  Cl  Cl8  1  0.29773656  0.36135590  0.79594276  1
  Cl  Cl9  1  0.70226344  0.20405724  0.63864410  1
  Cl  Cl10  1  0.70226344  0.63864410  0.20405724  1
  Cl  Cl11  1  0.29773656  0.79594276  0.36135590  1
  Cl  Cl12  1  0.92525424  0.33048943  0.08308197  1
  Cl  Cl13  1  0.07474576  0.91691803  0.66951057  1
  Cl  Cl14  1  0.07474576  0.66951057  0.91691803  1
  Cl  Cl15  1  0.92525424  0.08308197  0.33048943  1
  Cl  Cl16  1  0.50000000  0.50000000  0.50000000  1
