# generated using pymatgen
data_Na3ZrScSi2SO12
_symmetry_space_group_name_H-M   'P 1'
_cell_length_a   9.17127691
_cell_length_b   9.17127659
_cell_length_c   22.88575543
_cell_angle_alpha   89.83043536
_cell_angle_beta   90.16956464
_cell_angle_gamma   119.94864023
_symmetry_Int_Tables_number   1
_chemical_formula_structural   Na3ZrScSi2SO12
_chemical_formula_sum   'Na18 Zr6 Sc6 Si12 S6 O72'
_cell_volume   1667.92867441
_cell_formula_units_Z   6
loop_
 _symmetry_equiv_pos_site_id
 _symmetry_equiv_pos_as_xyz
  1  'x, y, z'
loop_
 _atom_site_type_symbol
 _atom_site_label
 _atom_site_symmetry_multiplicity
 _atom_site_fract_x
 _atom_site_fract_y
 _atom_site_fract_z
 _atom_site_occupancy
  Na  Na0  1  0.62815019  0.99982892  0.24354937  1
  Na  Na1  1  0.99716069  0.64507709  0.24539139  1
  Na  Na2  1  0.00017108  0.37184981  0.74354937  1
  Na  Na3  1  0.35492291  0.00283931  0.74539139  1
  Na  Na4  1  0.29481719  0.33316192  0.57688237  1
  Na  Na5  1  0.66382769  0.97841009  0.57872439  1
  Na  Na6  1  0.66683808  0.70518281  0.07688237  1
  Na  Na7  1  0.02158991  0.33617231  0.07872439  1
  Na  Na8  1  0.96148319  0.66649592  0.91021637  1
  Na  Na9  1  0.33049369  0.31174409  0.91205839  1
  Na  Na10  1  0.33350408  0.03851681  0.41021637  1
  Na  Na11  1  0.68825591  0.66950631  0.41205839  1
  Na  Na12  1  0.00469858  0.02645626  0.49486908  1
  Na  Na13  1  0.97354374  0.99530142  0.99486908  1
  Na  Na14  1  0.67136558  0.35978926  0.82820208  1
  Na  Na15  1  0.64021074  0.32863442  0.32820208  1
  Na  Na16  1  0.33803158  0.69312326  0.16153608  1
  Na  Na17  1  0.30687674  0.66196842  0.66153608  1
  Zr  Zr18  1  0.01828317  0.00401364  0.64755943  1
  Zr  Zr19  1  0.99598636  0.98171683  0.14755943  1
  Zr  Zr20  1  0.68495017  0.33734664  0.98089243  1
  Zr  Zr21  1  0.66265336  0.31504983  0.48089243  1
  Zr  Zr22  1  0.35161617  0.67068064  0.31422643  1
  Zr  Zr23  1  0.32931936  0.64838383  0.81422643  1
  Sc  Sc24  1  0.00554549  0.00652923  0.35167305  1
  Sc  Sc25  1  0.99347077  0.99445451  0.85167305  1
  Sc  Sc26  1  0.67221249  0.33986223  0.68500605  1
  Sc  Sc27  1  0.66013777  0.32778751  0.18500605  1
  Sc  Sc28  1  0.33887849  0.67319623  0.01834005  1
  Sc  Sc29  1  0.32680377  0.66112151  0.51834005  1
  Si  Si30  1  0.29704621  0.00179722  0.25370388  1
  Si  Si31  1  0.70855779  0.70125234  0.25207124  1
  Si  Si32  1  0.29874766  0.29144221  0.75207124  1
  Si  Si33  1  0.99820278  0.70295379  0.75370388  1
  Si  Si34  1  0.96371321  0.33513022  0.58703688  1
  Si  Si35  1  0.37522479  0.03458534  0.58540424  1
  Si  Si36  1  0.96541466  0.62477521  0.08540424  1
  Si  Si37  1  0.66486978  0.03628679  0.08703688  1
  Si  Si38  1  0.63037921  0.66846422  0.92037088  1
  Si  Si39  1  0.04189079  0.36791934  0.91873824  1
  Si  Si40  1  0.63208066  0.95810921  0.41873824  1
  Si  Si41  1  0.33153578  0.36962079  0.42037088  1
  S  S42  1  0.00101874  0.29410834  0.24928158  1
  S  S43  1  0.70589166  0.99898126  0.74928158  1
  S  S44  1  0.66768574  0.62744134  0.58261458  1
  S  S45  1  0.37255866  0.33231426  0.08261458  1
  S  S46  1  0.33435174  0.96077534  0.91594858  1
  S  S47  1  0.03922466  0.66564826  0.41594858  1
  O  O48  1  0.20925712  0.02115158  0.31261577  1
  O  O49  1  0.82360757  0.79552401  0.30911958  1
  O  O50  1  0.97991691  0.18696089  0.30017415  1
  O  O51  1  0.20447599  0.17639243  0.80911958  1
  O  O52  1  0.97884842  0.79074288  0.81261577  1
  O  O53  1  0.81303911  0.02008309  0.80017415  1
  O  O54  1  0.77879575  0.97385815  0.69489537  1
  O  O55  1  0.17673866  0.20645076  0.69356487  1
  O  O56  1  0.02180229  0.82689786  0.69753190  1
  O  O57  1  0.79354924  0.82326134  0.19356487  1
  O  O58  1  0.02614185  0.22120425  0.19489537  1
  O  O59  1  0.17310214  0.97819771  0.19753190  1
  O  O60  1  0.87592412  0.35448458  0.64594877  1
  O  O61  1  0.49027457  0.12885701  0.64245258  1
  O  O62  1  0.64658391  0.52029389  0.63350715  1
  O  O63  1  0.87114299  0.50972543  0.14245258  1
  O  O64  1  0.64551542  0.12407588  0.14594877  1
  O  O65  1  0.47970611  0.35341609  0.13350715  1
  O  O66  1  0.44546275  0.30719115  0.02822837  1
  O  O67  1  0.84340566  0.53978376  0.02689787  1
  O  O68  1  0.68846929  0.16023086  0.03086490  1
  O  O69  1  0.46021624  0.15659434  0.52689787  1
  O  O70  1  0.69280885  0.55453725  0.52822837  1
  O  O71  1  0.83976914  0.31153071  0.53086490  1
  O  O72  1  0.54259012  0.68781858  0.97928277  1
  O  O73  1  0.15694057  0.46219101  0.97578658  1
  O  O74  1  0.31324991  0.85362789  0.96684115  1
  O  O75  1  0.53780899  0.84305943  0.47578658  1
  O  O76  1  0.31218142  0.45740988  0.47928277  1
  O  O77  1  0.14637211  0.68675009  0.46684115  1
  O  O78  1  0.11212875  0.64052515  0.36156237  1
  O  O79  1  0.51007166  0.87311776  0.36023187  1
  O  O80  1  0.35513529  0.49356486  0.36419890  1
  O  O81  1  0.12688224  0.48992834  0.86023187  1
  O  O82  1  0.35947485  0.88787125  0.86156237  1
  O  O83  1  0.50643514  0.64486471  0.86419890  1
  O  O84  1  0.02528282  0.82019207  0.41264418  1
  O  O85  1  0.81326796  0.96808292  0.41183026  1
  O  O86  1  0.17692305  0.17638320  0.41406284  1
  O  O87  1  0.03191708  0.18673204  0.91183026  1
  O  O88  1  0.17980793  0.97471718  0.91264418  1
  O  O89  1  0.82361680  0.82307695  0.91406284  1
  O  O90  1  0.96435066  0.15299386  0.58851044  1
  O  O91  1  0.19036362  0.02591518  0.58773600  1
  O  O92  1  0.81358727  0.80088103  0.58921562  1
  O  O93  1  0.97408482  0.80963638  0.08773600  1
  O  O94  1  0.84700614  0.03564934  0.08851044  1
  O  O95  1  0.19911897  0.18641273  0.08921562  1
  O  O96  1  0.69194982  0.15352507  0.74597718  1
  O  O97  1  0.47993496  0.30141592  0.74516326  1
  O  O98  1  0.84359005  0.50971620  0.74739584  1
  O  O99  1  0.69858408  0.52006504  0.24516326  1
  O  O100  1  0.84647493  0.30805018  0.24597718  1
  O  O101  1  0.49028380  0.15640995  0.24739584  1
  O  O102  1  0.63101766  0.48632686  0.92184344  1
  O  O103  1  0.85703062  0.35924818  0.92106900  1
  O  O104  1  0.48025427  0.13421403  0.92254862  1
  O  O105  1  0.64075182  0.14296938  0.42106900  1
  O  O106  1  0.51367314  0.36898234  0.42184344  1
  O  O107  1  0.86578597  0.51974573  0.42254862  1
  O  O108  1  0.35861582  0.48685907  0.07931118  1
  O  O109  1  0.14660096  0.63474992  0.07849726  1
  O  O110  1  0.51025605  0.84305020  0.08072984  1
  O  O111  1  0.36525008  0.85339904  0.57849726  1
  O  O112  1  0.51314093  0.64138418  0.57931118  1
  O  O113  1  0.15694980  0.48974395  0.58072984  1
  O  O114  1  0.29768366  0.81966086  0.25517744  1
  O  O115  1  0.52369662  0.69258218  0.25440300  1
  O  O116  1  0.14692027  0.46754803  0.25588262  1
  O  O117  1  0.30741782  0.47630338  0.75440300  1
  O  O118  1  0.18033914  0.70231634  0.75517744  1
  O  O119  1  0.53245197  0.85307973  0.75588262  1
