# generated using pymatgen
data_Na3CaGaP2SO12
_symmetry_space_group_name_H-M   'P 1'
_cell_length_a   9.24679281
_cell_length_b   9.13129565
_cell_length_c   22.32172402
_cell_angle_alpha   91.96755192
_cell_angle_beta   90.00000000
_cell_angle_gamma   120.41929846
_symmetry_Int_Tables_number   1
_chemical_formula_structural   Na3CaGaP2SO12
_chemical_formula_sum   'Na18 Ca6 Ga6 P12 S6 O72'
_cell_volume   1624.00330363
_cell_formula_units_Z   6
loop_
 _symmetry_equiv_pos_site_id
 _symmetry_equiv_pos_as_xyz
  1  'x, y, z'
loop_
 _atom_site_type_symbol
 _atom_site_label
 _atom_site_symmetry_multiplicity
 _atom_site_fract_x
 _atom_site_fract_y
 _atom_site_fract_z
 _atom_site_occupancy
  Na  Na0  1  0.36494387  0.36161408  0.24908352  1
  Na  Na1  1  0.99621333  0.63716755  0.24459597  1
  Na  Na2  1  0.64095421  0.63716755  0.74459597  1
  Na  Na3  1  0.99667020  0.36161408  0.74908352  1
  Na  Na4  1  0.03161087  0.69494708  0.58241652  1
  Na  Na5  1  0.66288033  0.97050055  0.57792897  1
  Na  Na6  1  0.30762121  0.97050055  0.07792897  1
  Na  Na7  1  0.66333720  0.69494708  0.08241652  1
  Na  Na8  1  0.69827687  0.02828108  0.91575052  1
  Na  Na9  1  0.32954633  0.30383455  0.91126297  1
  Na  Na10  1  0.97428721  0.30383455  0.41126297  1
  Na  Na11  1  0.33000320  0.02828108  0.41575052  1
  Na  Na12  1  0.98500055  0.98527613  0.50050958  1
  Na  Na13  1  0.00027558  0.98527613  0.00050958  1
  Na  Na14  1  0.65166755  0.31860913  0.83384258  1
  Na  Na15  1  0.66694258  0.31860913  0.33384258  1
  Na  Na16  1  0.31833355  0.65194313  0.16717658  1
  Na  Na17  1  0.33360858  0.65194313  0.66717658  1
  Ca  Ca18  1  0.98769996  0.99343529  0.35127892  1
  Ca  Ca19  1  0.00573533  0.99343529  0.85127892  1
  Ca  Ca20  1  0.65436696  0.32676829  0.68461192  1
  Ca  Ca21  1  0.67240233  0.32676829  0.18461192  1
  Ca  Ca22  1  0.32103296  0.66010229  0.01794592  1
  Ca  Ca23  1  0.33906833  0.66010229  0.51794592  1
  Ga  Ga24  1  0.98664406  0.01862137  0.65045275  1
  Ga  Ga25  1  0.03197731  0.01862137  0.15045275  1
  Ga  Ga26  1  0.65331106  0.35195437  0.98378575  1
  Ga  Ga27  1  0.69864431  0.35195437  0.48378575  1
  Ga  Ga28  1  0.31997706  0.68528837  0.31711975  1
  Ga  Ga29  1  0.36531031  0.68528837  0.81711975  1
  P  P30  1  0.29297981  0.99061140  0.25225887  1
  P  P31  1  0.01955073  0.30809239  0.25367265  1
  P  P32  1  0.28854166  0.30809239  0.75367265  1
  P  P33  1  0.69763159  0.99061140  0.75225887  1
  P  P34  1  0.95964681  0.32394440  0.58559187  1
  P  P35  1  0.68621773  0.64142539  0.58700565  1
  P  P36  1  0.95520866  0.64142539  0.08700565  1
  P  P37  1  0.36429859  0.32394440  0.08559187  1
  P  P38  1  0.62631281  0.65727840  0.91892587  1
  P  P39  1  0.35288373  0.97475939  0.92033965  1
  P  P40  1  0.62187466  0.97475939  0.42033965  1
  P  P41  1  0.03096459  0.65727840  0.41892587  1
  S  S42  1  0.68899023  0.70574851  0.24613264  1
  S  S43  1  0.01675829  0.70574851  0.74613264  1
  S  S44  1  0.35565723  0.03908151  0.57946564  1
  S  S45  1  0.68342529  0.03908151  0.07946564  1
  S  S46  1  0.02232323  0.37241551  0.91279964  1
  S  S47  1  0.35009129  0.37241551  0.41279964  1
  O  O48  1  0.21180647  0.01008970  0.30849779  1
  O  O49  1  0.79259278  0.78633279  0.29958720  1
  O  O50  1  0.99842674  0.21772488  0.31125490  1
  O  O51  1  0.21929815  0.21772488  0.81125490  1
  O  O52  1  0.99374001  0.78633279  0.79958720  1
  O  O53  1  0.79828323  0.01008970  0.80849779  1
  O  O54  1  0.78094911  0.95900819  0.69459220  1
  O  O55  1  0.16344941  0.20885520  0.69854733  1
  O  O56  1  0.02938161  0.80004515  0.69168201  1
  O  O57  1  0.77066354  0.80004515  0.19168201  1
  O  O58  1  0.04540579  0.20885520  0.19854733  1
  O  O59  1  0.17805907  0.95900819  0.19459220  1
  O  O60  1  0.87847347  0.34342270  0.64183079  1
  O  O61  1  0.45925978  0.11966579  0.63292020  1
  O  O62  1  0.66509374  0.55105788  0.64458790  1
  O  O63  1  0.88596515  0.55105788  0.14458790  1
  O  O64  1  0.66040701  0.11966579  0.13292020  1
  O  O65  1  0.46495023  0.34342270  0.14183079  1
  O  O66  1  0.44761611  0.29234119  0.02792520  1
  O  O67  1  0.83011641  0.54218820  0.03188033  1
  O  O68  1  0.69604861  0.13337815  0.02501501  1
  O  O69  1  0.43733054  0.13337815  0.52501501  1
  O  O70  1  0.71207279  0.54218820  0.53188033  1
  O  O71  1  0.84472607  0.29234119  0.52792520  1
  O  O72  1  0.54513947  0.67675670  0.97516479  1
  O  O73  1  0.12592578  0.45299979  0.96625420  1
  O  O74  1  0.33175974  0.88439188  0.97792190  1
  O  O75  1  0.55263115  0.88439188  0.47792190  1
  O  O76  1  0.32707301  0.45299979  0.46625420  1
  O  O77  1  0.13161623  0.67675670  0.47516479  1
  O  O78  1  0.11428211  0.62567519  0.36125920  1
  O  O79  1  0.49678241  0.87552220  0.36521433  1
  O  O80  1  0.36271461  0.46671215  0.35834901  1
  O  O81  1  0.10399654  0.46671215  0.85834901  1
  O  O82  1  0.37873879  0.87552220  0.86521433  1
  O  O83  1  0.51139207  0.62567519  0.86125920  1
  O  O84  1  0.01388424  0.81391676  0.41369170  1
  O  O85  1  0.80064761  0.01169830  0.41199573  1
  O  O86  1  0.19841240  0.19714351  0.41025395  1
  O  O87  1  0.99873112  0.19714351  0.91025395  1
  O  O88  1  0.21105069  0.01169830  0.91199573  1
  O  O89  1  0.80003252  0.81391676  0.91369170  1
  O  O90  1  0.96476085  0.15285707  0.58766621  1
  O  O91  1  0.18596815  0.02055663  0.58426660  1
  O  O92  1  0.85827601  0.82120511  0.58997944  1
  O  O93  1  0.96292909  0.82120511  0.08997944  1
  O  O94  1  0.83458848  0.02055663  0.08426660  1
  O  O95  1  0.18809622  0.15285707  0.08766621  1
  O  O96  1  0.68055124  0.14724976  0.74702470  1
  O  O97  1  0.46731461  0.34503130  0.74532873  1
  O  O98  1  0.86507940  0.53047651  0.74358695  1
  O  O99  1  0.66539812  0.53047651  0.24358695  1
  O  O100  1  0.87771769  0.34503130  0.24532873  1
  O  O101  1  0.46669952  0.14724976  0.24702470  1
  O  O102  1  0.63142785  0.48619007  0.92099921  1
  O  O103  1  0.85263515  0.35388963  0.91759960  1
  O  O104  1  0.52494301  0.15453811  0.92331244  1
  O  O105  1  0.62959609  0.15453811  0.42331244  1
  O  O106  1  0.50125548  0.35388963  0.41759960  1
  O  O107  1  0.85476322  0.48619007  0.42099921  1
  O  O108  1  0.34721724  0.48058376  0.08035870  1
  O  O109  1  0.13398061  0.67836530  0.07866273  1
  O  O110  1  0.53174540  0.86381051  0.07692095  1
  O  O111  1  0.33206412  0.86381051  0.57692095  1
  O  O112  1  0.54438369  0.67836530  0.57866273  1
  O  O113  1  0.13336552  0.48058376  0.58035870  1
  O  O114  1  0.29809385  0.81952407  0.25433321  1
  O  O115  1  0.51930115  0.68722363  0.25093360  1
  O  O116  1  0.19160901  0.48787211  0.25664644  1
  O  O117  1  0.29626209  0.48787211  0.75664644  1
  O  O118  1  0.16792148  0.68722363  0.75093360  1
  O  O119  1  0.52142922  0.81952407  0.75433321  1
