# generated using pymatgen
data_Na7Zr2In2Si3(PO8)3
_symmetry_space_group_name_H-M   'P 1'
_cell_length_a   9.23364298
_cell_length_b   9.22782044
_cell_length_c   22.72791485
_cell_angle_alpha   89.91024215
_cell_angle_beta   90.16635732
_cell_angle_gamma   120.02665949
_symmetry_Int_Tables_number   1
_chemical_formula_structural   Na7Zr2In2Si3(PO8)3
_chemical_formula_sum   'Na21 Zr6 In6 Si9 P9 O72'
_cell_volume   1676.65563748
_cell_formula_units_Z   3
loop_
 _symmetry_equiv_pos_site_id
 _symmetry_equiv_pos_as_xyz
  1  'x, y, z'
loop_
 _atom_site_type_symbol
 _atom_site_label
 _atom_site_symmetry_multiplicity
 _atom_site_fract_x
 _atom_site_fract_y
 _atom_site_fract_z
 _atom_site_occupancy
  Na  Na0  1  0.63240516  0.00412387  0.25342763  1
  Na  Na1  1  0.36725126  0.37160648  0.24726387  1
  Na  Na2  1  -0.00001303  0.62275536  0.24994830  1
  Na  Na3  1  0.63128160  0.63461382  0.75039004  1
  Na  Na4  1  0.99059329  0.36279637  0.74876210  1
  Na  Na5  1  0.37585239  0.00164291  0.74652595  1
  Na  Na6  1  0.03332598  0.69397946  0.58353015  1
  Na  Na7  1  0.66137775  0.97184275  0.58304566  1
  Na  Na8  1  0.66744577  0.68903968  0.08199341  1
  Na  Na9  1  0.03098566  0.33874680  0.08699454  1
  Na  Na10  1  0.95753717  0.66337759  0.92027501  1
  Na  Na11  1  0.70324424  0.03202397  0.91525406  1
  Na  Na12  1  0.34244521  0.30498081  0.91871834  1
  Na  Na13  1  0.96673380  0.30679963  0.41523333  1
  Na  Na14  1  0.33600141  0.02738785  0.41833029  1
  Na  Na15  1  0.00107746  0.99897774  0.50023970  1
  Na  Na16  1  0.01027049  0.99383708  0.00014756  1
  Na  Na17  1  0.66673360  0.33360457  0.83335467  1
  Na  Na18  1  0.67538631  0.34358663  0.33418668  1
  Na  Na19  1  0.32355992  0.66715154  0.16683602  1
  Na  Na20  1  0.33369552  0.66101479  0.66545547  1
  Zr  Zr21  1  0.99031405  0.99549748  0.35392487  1
  Zr  Zr22  1  0.00232414  0.00611883  0.64727460  1
  Zr  Zr23  1  0.00911157  0.00485322  0.14674364  1
  Zr  Zr24  1  0.66570264  0.33206138  0.48264481  1
  Zr  Zr25  1  0.33608190  0.67021467  0.01886539  1
  Zr  Zr26  1  0.33351867  0.66634014  0.51726962  1
  In  In27  1  0.99553777  0.99879184  0.84996894  1
  In  In28  1  0.66648795  0.32874292  0.68081201  1
  In  In29  1  0.66991762  0.33517495  0.18124249  1
  In  In30  1  0.66341850  0.33657317  0.98597141  1
  In  In31  1  0.32956834  0.66392146  0.31847840  1
  In  In32  1  0.33836786  0.66895557  0.81661105  1
  Si  Si33  1  0.99950001  0.29832534  0.25004938  1
  Si  Si34  1  0.70133829  0.00169583  0.75084783  1
  Si  Si35  1  0.96534025  0.33546217  0.58456289  1
  Si  Si36  1  0.36709342  0.03415907  0.58367298  1
  Si  Si37  1  0.96576474  0.63160517  0.08344514  1
  Si  Si38  1  0.37004799  0.33287963  0.08272292  1
  Si  Si39  1  0.63277065  0.66442710  0.91530284  1
  Si  Si40  1  0.62808840  0.96279187  0.41571449  1
  Si  Si41  1  0.03465816  0.66567546  0.41534309  1
  P  P42  1  0.29457387  0.00138929  0.25156200  1
  P  P43  1  0.70521618  0.70659095  0.24875806  1
  P  P44  1  0.29477126  0.29436172  0.75213425  1
  P  P45  1  0.99853502  0.70296554  0.75089718  1
  P  P46  1  0.66525832  0.62638111  0.58640221  1
  P  P47  1  0.66662160  0.03690820  0.08381762  1
  P  P48  1  0.03867252  0.37211147  0.91583208  1
  P  P49  1  0.33496506  0.96363325  0.91452703  1
  P  P50  1  0.33532538  0.37166266  0.41395705  1
  O  O51  1  0.20897047  0.02043727  0.30734177  1
  O  O52  1  0.82013701  0.79945217  0.30238697  1
  O  O53  1  0.97979053  0.18090947  0.30775366  1
  O  O54  1  0.22301341  0.19065267  0.80913249  1
  O  O55  1  0.97725624  0.78293941  0.80760324  1
  O  O56  1  0.81451261  0.03613921  0.81033168  1
  O  O57  1  0.79930418  0.97624447  0.69420325  1
  O  O58  1  0.17901832  0.19546994  0.69941648  1
  O  O59  1  0.02351074  0.81635219  0.69665911  1
  O  O60  1  0.79067721  0.81115751  0.19320115  1
  O  O61  1  0.01930305  0.20142150  0.19267808  1
  O  O62  1  0.17996145  0.97949804  0.19825135  1
  O  O63  1  0.89472910  0.37944504  0.64360319  1
  O  O64  1  0.47839680  0.10912233  0.64317564  1
  O  O65  1  0.63935757  0.53099185  0.64458564  1
  O  O66  1  0.89299412  0.51397504  0.14223735  1
  O  O67  1  0.63749576  0.11036635  0.14039721  1
  O  O68  1  0.48548044  0.37192301  0.14187506  1
  O  O69  1  0.44190767  0.29867673  0.02267465  1
  O  O70  1  0.85115139  0.55462509  0.02449309  1
  O  O71  1  0.70104040  0.14681824  0.02862857  1
  O  O72  1  0.45808714  0.14983557  0.52583342  1
  O  O73  1  0.69177829  0.53452463  0.53452698  1
  O  O74  1  0.84111807  0.30485736  0.52803218  1
  O  O75  1  0.53546287  0.68976195  0.97189444  1
  O  O76  1  0.14999494  0.46642645  0.96983869  1
  O  O77  1  0.30895939  0.84457964  0.96652380  1
  O  O78  1  0.53894680  0.84837552  0.47364082  1
  O  O79  1  0.30692182  0.46299622  0.46544438  1
  O  O80  1  0.15832727  0.69346135  0.47182101  1
  O  O81  1  0.10510826  0.62218466  0.35597527  1
  O  O82  1  0.51720438  0.88649235  0.35589565  1
  O  O83  1  0.36282368  0.46712206  0.35557251  1
  O  O84  1  0.11237959  0.47856418  0.85935097  1
  O  O85  1  0.35762078  0.88864916  0.85665106  1
  O  O86  1  0.51937865  0.63126666  0.85592969  1
  O  O87  1  0.03341722  0.84313593  0.41128692  1
  O  O88  1  0.82053105  0.99402672  0.41271464  1
  O  O89  1  0.17327699  0.19461401  0.41114106  1
  O  O90  1  0.03485065  0.20143313  0.91450417  1
  O  O91  1  0.17716500  0.98385206  0.91326874  1
  O  O92  1  0.81883111  0.83666346  0.91539706  1
  O  O93  1  0.96856196  0.15854309  0.58889588  1
  O  O94  1  0.17445797  -0.00005976  0.58820310  1
  O  O95  1  0.82886666  0.80240944  0.58919681  1
  O  O96  1  0.97310006  0.81274692  0.09076721  1
  O  O97  1  0.82424227  0.01613863  0.08988973  1
  O  O98  1  0.17611876  0.17547033  0.08864695  1
  O  O99  1  0.68254618  0.16986033  0.74745955  1
  O  O100  1  0.47343171  0.32111543  0.74559064  1
  O  O101  1  0.83661364  0.52936616  0.74646964  1
  O  O102  1  0.68815385  0.53037549  0.24825947  1
  O  O103  1  0.82685318  0.30970797  0.24872735  1
  O  O104  1  0.46848503  0.16277575  0.24687259  1
  O  O105  1  0.65207479  0.49657001  0.91835030  1
  O  O106  1  0.85871136  0.34349615  0.92161649  1
  O  O107  1  0.49739555  0.13612908  0.92084148  1
  O  O108  1  0.64616539  0.15037766  0.42167123  1
  O  O109  1  0.48507901  0.34322842  0.42285026  1
  O  O110  1  0.84980546  0.50048833  0.42460988  1
  O  O111  1  0.35148925  0.50314384  0.07693105  1
  O  O112  1  0.15082690  0.64899667  0.07580325  1
  O  O113  1  0.51414947  0.85749864  0.07687078  1
  O  O114  1  0.35278285  0.84788626  0.57744307  1
  O  O115  1  0.51625207  0.65644406  0.57762012  1
  O  O116  1  0.15058284  0.49931225  0.57547018  1
  O  O117  1  0.31210772  0.84262820  0.25205090  1
  O  O118  1  0.53149040  0.69389453  0.25309570  1
  O  O119  1  0.17181463  0.48285993  0.25109423  1
  O  O120  1  0.29791988  0.46463951  0.75238345  1
  O  O121  1  0.15658137  0.68293401  0.75303736  1
  O  O122  1  0.51569725  0.82938783  0.75080618  1
