# generated using pymatgen
data_Na6Hf7ZnSi6(SO8)6
_symmetry_space_group_name_H-M   'P 1'
_cell_length_a   17.97224322
_cell_length_b   8.95521036
_cell_length_c   23.13317635
_cell_angle_alpha   89.94739041
_cell_angle_beta   90.10417213
_cell_angle_gamma   119.81871111
_symmetry_Int_Tables_number   1
_chemical_formula_structural   Na6Hf7ZnSi6(SO8)6
_chemical_formula_sum   'Na18 Hf21 Zn3 Si18 S18 O144'
_cell_volume   3230.23211290
_cell_formula_units_Z   3
loop_
 _symmetry_equiv_pos_site_id
 _symmetry_equiv_pos_as_xyz
  1  'x, y, z'
loop_
 _atom_site_type_symbol
 _atom_site_label
 _atom_site_symmetry_multiplicity
 _atom_site_fract_x
 _atom_site_fract_y
 _atom_site_fract_z
 _atom_site_occupancy
  Na  Na0  1  0.68803201  0.37919365  0.25179385  1
  Na  Na1  1  0.99498847  0.65330663  0.25333587  1
  Na  Na2  1  0.99620564  0.35511522  0.75255160  1
  Na  Na3  1  0.49213646  0.35599844  0.74558204  1
  Na  Na4  1  0.19479074  0.01919812  0.75305981  1
  Na  Na5  1  0.68443417  0.00938580  0.74846307  1
  Na  Na6  1  0.99670248  0.99878076  0.48807675  1
  Na  Na7  1  0.51094073  0.00228829  0.49715795  1
  Na  Na8  1  0.01812119  0.02742556  0.99781434  1
  Na  Na9  1  0.50414949  0.98082324  0.99688436  1
  Na  Na10  1  0.32950133  0.33404643  0.82291314  1
  Na  Na11  1  0.82665720  0.32392352  0.82566915  1
  Na  Na12  1  0.33376584  0.32970678  0.32830684  1
  Na  Na13  1  0.83365026  0.33263684  0.33675770  1
  Na  Na14  1  0.17419849  0.66645796  0.16522101  1
  Na  Na15  1  0.66037347  0.66255995  0.17412520  1
  Na  Na16  1  0.18381784  0.66770069  0.67129866  1
  Na  Na17  1  0.67243429  0.66193708  0.66764649  1
  Hf  Hf18  1  0.00060525  0.98767266  0.35613728  1
  Hf  Hf19  1  0.50248860  0.00967496  0.35655517  1
  Hf  Hf20  1  0.00642409  0.01739409  0.85574489  1
  Hf  Hf21  1  0.50340648  0.99906827  0.84936426  1
  Hf  Hf22  1  0.99719928  0.00473560  0.64742541  1
  Hf  Hf23  1  0.50005824  0.00154044  0.65186866  1
  Hf  Hf24  1  0.00463272  0.99710195  0.14953007  1
  Hf  Hf25  1  0.50029231  0.00184732  0.14552180  1
  Hf  Hf26  1  0.33357734  0.33722450  0.18723062  1
  Hf  Hf27  1  0.32534739  0.33250439  0.98304061  1
  Hf  Hf28  1  0.83260553  0.32419869  0.97552366  1
  Hf  Hf29  1  0.33431273  0.34276790  0.47754880  1
  Hf  Hf30  1  0.83198729  0.33075446  0.47423037  1
  Hf  Hf31  1  0.16149247  0.65712481  0.01788482  1
  Hf  Hf32  1  0.66062954  0.67461945  0.02103460  1
  Hf  Hf33  1  0.16219898  0.65533277  0.51764163  1
  Hf  Hf34  1  0.66591519  0.66944197  0.51300633  1
  Hf  Hf35  1  0.16300668  0.66080649  0.31583483  1
  Hf  Hf36  1  0.66687832  0.66216810  0.31613983  1
  Hf  Hf37  1  0.16917272  0.66828524  0.81566282  1
  Hf  Hf38  1  0.67068891  0.68026186  0.81022945  1
  Zn  Zn39  1  0.33315836  0.34187250  0.69369772  1
  Zn  Zn40  1  0.82395665  0.32331667  0.68746053  1
  Zn  Zn41  1  0.83530668  0.34614902  0.18441398  1
  Si  Si42  1  0.14919273  0.00112848  0.25158752  1
  Si  Si43  1  0.85246423  0.70746299  0.24728690  1
  Si  Si44  1  0.49878796  0.29291302  0.24960822  1
  Si  Si45  1  0.14583713  0.29531398  0.74853478  1
  Si  Si46  1  0.64849351  0.29547065  0.74987744  1
  Si  Si47  1  0.49802259  0.70542888  0.74990808  1
  Si  Si48  1  0.35261734  0.99414277  0.75049463  1
  Si  Si49  1  0.85661376  0.00403039  0.74952193  1
  Si  Si50  1  0.47696386  0.62310633  0.08320140  1
  Si  Si51  1  0.18431890  0.33608554  0.08585475  1
  Si  Si52  1  0.01987592  0.37635536  0.91479635  1
  Si  Si53  1  0.16912374  0.96184869  0.91655197  1
  Si  Si54  1  0.66157432  0.95854543  0.91601006  1
  Si  Si55  1  0.81217154  0.95414091  0.41521995  1
  Si  Si56  1  0.16629339  0.37215261  0.41539597  1
  Si  Si57  1  0.66509359  0.37511975  0.41659703  1
  Si  Si58  1  0.02101150  0.66487944  0.41726320  1
  Si  Si59  1  0.52058076  0.66591956  0.41512632  1
  S  S60  1  0.64373130  0.99879355  0.24867028  1
  S  S61  1  0.35590925  0.71431422  0.25018195  1
  S  S62  1  -0.00006567  0.28993534  0.24967644  1
  S  S63  1  -0.00005351  0.71300213  0.74992454  1
  S  S64  1  0.47982895  0.33250822  0.58437766  1
  S  S65  1  0.97979797  0.33540727  0.58543626  1
  S  S66  1  0.18731281  0.03803427  0.58472350  1
  S  S67  1  0.68603466  0.03757894  0.58449792  1
  S  S68  1  0.33439090  0.62755666  0.58379562  1
  S  S69  1  0.83325942  0.62200935  0.58518562  1
  S  S70  1  0.97770478  0.62364673  0.08382132  1
  S  S71  1  0.33378466  0.04380969  0.08351676  1
  S  S72  1  0.83283097  0.04589138  0.08463262  1
  S  S73  1  0.68822302  0.33427237  0.08370478  1
  S  S74  1  0.31299246  0.66879347  0.91839234  1
  S  S75  1  0.80999127  0.66507093  0.91901266  1
  S  S76  1  0.52145617  0.37705136  0.91749601  1
  S  S77  1  0.31016605  0.95454583  0.41814525  1
  O  O78  1  0.10114013  0.02218083  0.30705387  1
  O  O79  1  0.60026880  0.01901806  0.30042163  1
  O  O80  1  0.40638629  0.79580358  0.30239549  1
  O  O81  1  0.91719750  0.79916550  0.30181338  1
  O  O82  1  0.48980163  0.17032983  0.30507997  1
  O  O83  1  0.99033305  0.19050619  0.30164185  1
  O  O84  1  0.09972508  0.17292672  0.80547984  1
  O  O85  1  0.60235208  0.16747323  0.80529553  1
  O  O86  1  0.48707312  0.79889449  0.80698833  1
  O  O87  1  0.98902840  0.79300753  0.80229418  1
  O  O88  1  0.41293585  0.02276449  0.80707025  1
  O  O89  1  0.91616198  0.02248650  0.80491072  1
  O  O90  1  0.39891801  0.96494209  0.69342930  1
  O  O91  1  0.89956536  0.97132185  0.69137739  1
  O  O92  1  0.08180879  0.19633262  0.69265655  1
  O  O93  1  0.58572614  0.20824184  0.69283931  1
  O  O94  1  0.01261440  0.82142299  0.69762764  1
  O  O95  1  0.52006592  0.83506970  0.69402843  1
  O  O96  1  0.39948221  0.81757103  0.19759304  1
  O  O97  1  0.90020013  0.82205218  0.18927264  1
  O  O98  1  0.01209296  0.20873572  0.19700421  1
  O  O99  1  0.51113392  0.19089038  0.19335234  1
  O  O100  1  0.08532400  0.96227556  0.19450415  1
  O  O101  1  0.59072681  0.97922413  0.19592930  1
  O  O102  1  0.44163184  0.34905002  0.63806815  1
  O  O103  1  0.94442744  0.35732852  0.63942596  1
  O  O104  1  0.23462608  0.11233205  0.63824162  1
  O  O105  1  0.73210279  0.11013071  0.63924514  1
  O  O106  1  0.32134993  0.52646742  0.63558408  1
  O  O107  1  0.82541100  0.52395189  0.63788298  1
  O  O108  1  0.43233687  0.50792501  0.13998060  1
  O  O109  1  0.94348489  0.52761285  0.13782268  1
  O  O110  1  0.32233073  0.12388813  0.13561384  1
  O  O111  1  0.81816549  0.12181304  0.13621329  1
  O  O112  1  0.24360262  0.35258720  0.14111654  1
  O  O113  1  0.73458953  0.35569200  0.13806858  1
  O  O114  1  0.22987567  0.30867696  0.02770246  1
  O  O115  1  0.73254885  0.31109387  0.03361109  1
  O  O116  1  0.42081973  0.52967358  0.02554613  1
  O  O117  1  0.92300244  0.53057637  0.03361710  1
  O  O118  1  0.34706643  0.14908228  0.03125972  1
  O  O119  1  0.84094537  0.15131513  0.03200097  1
  O  O120  1  0.23127224  0.14600391  0.53329079  1
  O  O121  1  0.73337964  0.14662855  0.53452507  1
  O  O122  1  0.34125987  0.53782660  0.53098359  1
  O  O123  1  0.84187924  0.53596374  0.53299595  1
  O  O124  1  0.42541915  0.31745951  0.53327442  1
  O  O125  1  0.92718709  0.31954803  0.53466836  1
  O  O126  1  0.26950038  0.68351975  0.97037497  1
  O  O127  1  0.76794515  0.68616621  0.97067651  1
  O  O128  1  0.08072657  0.47047291  0.97070473  1
  O  O129  1  0.57745476  0.46554311  0.96891686  1
  O  O130  1  0.16313285  0.84495117  0.97271143  1
  O  O131  1  0.65549719  0.83962492  0.97182048  1
  O  O132  1  0.27014606  0.84962465  0.47006075  1
  O  O133  1  0.76668491  0.83766978  0.47291918  1
  O  O134  1  0.16059530  0.47537631  0.47275283  1
  O  O135  1  0.65110252  0.46638646  0.47261050  1
  O  O136  1  0.08266210  0.68810050  0.47249290  1
  O  O137  1  0.57946776  0.70095221  0.47299421  1
  O  O138  1  0.06504218  0.63970258  0.35826636  1
  O  O139  1  0.56441975  0.63750781  0.35851304  1
  O  O140  1  0.25769844  0.87778801  0.36561621  1
  O  O141  1  0.75222709  0.86870108  0.35870868  1
  O  O142  1  0.18558662  0.49889687  0.35950358  1
  O  O143  1  0.67952386  0.48035873  0.35660464  1
  O  O144  1  0.06260380  0.48326617  0.85563643  1
  O  O145  1  0.56324422  0.47722648  0.86458051  1
  O  O146  1  0.17938837  0.87081995  0.85733921  1
  O  O147  1  0.67717596  0.87361012  0.85839998  1
  O  O148  1  0.26049325  0.64474129  0.86570518  1
  O  O149  1  0.75705670  0.63530014  0.86672232  1
  O  O150  1  0.01262921  0.83492919  0.41398984  1
  O  O151  1  0.50276386  0.82671337  0.40712771  1
  O  O152  1  0.39570816  0.97024186  0.41166875  1
  O  O153  1  0.90644646  0.97767871  0.40784657  1
  O  O154  1  0.08022034  0.19085005  0.40950601  1
  O  O155  1  0.57971834  0.18268077  0.41189694  1
  O  O156  1  0.00626029  0.18269866  0.91269861  1
  O  O157  1  0.51262272  0.20385403  0.91498968  1
  O  O158  1  0.08016098  0.96969190  0.91202278  1
  O  O159  1  0.57631834  0.97639424  0.91487601  1
  O  O160  1  0.39714354  0.82545082  0.91432413  1
  O  O161  1  0.89603338  0.81564672  0.91254716  1
  O  O162  1  0.48783989  0.17290120  0.58435077  1
  O  O163  1  0.98927146  0.17694551  0.58661436  1
  O  O164  1  0.09842541  0.01442612  0.58714724  1
  O  O165  1  0.59926703  0.02330092  0.58505111  1
  O  O166  1  0.41364080  0.80002976  0.58499970  1
  O  O167  1  0.91325533  0.79700507  0.58795328  1
  O  O168  1  0.49000470  0.81836316  0.08981249  1
  O  O169  1  0.98461175  0.79689074  0.08579863  1
  O  O170  1  0.41188702  0.02491214  0.08929159  1
  O  O171  1  0.91112219  0.03149047  0.08749552  1
  O  O172  1  0.08759719  0.16713636  0.09024777  1
  O  O173  1  0.60030648  0.17735969  0.08657481  1
  O  O174  1  0.34358196  0.16426451  0.74491222  1
  O  O175  1  0.85067552  0.17914283  0.74409008  1
  O  O176  1  0.23686790  0.30653890  0.74335081  1
  O  O177  1  0.74123677  0.30989807  0.74498931  1
  O  O178  1  0.42079522  0.51280898  0.74497914  1
  O  O179  1  0.92781342  0.53798083  0.74342678  1
  O  O180  1  0.34658588  0.54105654  0.24545041  1
  O  O181  1  0.84262008  0.51196583  0.24320792  1
  O  O182  1  0.41442153  0.31247694  0.24409654  1
  O  O183  1  0.92595127  0.31800707  0.24294425  1
  O  O184  1  0.24290621  0.16799387  0.24333376  1
  O  O185  1  0.72742063  0.15759105  0.24373520  1
  O  O186  1  0.32274686  0.51400668  0.92227809  1
  O  O187  1  0.81857083  0.50841529  0.92684590  1
  O  O188  1  0.43688995  0.36390342  0.92406426  1
  O  O189  1  0.92649730  0.36453860  0.92471382  1
  O  O190  1  0.25465918  0.15339015  0.92272775  1
  O  O191  1  0.74704722  0.14979164  0.92556885  1
  O  O192  1  0.32035465  0.12789922  0.42574563  1
  O  O193  1  0.82095465  0.14340304  0.42656415  1
  O  O194  1  0.25026362  0.34760415  0.42617085  1
  O  O195  1  0.74860967  0.35173287  0.42595491  1
  O  O196  1  0.42674964  0.49081964  0.42653116  1
  O  O197  1  0.92795926  0.49409363  0.42562389  1
  O  O198  1  0.17803875  0.51272637  0.07987960  1
  O  O199  1  0.67832814  0.48781187  0.07469654  1
  O  O200  1  0.06594437  0.64914256  0.07648697  1
  O  O201  1  0.57449062  0.64543846  0.07728632  1
  O  O202  1  0.25825488  0.86985425  0.07784542  1
  O  O203  1  0.75713816  0.86884554  0.07570121  1
  O  O204  1  0.17852453  0.86296448  0.57711898  1
  O  O205  1  0.67524557  0.86161350  0.57908971  1
  O  O206  1  0.25895952  0.65556572  0.57660697  1
  O  O207  1  0.75711535  0.64679316  0.58051368  1
  O  O208  1  0.06919004  0.48805921  0.57886078  1
  O  O209  1  0.56722129  0.48669163  0.57825108  1
  O  O210  1  0.15446540  0.82111849  0.25635469  1
  O  O211  1  0.65114985  0.84336006  0.25194581  1
  O  O212  1  0.27033039  0.70084652  0.25318290  1
  O  O213  1  0.75677012  0.68422865  0.25226014  1
  O  O214  1  0.07972565  0.46724315  0.25325572  1
  O  O215  1  0.58744808  0.47706938  0.25306644  1
  O  O216  1  0.14598434  0.47791477  0.75385511  1
  O  O217  1  0.64932047  0.47649618  0.75933424  1
  O  O218  1  0.08181654  0.70555519  0.75375349  1
  O  O219  1  0.58734004  0.69568904  0.75747253  1
  O  O220  1  0.25527580  0.82621738  0.75511284  1
  O  O221  1  0.75971060  0.83825200  0.75508778  1
