# generated using pymatgen
data_Na5La3Sn(PO4)6
_symmetry_space_group_name_H-M   'P 1'
_cell_length_a   9.47016507
_cell_length_b   9.47276446
_cell_length_c   23.46682153
_cell_angle_alpha   89.81094631
_cell_angle_beta   89.93316482
_cell_angle_gamma   120.08923851
_symmetry_Int_Tables_number   1
_chemical_formula_structural   Na5La3Sn(PO4)6
_chemical_formula_sum   'Na15 La9 Sn3 P18 O72'
_cell_volume   1821.47529814
_cell_formula_units_Z   3
loop_
 _symmetry_equiv_pos_site_id
 _symmetry_equiv_pos_as_xyz
  1  'x, y, z'
loop_
 _atom_site_type_symbol
 _atom_site_label
 _atom_site_symmetry_multiplicity
 _atom_site_fract_x
 _atom_site_fract_y
 _atom_site_fract_z
 _atom_site_occupancy
  Na  Na0  1  0.64284746  0.00145114  0.25895928  1
  Na  Na1  1  0.36226460  0.36351978  0.26106751  1
  Na  Na2  1  0.99475433  0.63404842  0.25891617  1
  Na  Na3  1  0.65684541  0.66006970  0.75565742  1
  Na  Na4  1  0.99837937  0.35720346  0.75597888  1
  Na  Na5  1  0.03552532  0.70040963  0.57426778  1
  Na  Na6  1  0.66419705  0.96596282  0.57377657  1
  Na  Na7  1  0.66147522  0.69675242  0.07367192  1
  Na  Na8  1  0.03774676  0.33540711  0.07299828  1
  Na  Na9  1  0.01856372  0.01688881  0.49691658  1
  Na  Na10  1  0.02111043  0.00192740  0.99681698  1
  Na  Na11  1  0.65409028  0.32097712  0.83995177  1
  Na  Na12  1  0.66764239  0.33249917  0.34761367  1
  Na  Na13  1  0.33611580  0.68330579  0.17202354  1
  Na  Na14  1  0.33475750  0.67183963  0.67214859  1
  La  La15  1  0.99431417  0.99673175  0.35609495  1
  La  La16  1  0.00214693  0.99853189  0.85480596  1
  La  La17  1  0.01696068  0.01054769  0.65235808  1
  La  La18  1  0.01263997  0.00052161  0.14575795  1
  La  La19  1  0.64788724  0.32348520  0.68647450  1
  La  La20  1  0.65792001  0.32430137  0.17841161  1
  La  La21  1  0.33272706  0.67710727  0.01031945  1
  La  La22  1  0.33200992  0.65126879  0.51380892  1
  La  La23  1  0.33347756  0.66370995  0.33140001  1
  Sn  Sn24  1  0.66270152  0.32967831  0.97773245  1
  Sn  Sn25  1  0.66133536  0.33273994  0.48473427  1
  Sn  Sn26  1  0.33297093  0.67483924  0.82430013  1
  P  P27  1  0.30340391  0.98996837  0.25196672  1
  P  P28  1  0.68958451  0.69715834  0.24532027  1
  P  P29  1  0.00856343  0.31064010  0.24570118  1
  P  P30  1  0.30294491  0.33063532  0.75726658  1
  P  P31  1  0.01664472  0.69552496  0.75064840  1
  P  P32  1  0.68249037  0.98089287  0.75152817  1
  P  P33  1  0.94678136  0.32400742  0.58411410  1
  P  P34  1  0.36637234  0.03630155  0.57774952  1
  P  P35  1  0.67963347  0.63611317  0.58350967  1
  P  P36  1  0.94910167  0.62334493  0.07798266  1
  P  P37  1  0.67912350  0.04233105  0.07809294  1
  P  P38  1  0.36875179  0.33019114  0.07651602  1
  P  P39  1  0.62325126  0.64237254  0.91763813  1
  P  P40  1  0.01793317  0.37460675  0.91827969  1
  P  P41  1  0.35831795  0.98463846  0.91640627  1
  P  P42  1  0.64665652  0.99671061  0.42243825  1
  P  P43  1  0.35001277  0.34879088  0.41581599  1
  P  P44  1  0.00376382  0.65097564  0.42260180  1
  O  O45  1  0.20995680  0.00523644  0.30249518  1
  O  O46  1  0.80627429  0.79440385  0.29395331  1
  O  O47  1  0.99107921  0.19444724  0.29454980  1
  O  O48  1  0.21670550  0.21931750  0.80756737  1
  O  O49  1  0.98102571  0.78662145  0.79716739  1
  O  O50  1  0.80475714  0.00586978  0.79864868  1
  O  O51  1  0.74704794  0.94923235  0.69451767  1
  O  O52  1  0.20260101  0.25556282  0.70199050  1
  O  O53  1  0.04259773  0.78444105  0.69250720  1
  O  O54  1  0.76447382  0.78493541  0.18755884  1
  O  O55  1  0.02423218  0.23764610  0.18818874  1
  O  O56  1  0.20983054  0.97581197  0.19602908  1
  O  O57  1  0.87317026  0.33302850  0.64173508  1
  O  O58  1  0.45578416  0.11715518  0.63323486  1
  O  O59  1  0.66490524  0.55201409  0.64131411  1
  O  O60  1  0.87675600  0.54888757  0.13702062  1
  O  O61  1  0.66995764  0.10970040  0.13710572  1
  O  O62  1  0.44130479  0.32863009  0.13536156  1
  O  O63  1  0.47596468  0.32328181  0.02721489  1
  O  O64  1  0.83044063  0.51410700  0.02975916  1
  O  O65  1  0.67928875  0.15598413  0.02935542  1
  O  O66  1  0.46085196  0.14372761  0.52548152  1
  O  O67  1  0.68447651  0.52933104  0.53347775  1
  O  O68  1  0.82897478  0.30704268  0.53437749  1
  O  O69  1  0.55210682  0.65945359  0.97424360  1
  O  O70  1  0.10625273  0.44336544  0.97501029  1
  O  O71  1  0.33953083  0.89704422  0.97281369  1
  O  O72  1  0.55242200  0.88913821  0.47408744  1
  O  O73  1  0.33589036  0.45413796  0.46262097  1
  O  O74  1  0.11005734  0.66446076  0.47440656  1
  O  O75  1  0.08454780  0.63825428  0.36607008  1
  O  O76  1  0.55610949  0.91416237  0.36570985  1
  O  O77  1  0.36138925  0.43060706  0.35685118  1
  O  O78  1  0.11797314  0.49067135  0.86639608  1
  O  O79  1  0.37309980  0.88556784  0.86496990  1
  O  O80  1  0.51178505  0.63277624  0.86538492  1
  O  O81  1  0.97739594  0.79824392  0.42145502  1
  O  O82  1  0.82118456  0.02418472  0.42217864  1
  O  O83  1  0.20300518  0.17546175  0.41914501  1
  O  O84  1  0.99105578  0.20301190  0.91007650  1
  O  O85  1  0.21385259  0.01208785  0.90957524  1
  O  O86  1  0.79652703  0.78702821  0.91063120  1
  O  O87  1  0.95995668  0.16685094  0.58189837  1
  O  O88  1  0.19064881  0.00978743  0.57754693  1
  O  O89  1  0.84358333  0.80232286  0.58101492  1
  O  O90  1  0.96073410  0.79232778  0.07239931  1
  O  O91  1  0.84287386  0.04108224  0.07311522  1
  O  O92  1  0.19255819  0.18367265  0.07115329  1
  O  O93  1  0.66211873  0.13241233  0.75007958  1
  O  O94  1  0.48236590  0.37060334  0.75312019  1
  O  O95  1  0.86911933  0.51738064  0.74904435  1
  O  O96  1  0.66262065  0.52073145  0.24728553  1
  O  O97  1  0.85639362  0.33340152  0.24735588  1
  O  O98  1  0.47899976  0.14137328  0.25147802  1
  O  O99  1  0.62847243  0.47877185  0.91751099  1
  O  O100  1  0.84843368  0.36846332  0.91863328  1
  O  O101  1  0.52219188  0.15274848  0.91677146  1
  O  O102  1  0.65445413  0.16523555  0.42535113  1
  O  O103  1  0.51267164  0.34675491  0.42297020  1
  O  O104  1  0.83480150  0.48958654  0.42642490  1
  O  O105  1  0.36032962  0.48981745  0.07483925  1
  O  O106  1  0.11576663  0.63186968  0.07469706  1
  O  O107  1  0.53705746  0.86422163  0.07507091  1
  O  O108  1  0.35230218  0.86544925  0.57615006  1
  O  O109  1  0.53744094  0.67216965  0.57855130  1
  O  O110  1  0.11455180  0.48162826  0.57846614  1
  O  O111  1  0.31804717  0.83335983  0.25596573  1
  O  O112  1  0.52107159  0.68767343  0.25280912  1
  O  O113  1  0.16451382  0.48194103  0.25289477  1
  O  O114  1  0.30619436  0.49891184  0.76323255  1
  O  O115  1  0.17389471  0.68266333  0.76234844  1
  O  O116  1  0.51441815  0.81841627  0.76237543  1
