# generated using pymatgen
data_Na3Mg4Ta2P3(SO6)6
_symmetry_space_group_name_H-M   'P 1'
_cell_length_a   8.68143619
_cell_length_b   8.68143591
_cell_length_c   22.73213702
_cell_angle_alpha   90.00000000
_cell_angle_beta   90.00000000
_cell_angle_gamma   120.00000103
_symmetry_Int_Tables_number   1
_chemical_formula_structural   Na3Mg4Ta2P3(SO6)6
_chemical_formula_sum   'Na6 Mg8 Ta4 P6 S12 O72'
_cell_volume   1483.72711394
_cell_formula_units_Z   2
loop_
 _symmetry_equiv_pos_site_id
 _symmetry_equiv_pos_as_xyz
  1  'x, y, z'
loop_
 _atom_site_type_symbol
 _atom_site_label
 _atom_site_symmetry_multiplicity
 _atom_site_fract_x
 _atom_site_fract_y
 _atom_site_fract_z
 _atom_site_occupancy
  Na  Na0  1  -0.00000000  -0.00000000  0.49561452  1
  Na  Na1  1  -0.00000000  -0.00000000  0.99561452  1
  Na  Na2  1  0.66666700  0.33333300  0.82907166  1
  Na  Na3  1  0.66666700  0.33333300  0.32907166  1
  Na  Na4  1  0.33333300  0.66666700  0.16189174  1
  Na  Na5  1  0.33333300  0.66666700  0.66189174  1
  Mg  Mg6  1  -0.00000000  -0.00000000  0.35379168  1
  Mg  Mg7  1  -0.00000000  -0.00000000  0.85379168  1
  Mg  Mg8  1  -0.00000000  -0.00000000  0.64746978  1
  Mg  Mg9  1  -0.00000000  -0.00000000  0.14746978  1
  Mg  Mg10  1  0.66666700  0.33333300  0.68480525  1
  Mg  Mg11  1  0.66666700  0.33333300  0.18480525  1
  Mg  Mg12  1  0.33333300  0.66666700  0.01764529  1
  Mg  Mg13  1  0.33333300  0.66666700  0.51764529  1
  Ta  Ta14  1  0.66666700  0.33333300  0.97724724  1
  Ta  Ta15  1  0.66666700  0.33333300  0.47724724  1
  Ta  Ta16  1  0.33333300  0.66666700  0.31685332  1
  Ta  Ta17  1  0.33333300  0.66666700  0.81685332  1
  P  P18  1  0.62672777  0.67379559  0.91958354  1
  P  P19  1  0.04706682  0.37327223  0.91958354  1
  P  P20  1  0.32620441  0.95293318  0.91958354  1
  P  P21  1  0.62672777  0.95293318  0.41958354  1
  P  P22  1  0.32620441  0.37327223  0.41958354  1
  P  P23  1  0.04706682  0.67379559  0.41958354  1
  S  S24  1  0.29170475  0.00222240  0.25008847  1
  S  S25  1  0.71051765  0.70829525  0.25008847  1
  S  S26  1  0.99777760  0.28948235  0.25008847  1
  S  S27  1  0.29170475  0.28948235  0.75008847  1
  S  S28  1  0.99777760  0.70829525  0.75008847  1
  S  S29  1  0.71051765  0.00222240  0.75008847  1
  S  S30  1  0.95855540  0.33411282  0.58464970  1
  S  S31  1  0.37555842  0.04144460  0.58464970  1
  S  S32  1  0.66588718  0.62444158  0.58464970  1
  S  S33  1  0.95855540  0.62444158  0.08464970  1
  S  S34  1  0.66588718  0.04144460  0.08464970  1
  S  S35  1  0.37555842  0.33411282  0.08464970  1
  O  O36  1  0.21036064  0.02387734  0.30299159  1
  O  O37  1  0.81351671  0.78963936  0.30299159  1
  O  O38  1  0.97612266  0.18648329  0.30299159  1
  O  O39  1  0.21036064  0.18648329  0.80299159  1
  O  O40  1  0.97612266  0.78963936  0.80299159  1
  O  O41  1  0.81351671  0.02387734  0.80299159  1
  O  O42  1  0.78276205  0.96733738  0.69666563  1
  O  O43  1  0.18457533  0.21723795  0.69666563  1
  O  O44  1  0.03266262  0.81542467  0.69666563  1
  O  O45  1  0.78276205  0.81542467  0.19666563  1
  O  O46  1  0.03266262  0.21723795  0.19666563  1
  O  O47  1  0.18457533  0.96733738  0.19666563  1
  O  O48  1  0.87308715  0.35744170  0.63647848  1
  O  O49  1  0.48435556  0.12691285  0.63647848  1
  O  O50  1  0.64255830  0.51564444  0.63647848  1
  O  O51  1  0.87308715  0.51564444  0.13647848  1
  O  O52  1  0.64255830  0.12691285  0.13647848  1
  O  O53  1  0.48435556  0.35744170  0.13647848  1
  O  O54  1  0.46931368  0.31246965  0.03007367  1
  O  O55  1  0.84315698  0.53068632  0.03007367  1
  O  O56  1  0.68753035  0.15684302  0.03007367  1
  O  O57  1  0.46931368  0.15684302  0.53007367  1
  O  O58  1  0.68753035  0.53068632  0.53007367  1
  O  O59  1  0.84315698  0.31246965  0.53007367  1
  O  O60  1  0.54036539  0.69438566  0.97337504  1
  O  O61  1  0.15401926  0.45963461  0.97337504  1
  O  O62  1  0.30561434  0.84598074  0.97337504  1
  O  O63  1  0.54036539  0.84598074  0.47337504  1
  O  O64  1  0.30561434  0.45963461  0.47337504  1
  O  O65  1  0.15401926  0.69438566  0.47337504  1
  O  O66  1  0.13224312  0.63477458  0.36264075  1
  O  O67  1  0.50253046  0.86775688  0.36264075  1
  O  O68  1  0.36522542  0.49746954  0.36264075  1
  O  O69  1  0.13224312  0.49746954  0.86264075  1
  O  O70  1  0.36522542  0.86775688  0.86264075  1
  O  O71  1  0.50253046  0.63477458  0.86264075  1
  O  O72  1  0.01532928  0.82500264  0.40771935  1
  O  O73  1  0.80967336  0.98467072  0.40771935  1
  O  O74  1  0.17499736  0.19032664  0.40771935  1
  O  O75  1  0.01532928  0.19032664  0.90771935  1
  O  O76  1  0.17499736  0.98467072  0.90771935  1
  O  O77  1  0.80967336  0.82500264  0.90771935  1
  O  O78  1  0.96868756  0.16992022  0.58693305  1
  O  O79  1  0.20123266  0.03131244  0.58693305  1
  O  O80  1  0.83007978  0.79876734  0.58693305  1
  O  O81  1  0.96868756  0.79876734  0.08693305  1
  O  O82  1  0.83007978  0.03131244  0.08693305  1
  O  O83  1  0.20123266  0.16992022  0.08693305  1
  O  O84  1  0.68171960  0.15523480  0.74391899  1
  O  O85  1  0.47351619  0.31828040  0.74391899  1
  O  O86  1  0.84476520  0.52648381  0.74391899  1
  O  O87  1  0.68171960  0.52648381  0.24391899  1
  O  O88  1  0.84476520  0.31828040  0.24391899  1
  O  O89  1  0.47351619  0.15523480  0.24391899  1
  O  O90  1  0.63593647  0.49481824  0.92503440  1
  O  O91  1  0.85888278  0.36406353  0.92503440  1
  O  O92  1  0.50518176  0.14111722  0.92503440  1
  O  O93  1  0.63593647  0.14111722  0.42503440  1
  O  O94  1  0.50518176  0.36406353  0.42503440  1
  O  O95  1  0.85888278  0.49481824  0.42503440  1
  O  O96  1  0.35938604  0.49312335  0.07724291  1
  O  O97  1  0.13373631  0.64061396  0.07724291  1
  O  O98  1  0.50687665  0.86626369  0.07724291  1
  O  O99  1  0.35938604  0.86626369  0.57724291  1
  O  O100  1  0.50687665  0.64061396  0.57724291  1
  O  O101  1  0.13373631  0.49312335  0.57724291  1
  O  O102  1  0.31088861  0.83491497  0.25780758  1
  O  O103  1  0.52402536  0.68911139  0.25780758  1
  O  O104  1  0.16508503  0.47597464  0.25780758  1
  O  O105  1  0.31088861  0.47597464  0.75780758  1
  O  O106  1  0.16508503  0.68911139  0.75780758  1
  O  O107  1  0.52402536  0.83491497  0.75780758  1
