# generated using pymatgen
data_IF5
_symmetry_space_group_name_H-M   'P 1'
_cell_length_a   6.80091747
_cell_length_b   8.19876850
_cell_length_c   17.99115205
_cell_angle_alpha   92.76282797
_cell_angle_beta   90.00000000
_cell_angle_gamma   114.50372359
_symmetry_Int_Tables_number   1
_chemical_formula_structural   IF5
_chemical_formula_sum   'I10 F50'
_cell_volume   911.53836109
_cell_formula_units_Z   10
loop_
 _symmetry_equiv_pos_site_id
 _symmetry_equiv_pos_as_xyz
  1  'x, y, z'
loop_
 _atom_site_type_symbol
 _atom_site_label
 _atom_site_symmetry_multiplicity
 _atom_site_fract_x
 _atom_site_fract_y
 _atom_site_fract_z
 _atom_site_occupancy
  I  I0  1  0.89844380  0.42944673  0.84553854  1
  I  I1  1  0.46899607  0.57055327  0.65446146  1
  I  I2  1  0.10155620  0.57055327  0.15446146  1
  I  I3  1  0.53100393  0.42944673  0.34553854  1
  I  I4  1  0.79451019  0.21101262  0.55306867  1
  I  I5  1  0.58349858  0.78898738  0.94693133  1
  I  I6  1  0.20548981  0.78898738  0.44693133  1
  I  I7  1  0.41650142  0.21101262  0.05306867  1
  I  I8  1  0.25707048  -0.00000000  0.75000000  1
  I  I9  1  0.74292952  -0.00000000  0.25000000  1
  F  F10  1  0.69639689  0.34506560  0.92342345  1
  F  F11  1  0.35133129  0.65493440  0.57657655  1
  F  F12  1  0.30360311  0.65493440  0.07657655  1
  F  F13  1  0.64866871  0.34506560  0.42342345  1
  F  F14  1  0.11148021  0.57125303  0.91860809  1
  F  F15  1  0.54022718  0.42874697  0.58139191  1
  F  F16  1  0.88851979  0.42874697  0.08139191  1
  F  F17  1  0.45977282  0.57125303  0.41860809  1
  F  F18  1  0.12372702  0.45509854  0.77828634  1
  F  F19  1  0.66862848  0.54490146  0.72171366  1
  F  F20  1  0.01210744  -0.00000000  0.25000000  1
  F  F21  1  0.98789256  -0.00000000  0.75000000  1
  F  F22  1  0.89357130  0.21272206  0.19757026  1
  F  F23  1  0.68084924  0.78727794  0.30242974  1
  F  F24  1  0.10642870  0.78727794  0.80242974  1
  F  F25  1  0.31915076  0.21272206  0.69757026  1
  F  F26  1  0.85382375  0.13759794  0.33985399  1
  F  F27  1  0.71622680  0.86240206  0.16014601  1
  F  F28  1  0.14617625  0.86240206  0.66014601  1
  F  F29  1  0.28377320  0.13759794  0.83985399  1
  F  F30  1  0.14141719  0.11894467  0.08843768  1
  F  F31  1  0.02247252  0.88105533  0.41156232  1
  F  F32  1  0.85858281  0.88105533  0.91156232  1
  F  F33  1  0.97752748  0.11894467  0.58843768  1
  F  F34  1  0.29485025  -0.00344217  0.99113690  1
  F  F35  1  0.29829243  0.00344217  0.50886310  1
  F  F36  1  0.70514975  0.00344217  0.00886310  1
  F  F37  1  0.70170757  -0.00344217  0.49113690  1
  F  F38  1  0.29407211  0.32411451  0.99001269  1
  F  F39  1  0.96995760  0.67588549  0.50998731  1
  F  F40  1  0.70592789  0.67588549  0.00998731  1
  F  F41  1  0.03004240  0.32411451  0.49001269  1
  F  F42  1  0.44753671  0.39445610  0.12744152  1
  F  F43  1  0.05308162  0.60554390  0.37255848  1
  F  F44  1  0.55246329  0.60554390  0.87255848  1
  F  F45  1  0.94691838  0.39445610  0.62744152  1
  F  F46  1  0.45610966  0.07531198  0.13033668  1
  F  F47  1  0.38079968  0.92468802  0.36966332  1
  F  F48  1  0.54389034  0.92468802  0.86966332  1
  F  F49  1  0.61920032  0.07531198  0.63033668  1
  F  F50  1  0.28315444  0.25466719  0.37794937  1
  F  F51  1  0.02848725  0.74533281  0.12205063  1
  F  F52  1  0.71684556  0.74533281  0.62205063  1
  F  F53  1  0.97151275  0.25466719  0.87794937  1
  F  F54  1  0.52528339  0.23584150  0.28139589  1
  F  F55  1  0.28944189  0.76415850  0.21860411  1
  F  F56  1  0.47471661  0.76415850  0.71860411  1
  F  F57  1  0.71055811  0.23584150  0.78139589  1
  F  F58  1  0.33137152  0.45509854  0.27828634  1
  F  F59  1  0.87627298  0.54490146  0.22171366  1
