# generated using pymatgen
data_Sm2Si2O7
_symmetry_space_group_name_H-M   'P 1'
_cell_length_a   6.67235256
_cell_length_b   6.67235256
_cell_length_c   24.31582009
_cell_angle_alpha   90.00000000
_cell_angle_beta   90.00000000
_cell_angle_gamma   90.00000000
_symmetry_Int_Tables_number   1
_chemical_formula_structural   Sm2Si2O7
_chemical_formula_sum   'Sm16 Si16 O56'
_cell_volume   1082.54733002
_cell_formula_units_Z   8
loop_
 _symmetry_equiv_pos_site_id
 _symmetry_equiv_pos_as_xyz
  1  'x, y, z'
loop_
 _atom_site_type_symbol
 _atom_site_label
 _atom_site_symmetry_multiplicity
 _atom_site_fract_x
 _atom_site_fract_y
 _atom_site_fract_z
 _atom_site_occupancy
  Sm  Sm0  1  0.86231051  0.25141000  0.63843249  1
  Sm  Sm1  1  0.74859000  0.86231051  0.88843249  1
  Sm  Sm2  1  0.25141000  0.13768949  0.38843249  1
  Sm  Sm3  1  0.13768949  0.74859000  0.13843249  1
  Sm  Sm4  1  0.65425025  0.08575846  0.50166670  1
  Sm  Sm5  1  0.91424154  0.65425025  0.75166670  1
  Sm  Sm6  1  0.08575846  0.34574975  0.25166670  1
  Sm  Sm7  1  0.34574975  0.91424154  0.00166670  1
  Sm  Sm8  1  0.47895772  0.83885209  0.64698376  1
  Sm  Sm9  1  0.16114791  0.47895772  0.89698376  1
  Sm  Sm10  1  0.83885209  0.52104228  0.39698376  1
  Sm  Sm11  1  0.52104228  0.16114791  0.14698376  1
  Sm  Sm12  1  0.21789752  0.71935284  0.50104595  1
  Sm  Sm13  1  0.28064716  0.21789752  0.75104595  1
  Sm  Sm14  1  0.71935284  0.78210248  0.25104595  1
  Sm  Sm15  1  0.78210248  0.28064716  0.00104595  1
  Si  Si16  1  0.98314582  0.72379758  0.62018243  1
  Si  Si17  1  0.27620242  0.98314582  0.87018243  1
  Si  Si18  1  0.72379758  0.01685418  0.37018243  1
  Si  Si19  1  0.01685418  0.27620242  0.12018243  1
  Si  Si20  1  0.72986822  0.62921765  0.51840688  1
  Si  Si21  1  0.37078235  0.72986822  0.76840688  1
  Si  Si22  1  0.62921765  0.27013178  0.26840688  1
  Si  Si23  1  0.27013178  0.37078235  0.01840688  1
  Si  Si24  1  0.39336774  0.31609392  0.61333761  1
  Si  Si25  1  0.68390608  0.39336774  0.86333761  1
  Si  Si26  1  0.31609392  0.60663226  0.36333761  1
  Si  Si27  1  0.60663226  0.68390608  0.11333761  1
  Si  Si28  1  0.14101940  0.25122821  0.51396180  1
  Si  Si29  1  0.74877179  0.14101940  0.76396180  1
  Si  Si30  1  0.25122821  0.85898060  0.26396180  1
  Si  Si31  1  0.85898060  0.74877179  0.01396180  1
  O  O32  1  0.18806942  0.80717589  0.59474022  1
  O  O33  1  0.19282411  0.18806942  0.84474022  1
  O  O34  1  0.80717589  0.81193058  0.34474022  1
  O  O35  1  0.81193058  0.19282411  0.09474022  1
  O  O36  1  0.83370250  0.89289636  0.64351896  1
  O  O37  1  0.10710364  0.83370250  0.89351896  1
  O  O38  1  0.89289636  0.16629750  0.39351896  1
  O  O39  1  0.16629750  0.10710364  0.14351896  1
  O  O40  1  0.00801771  0.55440945  0.66659807  1
  O  O41  1  0.44559055  0.00801771  0.91659807  1
  O  O42  1  0.55440945  0.99198229  0.41659807  1
  O  O43  1  0.99198229  0.44559055  0.16659807  1
  O  O44  1  0.88104635  0.58472548  0.57038007  1
  O  O45  1  0.41527452  0.88104635  0.82038007  1
  O  O46  1  0.58472548  0.11895365  0.32038007  1
  O  O47  1  0.11895365  0.41527452  0.07038007  1
  O  O48  1  0.86392806  0.77070679  0.47724015  1
  O  O49  1  0.22929321  0.86392806  0.72724015  1
  O  O50  1  0.77070679  0.13607194  0.22724015  1
  O  O51  1  0.13607194  0.22929321  0.97724015  1
  O  O52  1  0.54353659  0.76754162  0.53795406  1
  O  O53  1  0.55173084  0.14160224  0.59361931  1
  O  O54  1  0.23245838  0.54353659  0.78795406  1
  O  O55  1  0.45646341  0.23245838  0.03795406  1
  O  O56  1  0.67012354  0.42770520  0.48708469  1
  O  O57  1  0.57229480  0.67012354  0.73708469  1
  O  O58  1  0.42770520  0.32987646  0.23708469  1
  O  O59  1  0.32987646  0.57229480  0.98708469  1
  O  O60  1  0.23183582  0.21187473  0.65400631  1
  O  O61  1  0.78812527  0.23183582  0.90400631  1
  O  O62  1  0.21187473  0.76816418  0.40400631  1
  O  O63  1  0.76816418  0.78812527  0.15400631  1
  O  O64  1  0.89373401  0.59348587  0.96331764  1
  O  O65  1  0.40651413  0.89373401  0.21331764  1
  O  O66  1  0.59348587  0.10626599  0.71331764  1
  O  O67  1  0.10626599  0.40651413  0.46331764  1
  O  O68  1  0.72452984  0.92953516  0.98888460  1
  O  O69  1  0.07046484  0.72452984  0.23888460  1
  O  O70  1  0.92953516  0.27547016  0.73888460  1
  O  O71  1  0.27547016  0.07046484  0.48888460  1
  O  O72  1  0.05105778  0.83382153  0.04627645  1
  O  O73  1  0.16617847  0.05105778  0.29627645  1
  O  O74  1  0.83382153  0.94894222  0.79627645  1
  O  O75  1  0.94894222  0.16617847  0.54627645  1
  O  O76  1  0.72553169  0.60932424  0.05675633  1
  O  O77  1  0.39067576  0.72553169  0.30675633  1
  O  O78  1  0.60932424  0.27446831  0.80675633  1
  O  O79  1  0.27446831  0.39067576  0.55675633  1
  O  O80  1  0.46918850  0.50712358  0.13678451  1
  O  O81  1  0.49287642  0.46918850  0.38678451  1
  O  O82  1  0.50712358  0.53081150  0.88678451  1
  O  O83  1  0.53081150  0.49287642  0.63678451  1
  O  O84  1  0.44826916  0.85839776  0.09361931  1
  O  O85  1  0.14160224  0.44826916  0.34361931  1
  O  O86  1  0.85839776  0.55173084  0.84361931  1
  O  O87  1  0.76754162  0.45646341  0.28795406  1
