# generated using pymatgen
data_BaMgMn4O8
_symmetry_space_group_name_H-M   'P 1'
_cell_length_a   3.27524891
_cell_length_b   7.46695023
_cell_length_c   7.49098830
_cell_angle_alpha   84.63133526
_cell_angle_beta   77.37244381
_cell_angle_gamma   77.33111947
_symmetry_Int_Tables_number   1
_chemical_formula_structural   BaMgMn4O8
_chemical_formula_sum   'Ba1 Mg1 Mn4 O8'
_cell_volume   174.21652119
_cell_formula_units_Z   1
loop_
 _symmetry_equiv_pos_site_id
 _symmetry_equiv_pos_as_xyz
  1  'x, y, z'
loop_
 _atom_site_type_symbol
 _atom_site_label
 _atom_site_symmetry_multiplicity
 _atom_site_fract_x
 _atom_site_fract_y
 _atom_site_fract_z
 _atom_site_occupancy
  Ba  Ba0  1  0.49780300  0.00000000  0.00000000  1
  Mg  Mg1  1  0.60246800  0.50000000  0.50000000  1
  Mn  Mn2  1  0.23430700  0.84076200  0.46252200  1
  Mn  Mn3  1  0.53759100  0.15923800  0.53747800  1
  Mn  Mn4  1  0.25234600  0.49625400  0.16732600  1
  Mn  Mn5  1  0.91592500  0.50374600  0.83267400  1
  O  O6  1  0.33043900  0.64969900  0.94369900  1
  O  O7  1  0.19407700  0.34538900  0.39764100  1
  O  O8  1  0.01845600  0.01775700  0.65342000  1
  O  O9  1  0.93710700  0.65461100  0.60235900  1
  O  O10  1  0.46481300  0.33764700  0.72374000  1
  O  O11  1  0.92383400  0.35030100  0.05630100  1
  O  O12  1  0.68963300  0.98224300  0.34658000  1
  O  O13  1  0.52620100  0.66235300  0.27626000  1
