# generated using pymatgen
data_Na3Ta2Si3Ge2(PO8)3
_symmetry_space_group_name_H-M   'P 1'
_cell_length_a   8.68169385
_cell_length_b   8.69247937
_cell_length_c   22.28249953
_cell_angle_alpha   90.41905471
_cell_angle_beta   89.38159761
_cell_angle_gamma   120.06368297
_symmetry_Int_Tables_number   1
_chemical_formula_structural   Na3Ta2Si3Ge2(PO8)3
_chemical_formula_sum   'Na9 Ta6 Si9 Ge6 P9 O72'
_cell_volume   1455.24887659
_cell_formula_units_Z   3
loop_
 _symmetry_equiv_pos_site_id
 _symmetry_equiv_pos_as_xyz
  1  'x, y, z'
loop_
 _atom_site_type_symbol
 _atom_site_label
 _atom_site_symmetry_multiplicity
 _atom_site_fract_x
 _atom_site_fract_y
 _atom_site_fract_z
 _atom_site_occupancy
  Na  Na0  1  0.99958307  0.63259982  0.25070040  1
  Na  Na1  1  0.66520976  0.96697649  0.58375576  1
  Na  Na2  1  0.66742890  0.70090004  0.08297288  1
  Na  Na3  1  0.01016904  0.99934931  0.50169764  1
  Na  Na4  1  0.00983269  0.01017363  0.00196190  1
  Na  Na5  1  0.67059558  0.33613951  0.83346085  1
  Na  Na6  1  0.65869095  0.32477203  0.33112979  1
  Na  Na7  1  0.33326459  0.66663746  0.16683857  1
  Na  Na8  1  0.32419498  0.66164525  0.66505375  1
  Ta  Ta9  1  0.99591994  0.99342594  0.35581580  1
  Ta  Ta10  1  0.98976581  0.99427269  0.85804090  1
  Ta  Ta11  1  0.66736958  0.33023405  0.68799724  1
  Ta  Ta12  1  0.67110509  0.33945569  0.97952632  1
  Ta  Ta13  1  0.66339504  0.33116293  0.47595940  1
  Ta  Ta14  1  0.33236350  0.66606865  0.80913400  1
  Si  Si15  1  0.70023623  0.70585546  0.24709059  1
  Si  Si16  1  0.00062969  0.71721960  0.74740953  1
  Si  Si17  1  0.72029714  0.99908915  0.74629252  1
  Si  Si18  1  0.36207037  0.03459613  0.58303845  1
  Si  Si19  1  0.96717979  0.62871660  0.08697581  1
  Si  Si20  1  0.60846440  0.66472904  0.92082284  1
  Si  Si21  1  0.05472570  0.38485804  0.91941732  1
  Si  Si22  1  0.60796631  0.94106365  0.41713184  1
  Si  Si23  1  0.06008985  0.66597989  0.41520514  1
  Ge  Ge24  1  0.00607811  0.99484357  0.64722194  1
  Ge  Ge25  1  0.99816077  0.99735186  0.14822992  1
  Ge  Ge26  1  0.66852685  0.33605143  0.18547534  1
  Ge  Ge27  1  0.32467867  0.66429719  0.02056344  1
  Ge  Ge28  1  0.33083589  0.67206762  0.51923313  1
  Ge  Ge29  1  0.34113713  0.66932699  0.31378623  1
  P  P30  1  0.29453599  0.00524145  0.24700364  1
  P  P31  1  0.99957962  0.28584253  0.24753879  1
  P  P32  1  0.27878346  0.27957303  0.74793771  1
  P  P33  1  0.96641637  0.33789487  0.58174572  1
  P  P34  1  0.66413789  0.62521675  0.58285661  1
  P  P35  1  0.66709668  0.04656519  0.08640893  1
  P  P36  1  0.37139732  0.32818719  0.08683133  1
  P  P37  1  0.33303120  0.94897694  0.91926489  1
  P  P38  1  0.33212074  0.39086909  0.41706674  1
  O  O39  1  0.21099238  0.03833390  0.30405759  1
  O  O40  1  0.83718920  0.79915880  0.30452343  1
  O  O41  1  0.97222863  0.17189049  0.30396027  1
  O  O42  1  0.20213860  0.17070936  0.80552141  1
  O  O43  1  0.97108608  0.80293732  0.80856535  1
  O  O44  1  0.83759551  0.03388454  0.80683632  1
  O  O45  1  0.80574731  0.97125949  0.68480368  1
  O  O46  1  0.16634601  0.20182793  0.69159521  1
  O  O47  1  0.03959884  0.83781448  0.68845453  1
  O  O48  1  0.79164822  0.83061544  0.18773426  1
  O  O49  1  0.03483891  0.20164034  0.19134119  1
  O  O50  1  0.16751795  0.96333729  0.19266156  1
  O  O51  1  0.87744028  0.36914526  0.63826216  1
  O  O52  1  0.49954433  0.13000933  0.63952930  1
  O  O53  1  0.63879891  0.50897786  0.63854143  1
  O  O54  1  0.87466636  0.50239492  0.14586716  1
  O  O55  1  0.63149980  0.13153546  0.14224317  1
  O  O56  1  0.49940773  0.37004199  0.14089530  1
  O  O57  1  0.45501918  0.29497822  0.02973459  1
  O  O58  1  0.83021482  0.53568549  0.02956401  1
  O  O59  1  0.69473309  0.16084982  0.02997667  1
  O  O60  1  0.46511263  0.16399198  0.52546827  1
  O  O61  1  0.69656481  0.53814362  0.52707702  1
  O  O62  1  0.84052866  0.30332626  0.52761270  1
  O  O63  1  0.53082775  0.70280256  0.98258552  1
  O  O64  1  0.17281298  0.47056037  0.97840606  1
  O  O65  1  0.29875753  0.83568384  0.97546133  1
  O  O66  1  0.53827108  0.82995255  0.47957316  1
  O  O67  1  0.29881674  0.46736445  0.47464626  1
  O  O68  1  0.17411900  0.70200969  0.47546004  1
  O  O69  1  0.13415925  0.62837213  0.35196206  1
  O  O70  1  0.49163742  0.86231428  0.35723700  1
  O  O71  1  0.36921991  0.50092153  0.35948412  1
  O  O72  1  0.13322745  0.50174878  0.85849970  1
  O  O73  1  0.36520853  0.86951327  0.86132929  1
  O  O74  1  0.49751297  0.63788417  0.85999949  1
  O  O75  1  0.03873008  0.84391901  0.40836303  1
  O  O76  1  0.81177178  0.97417801  0.40935184  1
  O  O77  1  0.16857671  0.20187189  0.40964659  1
  O  O78  1  0.03495669  0.18951352  0.91295899  1
  O  O79  1  0.16952362  0.97196034  0.91206451  1
  O  O80  1  0.80961835  0.83698902  0.91484840  1
  O  O81  1  0.97163973  0.16415185  0.58841345  1
  O  O82  1  0.17226802  0.02705676  0.58934365  1
  O  O83  1  0.82958333  0.81402366  0.58776158  1
  O  O84  1  0.97435258  0.82198899  0.09232207  1
  O  O85  1  0.83743338  0.02997240  0.09109419  1
  O  O86  1  0.18609273  0.16142090  0.09395651  1
  O  O87  1  0.69541403  0.17371098  0.74210205  1
  O  O88  1  0.46777709  0.30353996  0.74107482  1
  O  O89  1  0.82247846  0.52160575  0.74208170  1
  O  O90  1  0.69261450  0.51210166  0.24133433  1
  O  O91  1  0.82921907  0.30298124  0.24253304  1
  O  O92  1  0.48017043  0.17195286  0.23964087  1
  O  O93  1  0.62999855  0.48807770  0.92538434  1
  O  O94  1  0.85250472  0.35529614  0.92544624  1
  O  O95  1  0.50027125  0.13484906  0.92544672  1
  O  O96  1  0.63519595  0.14203430  0.42343516  1
  O  O97  1  0.49966106  0.36958305  0.42350219  1
  O  O98  1  0.85754565  0.49626110  0.42308098  1
  O  O99  1  0.36315185  0.50170866  0.08040385  1
  O  O100  1  0.16198645  0.64867083  0.07744596  1
  O  O101  1  0.50373765  0.85694975  0.08018020  1
  O  O102  1  0.35776498  0.84393417  0.57751409  1
  O  O103  1  0.49463013  0.64014919  0.57784729  1
  O  O104  1  0.15022456  0.50308772  0.57545326  1
  O  O105  1  0.30366219  0.83183095  0.25342858  1
  O  O106  1  0.50478763  0.68531124  0.25682483  1
  O  O107  1  0.16300659  0.47609757  0.25354328  1
  O  O108  1  0.30341300  0.46785508  0.75393501  1
  O  O109  1  0.17327759  0.69190476  0.75367439  1
  O  O110  1  0.52420006  0.82498196  0.75316378  1
