# generated using pymatgen
data_LaSO
_symmetry_space_group_name_H-M   'P 1'
_cell_length_a   5.93867456
_cell_length_b   5.94314119
_cell_length_c   13.24005805
_cell_angle_alpha   90.00000000
_cell_angle_beta   90.00000000
_cell_angle_gamma   90.00000000
_symmetry_Int_Tables_number   1
_chemical_formula_structural   LaSO
_chemical_formula_sum   'La8 S8 O8'
_cell_volume   467.29965846
_cell_formula_units_Z   8
loop_
 _symmetry_equiv_pos_site_id
 _symmetry_equiv_pos_as_xyz
  1  'x, y, z'
loop_
 _atom_site_type_symbol
 _atom_site_label
 _atom_site_symmetry_multiplicity
 _atom_site_fract_x
 _atom_site_fract_y
 _atom_site_fract_z
 _atom_site_occupancy
  La  La0  1  0.49972045  0.24999224  0.08879499  1
  La  La1  1  0.50027955  0.75000776  0.58879499  1
  La  La2  1  0.00027955  0.24999224  0.91120501  1
  La  La3  1  0.00027955  0.24999224  0.58879499  1
  La  La4  1  0.49972045  0.24999224  0.41120501  1
  La  La5  1  0.50027955  0.75000776  0.91120501  1
  La  La6  1  0.99972045  0.75000776  0.41120501  1
  La  La7  1  0.99972045  0.75000776  0.08879499  1
  S  S8  1  0.87568805  0.62558888  0.75000000  1
  S  S9  1  0.12517542  0.87447820  0.75000000  1
  S  S10  1  0.62431195  0.62558888  0.25000000  1
  S  S11  1  0.37482458  0.87447820  0.25000000  1
  S  S12  1  0.62517542  0.12552180  0.75000000  1
  S  S13  1  0.87482458  0.12552180  0.25000000  1
  S  S14  1  0.12431195  0.37441112  0.25000000  1
  S  S15  1  0.37568805  0.37441112  0.75000000  1
  O  O16  1  0.25000000  0.00603378  -0.00000000  1
  O  O17  1  0.75000000  0.99396622  0.50000000  1
  O  O18  1  0.25000000  0.00603378  0.50000000  1
  O  O19  1  0.75000000  0.49387392  -0.00000000  1
  O  O20  1  0.25000000  0.50612608  0.50000000  1
  O  O21  1  0.75000000  0.49387392  0.50000000  1
  O  O22  1  0.75000000  0.99396622  -0.00000000  1
  O  O23  1  0.25000000  0.50612608  -0.00000000  1
