# generated using pymatgen
data_ScAl(SO4)3
_symmetry_space_group_name_H-M   'P 1'
_cell_length_a   8.54383423
_cell_length_b   8.54383397
_cell_length_c   22.23360716
_cell_angle_alpha   90.00000000
_cell_angle_beta   90.00000000
_cell_angle_gamma   120.00000097
_symmetry_Int_Tables_number   1
_chemical_formula_structural   ScAl(SO4)3
_chemical_formula_sum   'Sc6 Al6 S18 O72'
_cell_volume   1405.54957774
_cell_formula_units_Z   6
loop_
 _symmetry_equiv_pos_site_id
 _symmetry_equiv_pos_as_xyz
  1  'x, y, z'
loop_
 _atom_site_type_symbol
 _atom_site_label
 _atom_site_symmetry_multiplicity
 _atom_site_fract_x
 _atom_site_fract_y
 _atom_site_fract_z
 _atom_site_occupancy
  Sc  Sc0  1  0.00000000  0.00000000  0.85199972  1
  Sc  Sc1  1  0.66666700  0.33333300  0.98133328  1
  Sc  Sc2  1  0.33333300  0.66666700  0.02622227  1
  Sc  Sc3  1  0.33333300  0.66666700  0.52264286  1
  Sc  Sc4  1  0.33333300  0.66666700  0.31069114  1
  Sc  Sc5  1  0.33333300  0.66666700  0.80711173  1
  Al  Al6  1  0.00000000  0.00000000  0.35227556  1
  Al  Al7  1  0.00000000  0.00000000  0.64459268  1
  Al  Al8  1  0.00000000  0.00000000  0.14777134  1
  Al  Al9  1  0.66666700  0.33333300  0.68556166  1
  Al  Al10  1  0.66666700  0.33333300  0.18874032  1
  Al  Al11  1  0.66666700  0.33333300  0.48105744  1
  S  S12  1  0.28668003  0.00994214  0.24820533  1
  S  S13  1  0.72326211  0.71331997  0.24820533  1
  S  S14  1  0.99005786  0.27673789  0.24820533  1
  S  S15  1  0.29453643  0.28352584  0.74440539  1
  S  S16  1  0.98898941  0.70546357  0.74440539  1
  S  S17  1  0.71647416  0.01101059  0.74440539  1
  S  S18  1  0.94340489  0.32339086  0.58512767  1
  S  S19  1  0.37998697  0.05659511  0.58512767  1
  S  S20  1  0.67660914  0.62001303  0.58512767  1
  S  S21  1  0.95019284  0.62786943  0.08892761  1
  S  S22  1  0.67767759  0.04980716  0.08892761  1
  S  S23  1  0.37213057  0.32232241  0.08892761  1
  S  S24  1  0.62332346  0.66666700  0.91666700  1
  S  S25  1  0.04334254  0.37667654  0.91666700  1
  S  S26  1  0.33333300  0.95665746  0.91666700  1
  S  S27  1  0.63592524  0.96925924  0.41666700  1
  S  S28  1  0.33333300  0.36407476  0.41666700  1
  S  S29  1  0.03074076  0.66666700  0.41666700  1
  O  O30  1  0.20474913  0.03994535  0.30274311  1
  O  O31  1  0.83519622  0.79525087  0.30274311  1
  O  O32  1  0.96005465  0.16480378  0.30274311  1
  O  O33  1  0.22086179  0.17612417  0.80003161  1
  O  O34  1  0.95526239  0.77913821  0.80003161  1
  O  O35  1  0.82387583  0.04473761  0.80003161  1
  O  O36  1  0.80521683  0.97787904  0.69289672  1
  O  O37  1  0.17266221  0.19478317  0.69289672  1
  O  O38  1  0.02212096  0.82733779  0.69289672  1
  O  O39  1  0.80631255  0.82937261  0.19516124  1
  O  O40  1  0.02306006  0.19368745  0.19516124  1
  O  O41  1  0.17062739  0.97693994  0.19516124  1
  O  O42  1  0.86035445  0.35639306  0.63817176  1
  O  O43  1  0.49603961  0.13964555  0.63817176  1
  O  O44  1  0.64360694  0.50396039  0.63817176  1
  O  O45  1  0.86145017  0.50599521  0.14043628  1
  O  O46  1  0.64454604  0.13854983  0.14043628  1
  O  O47  1  0.49400479  0.35545396  0.14043628  1
  O  O48  1  0.44580521  0.28859539  0.03330139  1
  O  O49  1  0.84279117  0.55419479  0.03330139  1
  O  O50  1  0.71140461  0.15720883  0.03330139  1
  O  O51  1  0.46191787  0.16852922  0.53058989  1
  O  O52  1  0.70661235  0.53808213  0.53058989  1
  O  O53  1  0.83147078  0.29338765  0.53058989  1
  O  O54  1  0.54117686  0.69548282  0.97086617  1
  O  O55  1  0.15430496  0.45882314  0.97086617  1
  O  O56  1  0.30451718  0.84569504  0.97086617  1
  O  O57  1  0.55623669  0.85101251  0.47006141  1
  O  O58  1  0.29477482  0.44376331  0.47006141  1
  O  O59  1  0.14898749  0.70522518  0.47006141  1
  O  O60  1  0.11042931  0.62810882  0.36327259  1
  O  O61  1  0.51767851  0.88957069  0.36327259  1
  O  O62  1  0.37189118  0.48232149  0.36327259  1
  O  O63  1  0.12548914  0.48763896  0.86246783  1
  O  O64  1  0.36214882  0.87451086  0.86246783  1
  O  O65  1  0.51236104  0.63785118  0.86246783  1
  O  O66  1  0.01229255  0.82716810  0.40479114  1
  O  O67  1  0.81487554  0.98770745  0.40479114  1
  O  O68  1  0.17283190  0.18512446  0.40479114  1
  O  O69  1  0.02543797  0.19765274  0.90988535  1
  O  O70  1  0.17221477  0.97456203  0.90988535  1
  O  O71  1  0.80234726  0.82778523  0.90988535  1
  O  O72  1  0.96237789  0.16221116  0.59425331  1
  O  O73  1  0.19983327  0.03762211  0.59425331  1
  O  O74  1  0.83778884  0.80016673  0.59425331  1
  O  O75  1  0.97084918  0.80772627  0.09824924  1
  O  O76  1  0.83687709  0.02915082  0.09824924  1
  O  O77  1  0.19227373  0.16312291  0.09824924  1
  O  O78  1  0.69581782  0.17021009  0.73508376  1
  O  O79  1  0.47439327  0.30418218  0.73508376  1
  O  O80  1  0.82978991  0.52560673  0.73508376  1
  O  O81  1  0.70428911  0.53316627  0.23907969  1
  O  O82  1  0.82887816  0.29571089  0.23907969  1
  O  O83  1  0.46683373  0.17112184  0.23907969  1
  O  O84  1  0.64122903  0.50554777  0.92344765  1
  O  O85  1  0.86431974  0.35877097  0.92344765  1
  O  O86  1  0.49445223  0.13568026  0.92344765  1
  O  O87  1  0.65437445  0.14820854  0.42854186  1
  O  O88  1  0.49383510  0.34562555  0.42854186  1
  O  O89  1  0.85179146  0.50616490  0.42854186  1
  O  O90  1  0.35523431  0.48469992  0.08194353  1
  O  O91  1  0.12946460  0.64476569  0.08194353  1
  O  O92  1  0.51530008  0.87053540  0.08194353  1
  O  O93  1  0.36112858  0.87620330  0.57754771  1
  O  O94  1  0.51507373  0.63887142  0.57754771  1
  O  O95  1  0.12379670  0.48492627  0.57754771  1
  O  O96  1  0.30553742  0.84840773  0.25578629  1
  O  O97  1  0.54286930  0.69446258  0.25578629  1
  O  O98  1  0.15159227  0.45713070  0.25578629  1
  O  O99  1  0.31143169  0.46279860  0.75139047  1
  O  O100  1  0.15136592  0.68856831  0.75139047  1
  O  O101  1  0.53720140  0.84863408  0.75139047  1
