# generated using pymatgen
data_Na5Y2Al2P5SO24
_symmetry_space_group_name_H-M   'P 1'
_cell_length_a   8.92386904
_cell_length_b   8.86530756
_cell_length_c   22.46892505
_cell_angle_alpha   90.53438643
_cell_angle_beta   89.72349105
_cell_angle_gamma   119.93628946
_symmetry_Int_Tables_number   1
_chemical_formula_structural   Na5Y2Al2P5SO24
_chemical_formula_sum   'Na15 Y6 Al6 P15 S3 O72'
_cell_volume   1540.35023485
_cell_formula_units_Z   3
loop_
 _symmetry_equiv_pos_site_id
 _symmetry_equiv_pos_as_xyz
  1  'x, y, z'
loop_
 _atom_site_type_symbol
 _atom_site_label
 _atom_site_symmetry_multiplicity
 _atom_site_fract_x
 _atom_site_fract_y
 _atom_site_fract_z
 _atom_site_occupancy
  Na  Na0  1  0.63648411  0.00142382  0.25031677  1
  Na  Na1  1  0.99845625  0.35588776  0.74962028  1
  Na  Na2  1  0.35715498  0.99848679  0.75000765  1
  Na  Na3  1  0.03561532  0.69837131  0.57640886  1
  Na  Na4  1  0.66225652  0.96535216  0.57969849  1
  Na  Na5  1  0.30758445  0.97878983  0.08745937  1
  Na  Na6  1  0.02459022  0.33219234  0.08797827  1
  Na  Na7  1  0.97233117  0.66430550  0.91959612  1
  Na  Na8  1  0.69730068  0.67049859  0.41507215  1
  Na  Na9  1  0.02385855  0.02133454  0.49048983  1
  Na  Na10  1  0.99522945  0.00511896  0.00846364  1
  Na  Na11  1  0.65349853  0.32198890  0.83654152  1
  Na  Na12  1  0.68274668  0.33975248  0.33105446  1
  Na  Na13  1  0.33798447  0.64637185  0.17126025  1
  Na  Na14  1  0.34848338  0.64917923  0.66298043  1
  Y  Y15  1  0.00133227  0.01222120  0.85943745  1
  Y  Y16  1  0.00415457  0.00169510  0.64178368  1
  Y  Y17  1  0.66625427  0.34504613  0.68174959  1
  Y  Y18  1  0.66317938  0.32628669  0.99281976  1
  Y  Y19  1  0.32724571  0.66313102  0.50367190  1
  Y  Y20  1  0.34286829  0.66901638  0.81837457  1
  Al  Al21  1  0.98231857  0.98841023  0.34422528  1
  Al  Al22  1  0.99054355  0.00085617  0.15454384  1
  Al  Al23  1  0.68131873  0.35963354  0.18226795  1
  Al  Al24  1  0.67814281  0.32647735  0.47805018  1
  Al  Al25  1  0.33208466  0.66958164  0.02525673  1
  Al  Al26  1  0.31880289  0.65721183  0.31559456  1
  P  P27  1  0.70614304  0.70588537  0.24973705  1
  P  P28  1  0.00127513  0.29176924  0.25035786  1
  P  P29  1  0.30162444  0.30043959  0.75065513  1
  P  P30  1  0.99928446  0.69808856  0.75278580  1
  P  P31  1  0.69801926  0.99916152  0.74607373  1
  P  P32  1  0.96038475  0.33526939  0.57718108  1
  P  P33  1  0.38002904  0.04674413  0.57476211  1
  P  P34  1  0.66466021  0.62267850  0.56982977  1
  P  P35  1  0.96942175  0.64377698  0.08742590  1
  P  P36  1  0.66793566  0.02956374  0.09220449  1
  P  P37  1  0.36316746  0.33121519  0.09156300  1
  P  P38  1  0.04686173  0.37946610  0.92667406  1
  P  P39  1  0.33293598  0.95840393  0.92543258  1
  P  P40  1  0.63797064  0.97172370  0.40898026  1
  P  P41  1  0.02933925  0.67150376  0.41101571  1
  S  S42  1  0.28407068  0.99610774  0.25137660  1
  S  S43  1  0.62447089  0.66736371  0.92732408  1
  S  S44  1  0.32570701  0.35576053  0.40716156  1
  O  O45  1  0.18951847  0.01328916  0.30249318  1
  O  O46  1  0.81230812  0.78241643  0.30741321  1
  O  O47  1  0.96455962  0.16080976  0.30103330  1
  O  O48  1  0.20775962  0.19896706  0.80673002  1
  O  O49  1  0.99434248  0.79153308  0.81017952  1
  O  O50  1  0.80869373  0.00868263  0.79963710  1
  O  O51  1  0.78027643  0.99271400  0.68610644  1
  O  O52  1  0.19972993  0.20684763  0.69430022  1
  O  O53  1  0.00763899  0.79693422  0.69531783  1
  O  O54  1  0.80207336  0.83711120  0.19920783  1
  O  O55  1  0.03095106  0.21179777  0.19276405  1
  O  O56  1  0.18593898  0.97561885  0.19556145  1
  O  O57  1  0.89042532  0.35023463  0.63864930  1
  O  O58  1  0.46288436  0.11462033  0.63649356  1
  O  O59  1  0.65498766  0.53551279  0.62907818  1
  O  O60  1  0.86823907  0.50026677  0.13506196  1
  O  O61  1  0.62994749  0.12548493  0.14454989  1
  O  O62  1  0.49409570  0.36107730  0.14208805  1
  O  O63  1  0.42328342  0.27966227  0.03457413  1
  O  O64  1  0.87337869  0.58639640  0.02785184  1
  O  O65  1  0.72068521  0.14600102  0.03668043  1
  O  O66  1  0.49178143  0.16280088  0.52341380  1
  O  O67  1  0.67012997  0.51785677  0.51496293  1
  O  O68  1  0.84356097  0.33173529  0.52605937  1
  O  O69  1  0.52026383  0.66810669  0.97805541  1
  O  O70  1  0.15943185  0.48928504  0.97994231  1
  O  O71  1  0.33381929  0.84707463  0.97850639  1
  O  O72  1  0.57586242  0.86052524  0.46627336  1
  O  O73  1  0.28930373  0.41244112  0.46498955  1
  O  O74  1  0.12037096  0.70784792  0.47194972  1
  O  O75  1  0.13954348  0.64319013  0.36308541  1
  O  O76  1  0.50890758  0.86927096  0.35699497  1
  O  O77  1  0.35825143  0.49111605  0.36096425  1
  O  O78  1  0.12544006  0.46255911  0.86594597  1
  O  O79  1  0.33889053  0.88065291  0.86433966  1
  O  O80  1  0.54636402  0.66085781  0.86961250  1
  O  O81  1  0.00604532  0.83145623  0.39856779  1
  O  O82  1  0.81840571  0.98870859  0.39795152  1
  O  O83  1  0.17463352  0.18356610  0.39438178  1
  O  O84  1  0.02289712  0.19643823  0.93139205  1
  O  O85  1  0.15900350  0.95820234  0.92967735  1
  O  O86  1  0.79806948  0.82574573  0.93042417  1
  O  O87  1  0.96459266  0.16409163  0.57271822  1
  O  O88  1  0.19637775  0.02132450  0.57200164  1
  O  O89  1  0.83597987  0.80157197  0.56919125  1
  O  O90  1  0.99732357  0.82589975  0.10324451  1
  O  O91  1  0.82853074  0.00957922  0.10275942  1
  O  O92  1  0.17930786  0.16884492  0.10265358  1
  O  O93  1  0.68258176  0.16481882  0.75041862  1
  O  O94  1  0.47833111  0.31148677  0.75269844  1
  O  O95  1  0.84355909  0.51276179  0.75448391  1
  O  O96  1  0.68981851  0.52433555  0.23766864  1
  O  O97  1  0.83368936  0.30831738  0.24209912  1
  O  O98  1  0.46140226  0.15096575  0.24851041  1
  O  O99  1  0.64971095  0.51447116  0.92726036  1
  O  O100  1  0.86980532  0.37242878  0.92670725  1
  O  O101  1  0.49013191  0.14279660  0.92541360  1
  O  O102  1  0.65408528  0.15278688  0.41927365  1
  O  O103  1  0.48804736  0.34905912  0.41098818  1
  O  O104  1  0.84467772  0.50530849  0.41648243  1
  O  O105  1  0.34074751  0.49320871  0.08242157  1
  O  O106  1  0.15247561  0.65780832  0.08202057  1
  O  O107  1  0.49963081  0.85231501  0.08130096  1
  O  O108  1  0.36148930  0.86267492  0.57167438  1
  O  O109  1  0.51136857  0.65593903  0.56964630  1
  O  O110  1  0.14052942  0.49825168  0.57377047  1
  O  O111  1  0.30567959  0.83733451  0.25697499  1
  O  O112  1  0.52289705  0.69077620  0.25730850  1
  O  O113  1  0.16387934  0.47444763  0.26210505  1
  O  O114  1  0.31458130  0.47885737  0.74895175  1
  O  O115  1  0.16535725  0.68368495  0.75056402  1
  O  O116  1  0.51422938  0.84155959  0.74682810  1
