# generated using pymatgen
data_Na4Mg(CoO3)2
_symmetry_space_group_name_H-M   'P 1'
_cell_length_a   5.37939703
_cell_length_b   5.37760574
_cell_length_c   7.00385467
_cell_angle_alpha   78.36001487
_cell_angle_beta   101.61704191
_cell_angle_gamma   61.47249344
_symmetry_Int_Tables_number   1
_chemical_formula_structural   Na4Mg(CoO3)2
_chemical_formula_sum   'Na4 Mg1 Co2 O6'
_cell_volume   163.58158078
_cell_formula_units_Z   1
loop_
 _symmetry_equiv_pos_site_id
 _symmetry_equiv_pos_as_xyz
  1  'x, y, z'
loop_
 _atom_site_type_symbol
 _atom_site_label
 _atom_site_symmetry_multiplicity
 _atom_site_fract_x
 _atom_site_fract_y
 _atom_site_fract_z
 _atom_site_occupancy
  Na  Na0  1  0.09802290  0.31812582  0.54260113  1
  Na  Na1  1  0.68173021  0.90250552  0.54248628  1
  Na  Na2  1  0.55285105  0.44749190  0.73451530  1
  Na  Na3  1  0.11081294  0.88864339  0.87943014  1
  Mg  Mg4  1  0.09707894  0.90290490  0.27974793  1
  Co  Co5  1  0.74347836  0.64497001  0.05400454  1
  Co  Co6  1  0.35495713  0.25596400  0.05327201  1
  O  O7  1  0.11956765  0.88049951  0.55844061  1
  O  O8  1  0.13780196  0.52814027  0.22179886  1
  O  O9  1  0.47189819  0.86224492  0.22205058  1
  O  O10  1  0.00234111  0.42044534  0.84534402  1
  O  O11  1  0.57985382  -0.00248219  0.84611557  1
  O  O12  1  0.68710575  0.31304660  0.10114501  1
