# generated using pymatgen
data_Sc2Ti2SiS5O24
_symmetry_space_group_name_H-M   'P 1'
_cell_length_a   8.76891306
_cell_length_b   8.78338928
_cell_length_c   22.67103635
_cell_angle_alpha   90.15005703
_cell_angle_beta   90.06336227
_cell_angle_gamma   119.96780435
_symmetry_Int_Tables_number   1
_chemical_formula_structural   Sc2Ti2SiS5O24
_chemical_formula_sum   'Sc6 Ti6 Si3 S15 O72'
_cell_volume   1512.68161735
_cell_formula_units_Z   3
loop_
 _symmetry_equiv_pos_site_id
 _symmetry_equiv_pos_as_xyz
  1  'x, y, z'
loop_
 _atom_site_type_symbol
 _atom_site_label
 _atom_site_symmetry_multiplicity
 _atom_site_fract_x
 _atom_site_fract_y
 _atom_site_fract_z
 _atom_site_occupancy
  Sc  Sc0  1  0.99503032  0.00180423  0.35987079  1
  Sc  Sc1  1  0.00124400  0.00035935  0.85735632  1
  Sc  Sc2  1  0.67814786  0.33728060  0.68671010  1
  Sc  Sc3  1  0.65908062  0.33706221  0.18662802  1
  Sc  Sc4  1  0.65429327  0.32904190  0.98015587  1
  Sc  Sc5  1  0.33189807  0.66621803  0.80869941  1
  Ti  Ti6  1  0.00039614  0.00882643  0.64133226  1
  Ti  Ti7  1  0.00812704  0.01086287  0.14419883  1
  Ti  Ti8  1  0.67897422  0.32297737  0.47645418  1
  Ti  Ti9  1  0.33212469  0.65846838  0.02329741  1
  Ti  Ti10  1  0.34000555  0.66743024  0.52317417  1
  Ti  Ti11  1  0.34324368  0.67804710  0.31301450  1
  Si  Si12  1  0.95983842  0.33843797  0.58277061  1
  Si  Si13  1  0.37658870  0.33374366  0.08334778  1
  Si  Si14  1  0.61536843  0.95090446  0.41856160  1
  S  S15  1  0.28378368  0.99303706  0.25051070  1
  S  S16  1  0.71085136  0.71497715  0.25075082  1
  S  S17  1  0.00465078  0.29071380  0.25012753  1
  S  S18  1  0.28412723  0.28284610  0.74869346  1
  S  S19  1  0.99949290  0.71773964  0.74900387  1
  S  S20  1  0.71625344  0.99919995  0.74904902  1
  S  S21  1  0.37577960  0.04376793  0.58241257  1
  S  S22  1  0.66885711  0.62356608  0.58279083  1
  S  S23  1  0.96194916  0.62986429  0.08357740  1
  S  S24  1  0.66671545  0.03768837  0.08334347  1
  S  S25  1  0.61765665  0.66752922  0.91724138  1
  S  S26  1  0.04791145  0.38307305  0.91746285  1
  S  S27  1  0.33414260  0.94975949  0.91716244  1
  S  S28  1  0.34202697  0.38952006  0.41749007  1
  S  S29  1  0.04977849  0.66216346  0.41725044  1
  O  O30  1  0.20583632  0.02308237  0.30307524  1
  O  O31  1  0.81906053  0.79666941  0.30345123  1
  O  O32  1  0.97549058  0.18026253  0.30219112  1
  O  O33  1  0.20306470  0.17664110  0.80198802  1
  O  O34  1  0.97602946  0.79971419  0.80294128  1
  O  O35  1  0.82408105  0.02727184  0.80243781  1
  O  O36  1  0.80333292  0.97411108  0.69620929  1
  O  O37  1  0.17025238  0.19505773  0.69572068  1
  O  O38  1  0.02468113  0.82708914  0.69637308  1
  O  O39  1  0.78860306  0.82399178  0.19768920  1
  O  O40  1  0.03102205  0.20186869  0.19684610  1
  O  O41  1  0.17125818  0.96566939  0.19734147  1
  O  O42  1  0.87448754  0.37170122  0.63994839  1
  O  O43  1  0.48394794  0.11903108  0.63555067  1
  O  O44  1  0.63156392  0.51491991  0.63586478  1
  O  O45  1  0.88935594  0.51650627  0.13571238  1
  O  O46  1  0.63301408  0.11497209  0.13575384  1
  O  O47  1  0.49527783  0.37299081  0.14128577  1
  O  O48  1  0.45432188  0.29217996  0.02555807  1
  O  O49  1  0.85104966  0.55249616  0.03103803  1
  O  O50  1  0.70724862  0.15019278  0.03107995  1
  O  O51  1  0.45398770  0.15822253  0.53033766  1
  O  O52  1  0.69904984  0.54390427  0.53031810  1
  O  O53  1  0.82752422  0.29983745  0.52513318  1
  O  O54  1  0.53034764  0.69248361  0.97006635  1
  O  O55  1  0.16175330  0.47130339  0.97037262  1
  O  O56  1  0.30909541  0.84061496  0.96986270  1
  O  O57  1  0.51243127  0.82689422  0.47408500  1
  O  O58  1  0.30722698  0.46777665  0.47025357  1
  O  O59  1  0.15770818  0.68758294  0.46992696  1
  O  O60  1  0.12653824  0.62741304  0.36333480  1
  O  O61  1  0.48801064  0.85412626  0.35924305  1
  O  O62  1  0.36477224  0.49855074  0.36383753  1
  O  O63  1  0.12944038  0.48967116  0.86434851  1
  O  O64  1  0.35729883  0.86712348  0.86346775  1
  O  O65  1  0.50941324  0.63936206  0.86402875  1
  O  O66  1  0.03403142  0.81917951  0.40891299  1
  O  O67  1  0.80607013  0.97498464  0.40924671  1
  O  O68  1  0.18743071  0.21405969  0.40884417  1
  O  O69  1  0.03531690  0.20956295  0.91150359  1
  O  O70  1  0.17623226  0.96873158  0.91089946  1
  O  O71  1  0.79125893  0.82842169  0.91148489  1
  O  O72  1  0.97896754  0.16156501  0.59579183  1
  O  O73  1  0.19649790  0.02134960  0.59227670  1
  O  O74  1  0.82653043  0.80141549  0.59295577  1
  O  O75  1  0.98079639  0.80574938  0.09528655  1
  O  O76  1  0.81956252  0.01029389  0.09489673  1
  O  O77  1  0.17761117  0.16424296  0.09867874  1
  O  O78  1  0.69325095  0.15257742  0.74182922  1
  O  O79  1  0.45784038  0.30202161  0.73995047  1
  O  O80  1  0.84097665  0.54328606  0.74316933  1
  O  O81  1  0.69116405  0.53933569  0.24356714  1
  O  O82  1  0.85074980  0.31043427  0.23942849  1
  O  O83  1  0.46242501  0.14204136  0.24157880  1
  O  O84  1  0.64061907  0.51413297  0.92479849  1
  O  O85  1  0.87442093  0.36404655  0.92667119  1
  O  O86  1  0.49339983  0.12376144  0.92327861  1
  O  O87  1  0.62410317  0.14175619  0.42786023  1
  O  O88  1  0.50206915  0.37814532  0.42649538  1
  O  O89  1  0.87031111  0.50604586  0.42523003  1
  O  O90  1  0.34561355  0.50166247  0.06856930  1
  O  O91  1  0.14204068  0.65736531  0.07219832  1
  O  O92  1  0.51001927  0.86143924  0.07212184  1
  O  O93  1  0.35135243  0.86562053  0.57262802  1
  O  O94  1  0.51408706  0.64873051  0.57357694  1
  O  O95  1  0.15265589  0.50038147  0.56648203  1
  O  O96  1  0.29419375  0.82787293  0.25778925  1
  O  O97  1  0.52999434  0.69329605  0.25941526  1
  O  O98  1  0.16516419  0.46434562  0.25784952  1
  O  O99  1  0.29717531  0.45658580  0.75496452  1
  O  O100  1  0.15764671  0.69901566  0.75560344  1
  O  O101  1  0.54250460  0.83834659  0.75505442  1
