# generated using pymatgen
data_SrC2
_symmetry_space_group_name_H-M   'P 1'
_cell_length_a   4.09778161
_cell_length_b   4.09778188
_cell_length_c   4.47228316
_cell_angle_alpha   117.26656850
_cell_angle_beta   117.26655694
_cell_angle_gamma   89.99999722
_symmetry_Int_Tables_number   1
_chemical_formula_structural   SrC2
_chemical_formula_sum   'Sr1 C2'
_cell_volume   57.20419149
_cell_formula_units_Z   1
loop_
 _symmetry_equiv_pos_site_id
 _symmetry_equiv_pos_as_xyz
  1  'x, y, z'
loop_
 _atom_site_type_symbol
 _atom_site_label
 _atom_site_symmetry_multiplicity
 _atom_site_fract_x
 _atom_site_fract_y
 _atom_site_fract_z
 _atom_site_occupancy
  Sr  Sr0  1  0.00000000  0.00000000  -0.00000000  1
  C  C1  1  0.40792644  0.40792644  0.81585289  1
  C  C2  1  0.59207356  0.59207356  0.18414711  1
