# generated using pymatgen
data_Na6Mg4Si3Ge4(S3O16)3
_symmetry_space_group_name_H-M   'P 1'
_cell_length_a   17.29405727
_cell_length_b   8.61041608
_cell_length_c   22.17485793
_cell_angle_alpha   90.00608513
_cell_angle_beta   89.80975304
_cell_angle_gamma   119.97629063
_symmetry_Int_Tables_number   1
_chemical_formula_structural   Na6Mg4Si3Ge4(S3O16)3
_chemical_formula_sum   'Na18 Mg12 Si9 Ge12 S27 O144'
_cell_volume   2860.31013805
_cell_formula_units_Z   3
loop_
 _symmetry_equiv_pos_site_id
 _symmetry_equiv_pos_as_xyz
  1  'x, y, z'
loop_
 _atom_site_type_symbol
 _atom_site_label
 _atom_site_symmetry_multiplicity
 _atom_site_fract_x
 _atom_site_fract_y
 _atom_site_fract_z
 _atom_site_occupancy
  Na  Na0  1  0.99947902  0.63434947  0.25056547  1
  Na  Na1  1  0.49975642  0.62673426  0.24484014  1
  Na  Na2  1  0.00223735  0.37036306  0.74405084  1
  Na  Na3  1  0.49997304  0.36759570  0.75023268  1
  Na  Na4  1  0.67237502  0.31852037  0.91339580  1
  Na  Na5  1  0.17052157  0.02860306  0.41638150  1
  Na  Na6  1  0.99413705  0.00174564  0.50186443  1
  Na  Na7  1  0.50229558  0.00493381  0.50114501  1
  Na  Na8  1  0.00221895  0.99943177  0.99728774  1
  Na  Na9  1  0.49338529  0.98409161  0.99913811  1
  Na  Na10  1  0.31594781  0.31500100  0.83329870  1
  Na  Na11  1  0.83646646  0.35013913  0.83581716  1
  Na  Na12  1  0.33252294  0.31903240  0.33805983  1
  Na  Na13  1  0.82404526  0.32829769  0.33868741  1
  Na  Na14  1  0.17436115  0.66112627  0.16271563  1
  Na  Na15  1  0.66678153  0.66386498  0.16300648  1
  Na  Na16  1  0.16503292  0.65703425  0.66857983  1
  Na  Na17  1  0.67638679  0.69132057  0.66472355  1
  Mg  Mg18  1  0.99621057  0.99980411  0.35379220  1
  Mg  Mg19  1  0.49614913  0.99237061  0.85283419  1
  Mg  Mg20  1  0.32311941  0.32785079  0.68684580  1
  Mg  Mg21  1  0.83336087  0.32226829  0.67981287  1
  Mg  Mg22  1  0.33157783  0.34292573  0.17846211  1
  Mg  Mg23  1  0.82983498  0.32779395  0.18312836  1
  Mg  Mg24  1  0.83827964  0.34169089  0.98159518  1
  Mg  Mg25  1  0.33695476  0.33462080  0.48309057  1
  Mg  Mg26  1  0.16987439  0.66926063  0.31585728  1
  Mg  Mg27  1  0.67306029  0.66230796  0.31722128  1
  Mg  Mg28  1  0.17089035  0.67596757  0.81293076  1
  Mg  Mg29  1  0.67223506  0.67327832  0.81422249  1
  Si  Si30  1  0.14463985  0.28715674  0.75373694  1
  Si  Si31  1  0.98004135  0.33999215  0.58163653  1
  Si  Si32  1  0.68449571  0.03002236  0.58488926  1
  Si  Si33  1  0.48129693  0.61771229  0.08215159  1
  Si  Si34  1  0.18540222  0.34231047  0.08445765  1
  Si  Si35  1  0.81404753  0.67185119  0.91432930  1
  Si  Si36  1  0.17389865  0.95992647  0.91834413  1
  Si  Si37  1  0.31004117  0.95522016  0.41593340  1
  Si  Si38  1  0.67435196  0.38419668  0.41834272  1
  Ge  Ge39  1  0.50120137  0.01835914  0.36363785  1
  Ge  Ge40  1  0.01101439  0.99027166  0.85993478  1
  Ge  Ge41  1  0.00148503  0.02796732  0.64746726  1
  Ge  Ge42  1  0.50499001  0.99815768  0.64633460  1
  Ge  Ge43  1  0.00563358  0.01155462  0.14482263  1
  Ge  Ge44  1  0.49689832  0.98566705  0.14275382  1
  Ge  Ge45  1  0.32187171  0.33527691  0.98505681  1
  Ge  Ge46  1  0.82206963  0.31325555  0.48824323  1
  Ge  Ge47  1  0.16425138  0.65813338  0.01342739  1
  Ge  Ge48  1  0.66871411  0.67622046  0.01452611  1
  Ge  Ge49  1  0.16958991  0.66481998  0.51853216  1
  Ge  Ge50  1  0.66686277  0.66432818  0.51807081  1
  S  S51  1  0.14649108  0.00372169  0.24982362  1
  S  S52  1  0.64302340  0.00292657  0.25117529  1
  S  S53  1  0.35760332  0.71699940  0.25144222  1
  S  S54  1  0.85580465  0.71558527  0.24712705  1
  S  S55  1  0.99909400  0.28858723  0.24943477  1
  S  S56  1  0.49916754  0.28054036  0.24944072  1
  S  S57  1  0.64643761  0.28927131  0.74996160  1
  S  S58  1  0.99723533  0.71631996  0.74866628  1
  S  S59  1  0.50080657  0.71086036  0.74942240  1
  S  S60  1  0.35812570  0.99783639  0.74678886  1
  S  S61  1  0.85547693  0.99774907  0.75052772  1
  S  S62  1  0.48089600  0.33246739  0.58610984  1
  S  S63  1  0.18368531  0.03490120  0.58285105  1
  S  S64  1  0.33395527  0.62991534  0.58405699  1
  S  S65  1  0.83441675  0.62730598  0.58394100  1
  S  S66  1  0.98131646  0.63042767  0.08641530  1
  S  S67  1  0.33362660  0.04116633  0.08445364  1
  S  S68  1  0.83338053  0.03741774  0.08461232  1
  S  S69  1  0.68467295  0.33238420  0.08410591  1
  S  S70  1  0.31261797  0.66597358  0.91719462  1
  S  S71  1  0.02079205  0.37339366  0.91501488  1
  S  S72  1  0.51837114  0.37689936  0.91624969  1
  S  S73  1  0.66593946  0.95797412  0.91639754  1
  S  S74  1  0.81194686  0.95947371  0.41727965  1
  S  S75  1  0.16621663  0.37565619  0.41666110  1
  S  S76  1  0.01823825  0.66035821  0.41612795  1
  S  S77  1  0.52174091  0.66861477  0.41385576  1
  O  O78  1  0.10420099  0.02404797  0.30476940  1
  O  O79  1  0.60055873  0.02911544  0.30554309  1
  O  O80  1  0.41831520  0.80531631  0.30380255  1
  O  O81  1  0.91183988  0.79447965  0.30055550  1
  O  O82  1  0.48696079  0.17086805  0.30517998  1
  O  O83  1  0.98654795  0.18035786  0.30275357  1
  O  O84  1  0.09069386  0.15585211  0.81208992  1
  O  O85  1  0.60441741  0.18456549  0.80515382  1
  O  O86  1  0.48788217  0.79382280  0.80276215  1
  O  O87  1  0.98140040  0.79213978  0.80533653  1
  O  O88  1  0.41418386  0.03018240  0.80027657  1
  O  O89  1  0.91195965  0.02395571  0.80302133  1
  O  O90  1  0.40216212  0.96812125  0.69072526  1
  O  O91  1  0.89354576  0.96460440  0.69250969  1
  O  O92  1  0.07951404  0.20119042  0.69200217  1
  O  O93  1  0.58399403  0.20109527  0.69566266  1
  O  O94  1  0.00930418  0.82682361  0.69340127  1
  O  O95  1  0.51581780  0.82265860  0.69297588  1
  O  O96  1  0.39805851  0.82740912  0.19407136  1
  O  O97  1  0.90039405  0.82874266  0.19122885  1
  O  O98  1  0.01319052  0.20685005  0.19302207  1
  O  O99  1  0.51420594  0.19729747  0.19411179  1
  O  O100  1  0.08409105  0.96703514  0.19547036  1
  O  O101  1  0.58504456  0.96629767  0.19530476  1
  O  O102  1  0.44213704  0.35960662  0.64119647  1
  O  O103  1  0.94891304  0.38018659  0.64416319  1
  O  O104  1  0.23897203  0.11701746  0.63567169  1
  O  O105  1  0.74144532  0.10352019  0.64364789  1
  O  O106  1  0.32222240  0.52437472  0.63795697  1
  O  O107  1  0.81704745  0.51830022  0.63756295  1
  O  O108  1  0.45066988  0.51918264  0.14596733  1
  O  O109  1  0.94229190  0.52725501  0.14243408  1
  O  O110  1  0.32022445  0.11791642  0.13911152  1
  O  O111  1  0.82081416  0.11764961  0.13936597  1
  O  O112  1  0.24144675  0.38333654  0.14417847  1
  O  O113  1  0.73783914  0.35659443  0.13804847  1
  O  O114  1  0.22461325  0.29375952  0.02479158  1
  O  O115  1  0.72059005  0.29699008  0.02932275  1
  O  O116  1  0.41367362  0.52290934  0.02446993  1
  O  O117  1  0.92680771  0.54906837  0.03345026  1
  O  O118  1  0.35217095  0.15173249  0.02976156  1
  O  O119  1  0.84822709  0.14481122  0.03058962  1
  O  O120  1  0.22059595  0.14146989  0.52741980  1
  O  O121  1  0.72273916  0.15466113  0.52424210  1
  O  O122  1  0.34875652  0.55456431  0.52913990  1
  O  O123  1  0.85039986  0.54935664  0.52838090  1
  O  O124  1  0.42800378  0.30618784  0.53214366  1
  O  O125  1  0.91346753  0.30398431  0.52280370  1
  O  O126  1  0.27204164  0.69271538  0.97383394  1
  O  O127  1  0.76630655  0.70781782  0.97783978  1
  O  O128  1  0.07778430  0.45394798  0.97154631  1
  O  O129  1  0.58050285  0.46082211  0.96970261  1
  O  O130  1  0.15260907  0.82953297  0.98005601  1
  O  O131  1  0.64707111  0.84464000  0.97271782  1
  O  O132  1  0.26400167  0.82486959  0.47721822  1
  O  O133  1  0.77029575  0.84788412  0.47254293  1
  O  O134  1  0.14870261  0.45338778  0.47195954  1
  O  O135  1  0.65026457  0.47167710  0.47786810  1
  O  O136  1  0.07993329  0.69954661  0.46862695  1
  O  O137  1  0.57851183  0.70277021  0.46833702  1
  O  O138  1  0.05515820  0.63300202  0.35933094  1
  O  O139  1  0.56093472  0.64350073  0.35826697  1
  O  O140  1  0.24732981  0.87608991  0.35870840  1
  O  O141  1  0.75883722  0.88379709  0.36283280  1
  O  O142  1  0.17635862  0.47814811  0.36200230  1
  O  O143  1  0.69127829  0.49100793  0.35740465  1
  O  O144  1  0.06121230  0.48218602  0.86148802  1
  O  O145  1  0.55621552  0.47918047  0.86025995  1
  O  O146  1  0.19067720  0.88103871  0.85920376  1
  O  O147  1  0.67590412  0.87312471  0.86284208  1
  O  O148  1  0.25945367  0.63615924  0.86388852  1
  O  O149  1  0.74542504  0.61702489  0.86019765  1
  O  O150  1  0.01195586  0.82692479  0.41159243  1
  O  O151  1  0.51495541  0.83649789  0.40906722  1
  O  O152  1  0.40892621  0.96448295  0.41105536  1
  O  O153  1  0.90097418  0.97703249  0.41284304  1
  O  O154  1  0.08743742  0.19063481  0.41281908  1
  O  O155  1  0.58374119  0.17871188  0.41296078  1
  O  O156  1  0.01322137  0.19483845  0.91257805  1
  O  O157  1  0.51226263  0.19809911  0.91241923  1
  O  O158  1  0.08332499  0.97926562  0.91620248  1
  O  O159  1  0.58731611  0.98481647  0.91289476  1
  O  O160  1  0.40219257  0.82592825  0.91369287  1
  O  O161  1  0.91228227  0.85822771  0.90692615  1
  O  O162  1  0.48979101  0.16606404  0.59153443  1
  O  O163  1  0.98766278  0.15260572  0.58603934  1
  O  O164  1  0.09083931  0.00755402  0.58975160  1
  O  O165  1  0.58280603  0.00925236  0.59089038  1
  O  O166  1  0.41423642  0.81690844  0.59013041  1
  O  O167  1  0.91572768  0.80911984  0.58924022  1
  O  O168  1  0.49159982  0.82502696  0.08845718  1
  O  O169  1  0.98887620  0.81425077  0.09189145  1
  O  O170  1  0.41833778  0.02418636  0.08986062  1
  O  O171  1  0.91395244  0.01280264  0.09108627  1
  O  O172  1  0.08345589  0.15853943  0.09047788  1
  O  O173  1  0.59102009  0.16900075  0.09146112  1
  O  O174  1  0.35318517  0.16243421  0.73863909  1
  O  O175  1  0.85024285  0.16398037  0.74585564  1
  O  O176  1  0.23923157  0.29882822  0.74908286  1
  O  O177  1  0.73413820  0.30899744  0.74224373  1
  O  O178  1  0.42297703  0.53070290  0.74198418  1
  O  O179  1  0.91751003  0.53536796  0.74472907  1
  O  O180  1  0.35179270  0.54041417  0.24728502  1
  O  O181  1  0.84740305  0.53584413  0.24031587  1
  O  O182  1  0.41840849  0.29580668  0.24605136  1
  O  O183  1  0.91967551  0.31112996  0.24294149  1
  O  O184  1  0.23456095  0.16028078  0.24218925  1
  O  O185  1  0.73123329  0.16233927  0.24399372  1
  O  O186  1  0.32267346  0.50250532  0.92382275  1
  O  O187  1  0.82413634  0.49820788  0.92625468  1
  O  O188  1  0.43060431  0.35926817  0.92577443  1
  O  O189  1  0.93257082  0.35373481  0.92446912  1
  O  O190  1  0.26381916  0.16195734  0.92983053  1
  O  O191  1  0.74622756  0.13434467  0.92467072  1
  O  O192  1  0.32336255  0.15186797  0.42584215  1
  O  O193  1  0.82157025  0.14128771  0.42382606  1
  O  O194  1  0.24654669  0.35902150  0.42406464  1
  O  O195  1  0.76320509  0.36290745  0.43010657  1
  O  O196  1  0.43237630  0.51465023  0.42243245  1
  O  O197  1  0.92989460  0.50228407  0.42479932  1
  O  O198  1  0.17175103  0.51771624  0.07002458  1
  O  O199  1  0.67458859  0.49336518  0.07807870  1
  O  O200  1  0.07213979  0.65408853  0.08079226  1
  O  O201  1  0.58370507  0.65069306  0.06827649  1
  O  O202  1  0.25637224  0.85806997  0.07726084  1
  O  O203  1  0.75163867  0.85529457  0.07960458  1
  O  O204  1  0.17517329  0.85259978  0.57665111  1
  O  O205  1  0.67113742  0.82679322  0.57002293  1
  O  O206  1  0.25180456  0.64803679  0.57925615  1
  O  O207  1  0.75404586  0.65092658  0.57574341  1
  O  O208  1  0.08268997  0.51295440  0.56806589  1
  O  O209  1  0.57298541  0.49266404  0.58006119  1
  O  O210  1  0.14976801  0.83466923  0.25120745  1
  O  O211  1  0.65007244  0.83879403  0.25577451  1
  O  O212  1  0.26947567  0.69906910  0.25551743  1
  O  O213  1  0.76802270  0.70179172  0.25022565  1
  O  O214  1  0.07904555  0.47004207  0.25284744  1
  O  O215  1  0.57849706  0.46213416  0.25353184  1
  O  O216  1  0.14880724  0.47851792  0.75602462  1
  O  O217  1  0.64937522  0.46445078  0.75150534  1
  O  O218  1  0.07774411  0.69995616  0.75323177  1
  O  O219  1  0.58151093  0.69238148  0.75328003  1
  O  O220  1  0.27047168  0.83921550  0.74992814  1
  O  O221  1  0.76575917  0.83958601  0.75376789  1
