# generated using pymatgen
data_Na14In4Si9Ge4(SO16)3
_symmetry_space_group_name_H-M   'P 1'
_cell_length_a   18.08678036
_cell_length_b   9.00907410
_cell_length_c   22.10135956
_cell_angle_alpha   89.99829108
_cell_angle_beta   88.88179177
_cell_angle_gamma   120.00706335
_symmetry_Int_Tables_number   1
_chemical_formula_structural   Na14In4Si9Ge4(SO16)3
_chemical_formula_sum   'Na42 In12 Si27 Ge12 S9 O144'
_cell_volume   3117.81004978
_cell_formula_units_Z   3
loop_
 _symmetry_equiv_pos_site_id
 _symmetry_equiv_pos_as_xyz
  1  'x, y, z'
loop_
 _atom_site_type_symbol
 _atom_site_label
 _atom_site_symmetry_multiplicity
 _atom_site_fract_x
 _atom_site_fract_y
 _atom_site_fract_z
 _atom_site_occupancy
  Na  Na0  1  0.82293024  0.01658377  0.25613707  1
  Na  Na1  1  0.17778359  0.35648849  0.25669242  1
  Na  Na2  1  0.69219566  0.37239245  0.25542340  1
  Na  Na3  1  0.99952203  0.62917144  0.24744178  1
  Na  Na4  1  0.49759570  0.63405509  0.25052865  1
  Na  Na5  1  0.32113607  0.62696548  0.75102283  1
  Na  Na6  1  0.99533744  0.35753259  0.74000556  1
  Na  Na7  1  0.50146069  0.37255745  0.74293623  1
  Na  Na8  1  0.19061801  0.00968357  0.75023409  1
  Na  Na9  1  0.68128316  0.00328185  0.74836426  1
  Na  Na10  1  0.14725892  0.32264461  0.57903076  1
  Na  Na11  1  0.65716047  0.32936064  0.58152672  1
  Na  Na12  1  0.33641856  0.98464999  0.58770745  1
  Na  Na13  1  0.83393486  0.97318527  0.58342413  1
  Na  Na14  1  0.15196292  0.97765009  0.07760177  1
  Na  Na15  1  0.65078954  0.97255082  0.07666849  1
  Na  Na16  1  0.33250661  0.69379944  0.08040771  1
  Na  Na17  1  0.83652481  0.69000017  0.08862528  1
  Na  Na18  1  0.47680270  0.66972453  0.91702688  1
  Na  Na19  1  0.97555154  0.67518208  0.92318603  1
  Na  Na20  1  0.34780286  0.03148714  0.90645762  1
  Na  Na21  1  0.84869106  0.03315305  0.90927192  1
  Na  Na22  1  0.17303808  0.29344527  0.90812714  1
  Na  Na23  1  0.66829268  0.28143845  0.91051610  1
  Na  Na24  1  0.47931442  0.28390403  0.42739412  1
  Na  Na25  1  0.97619727  0.28046958  0.42155996  1
  Na  Na26  1  0.16781638  0.05676425  0.41470900  1
  Na  Na27  1  0.67386784  0.05088151  0.41606423  1
  Na  Na28  1  0.35035953  0.66665814  0.41399039  1
  Na  Na29  1  0.84990071  0.66562875  0.41938784  1
  Na  Na30  1  0.99761353  0.99109211  0.50355615  1
  Na  Na31  1  0.50619505  0.00560180  0.50714394  1
  Na  Na32  1  0.00313370  0.00164621  0.00487825  1
  Na  Na33  1  0.50280550  0.00210843  0.00046395  1
  Na  Na34  1  0.33008358  0.33773877  0.82687670  1
  Na  Na35  1  0.82260680  0.33589549  0.82626458  1
  Na  Na36  1  0.32339340  0.30857284  0.33188682  1
  Na  Na37  1  0.83000168  0.32321678  0.33226884  1
  Na  Na38  1  0.15764873  0.65545383  0.16567257  1
  Na  Na39  1  0.66486629  0.65831441  0.16618672  1
  Na  Na40  1  0.16304714  0.67060645  0.66369990  1
  Na  Na41  1  0.66279725  0.66239360  0.66526069  1
  In  In42  1  0.00478509  0.01639289  0.35116794  1
  In  In43  1  0.49955994  0.00493050  0.35283327  1
  In  In44  1  0.99700259  0.99435446  0.84946776  1
  In  In45  1  0.50421994  0.99244592  0.85000071  1
  In  In46  1  0.33571052  0.32319883  0.68049685  1
  In  In47  1  0.83585909  0.34774972  0.18134501  1
  In  In48  1  0.32543689  0.33184854  0.98646397  1
  In  In49  1  0.82173526  0.33893040  0.98540801  1
  In  In50  1  0.32504810  0.30889087  0.48522052  1
  In  In51  1  0.82715399  0.33039819  0.48935304  1
  In  In52  1  0.67675087  0.68081401  0.31469975  1
  In  In53  1  0.17506145  0.67102210  0.81062966  1
  Si  Si54  1  0.15908040  0.00573197  0.24931124  1
  Si  Si55  1  0.64618030  0.99595033  0.24989786  1
  Si  Si56  1  0.35662615  0.71229948  0.24786027  1
  Si  Si57  1  0.86038083  0.72039226  0.24880920  1
  Si  Si58  1  0.00452006  0.30026005  0.25304328  1
  Si  Si59  1  0.14211407  0.28753486  0.74720887  1
  Si  Si60  1  0.65769859  0.31329422  0.75139404  1
  Si  Si61  1  0.50426644  0.70925647  0.75338510  1
  Si  Si62  1  0.35983593  0.00010734  0.74875285  1
  Si  Si63  1  0.85570098  0.01211664  0.74780879  1
  Si  Si64  1  0.48938958  0.33353850  0.58215432  1
  Si  Si65  1  0.98179949  0.34079971  0.58364890  1
  Si  Si66  1  0.17376773  0.01572845  0.58393733  1
  Si  Si67  1  0.67675395  0.01842314  0.58442937  1
  Si  Si68  1  0.84099568  0.63231112  0.58455549  1
  Si  Si69  1  0.48088460  0.62327836  0.08452954  1
  Si  Si70  1  0.98846919  0.64258908  0.08145259  1
  Si  Si71  1  0.17634905  0.33367647  0.08461804  1
  Si  Si72  1  0.67087949  0.32854356  0.08507785  1
  Si  Si73  1  0.31189035  0.66883447  0.92055966  1
  Si  Si74  1  0.80251267  0.66559859  0.91486305  1
  Si  Si75  1  0.16608498  0.95438068  0.91664347  1
  Si  Si76  1  0.66795647  0.94503453  0.91722616  1
  Si  Si77  1  0.30284641  0.94082976  0.41470011  1
  Si  Si78  1  0.81333864  0.96007991  0.42159743  1
  Si  Si79  1  0.16846276  0.39126851  0.41655029  1
  Si  Si80  1  0.66697002  0.37744473  0.41714357  1
  Ge  Ge81  1  0.99608608  0.01006207  0.64431030  1
  Ge  Ge82  1  0.51735676  0.03005729  0.65810302  1
  Ge  Ge83  1  0.01695294  0.00599354  0.15822665  1
  Ge  Ge84  1  0.50428784  0.98154298  0.14982611  1
  Ge  Ge85  1  0.82477059  0.31253148  0.67671661  1
  Ge  Ge86  1  0.32642123  0.35698445  0.18155663  1
  Ge  Ge87  1  0.16222830  0.66119360  0.01844423  1
  Ge  Ge88  1  0.66070820  0.65693218  0.01939934  1
  Ge  Ge89  1  0.16015062  0.66377455  0.51874275  1
  Ge  Ge90  1  0.67842304  0.66077063  0.52757579  1
  Ge  Ge91  1  0.17975510  0.67521801  0.30535020  1
  Ge  Ge92  1  0.68057066  0.68834820  0.80473195  1
  S  S93  1  0.49307722  0.28678559  0.24688419  1
  S  S94  1  0.99441244  0.69803238  0.74929061  1
  S  S95  1  0.33227567  0.63643718  0.58038337  1
  S  S96  1  0.33579855  0.04227952  0.08464932  1
  S  S97  1  0.83245865  0.02864946  0.08017705  1
  S  S98  1  0.02083611  0.37803876  0.92031285  1
  S  S99  1  0.52468370  0.38181996  0.91777029  1
  S  S100  1  0.02691055  0.66744571  0.41438112  1
  S  S101  1  0.51999645  0.66187863  0.41891293  1
  O  O102  1  0.12691860  0.06386190  0.30934438  1
  O  O103  1  0.61066366  0.04208490  0.31101220  1
  O  O104  1  0.41312360  0.77672482  0.30786266  1
  O  O105  1  0.91375342  0.79494903  0.31037556  1
  O  O106  1  0.48265336  0.20345229  0.30706079  1
  O  O107  1  0.98238200  0.20265392  0.31796108  1
  O  O108  1  0.11028110  0.18184331  0.81179769  1
  O  O109  1  0.62225775  0.19385988  0.81248133  1
  O  O110  1  0.48119982  0.75955052  0.81885405  1
  O  O111  1  0.98538569  0.76083219  0.81038574  1
  O  O112  1  0.40979590  0.02645872  0.81194750  1
  O  O113  1  0.90964700  0.05683377  0.81011361  1
  O  O114  1  0.41404045  0.98118423  0.69036514  1
  O  O115  1  0.90438923  0.98508796  0.69017322  1
  O  O116  1  0.07829760  0.17997867  0.69188388  1
  O  O117  1  0.59251001  0.22804832  0.69400294  1
  O  O118  1  0.00404356  0.81671927  0.70071430  1
  O  O119  1  0.52829887  0.86596333  0.70411919  1
  O  O120  1  0.40376040  0.83261967  0.18719011  1
  O  O121  1  0.91341404  0.84547265  0.18865254  1
  O  O122  1  0.02902945  0.19377510  0.20262273  1
  O  O123  1  0.50190996  0.18610585  0.19734562  1
  O  O124  1  0.09481024  0.96188916  0.19143694  1
  O  O125  1  0.58400228  0.96800792  0.19123461  1
  O  O126  1  0.45006488  0.37060357  0.64221750  1
  O  O127  1  0.93181772  0.36164057  0.64350706  1
  O  O128  1  0.24113151  0.09323480  0.63907959  1
  O  O129  1  0.74624283  0.11332455  0.63968426  1
  O  O130  1  0.32051295  0.53023253  0.63457942  1
  O  O131  1  0.81664566  0.47921315  0.63493165  1
  O  O132  1  0.42934117  0.49842323  0.14402695  1
  O  O133  1  0.95040166  0.52806852  0.14175384  1
  O  O134  1  0.32512380  0.14043319  0.13429248  1
  O  O135  1  0.82062997  0.11049251  0.13444255  1
  O  O136  1  0.24834231  0.38498484  0.13904878  1
  O  O137  1  0.73735415  0.38055707  0.14011205  1
  O  O138  1  0.20791722  0.27130960  0.02558421  1
  O  O139  1  0.70229272  0.26445138  0.02530686  1
  O  O140  1  0.42444752  0.55176409  0.02483861  1
  O  O141  1  0.92583640  0.56208173  0.02290452  1
  O  O142  1  0.34728834  0.13016064  0.02522051  1
  O  O143  1  0.83987786  0.12827087  0.02448521  1
  O  O144  1  0.20680908  0.14188101  0.52388690  1
  O  O145  1  0.70711275  0.14077575  0.52439537  1
  O  O146  1  0.34048140  0.55304324  0.52448980  1
  O  O147  1  0.85947521  0.57618415  0.51890354  1
  O  O148  1  0.42559233  0.28506434  0.52399603  1
  O  O149  1  0.92647529  0.29950779  0.52354468  1
  O  O150  1  0.25786907  0.68378969  0.98089516  1
  O  O151  1  0.75638688  0.68362742  0.97780125  1
  O  O152  1  0.07501449  0.46655472  0.97331510  1
  O  O153  1  0.57446142  0.46581268  0.97330900  1
  O  O154  1  0.15624955  0.83060805  0.97577396  1
  O  O155  1  0.65270525  0.82649935  0.97951368  1
  O  O156  1  0.25583220  0.82745763  0.47665387  1
  O  O157  1  0.75949077  0.83357544  0.48010262  1
  O  O158  1  0.15310059  0.48004228  0.47791561  1
  O  O159  1  0.66056233  0.48294637  0.47612230  1
  O  O160  1  0.07578321  0.68283669  0.47008808  1
  O  O161  1  0.57385404  0.67396223  0.46903199  1
  O  O162  1  0.06826489  0.65223182  0.35839632  1
  O  O163  1  0.55363580  0.64359655  0.35893857  1
  O  O164  1  0.24565661  0.85224144  0.35480399  1
  O  O165  1  0.76014923  0.89728484  0.35879258  1
  O  O166  1  0.17986279  0.50348199  0.35397099  1
  O  O167  1  0.67090285  0.46799138  0.35200044  1
  O  O168  1  0.05736010  0.47246892  0.86313899  1
  O  O169  1  0.56326744  0.48110562  0.86212386  1
  O  O170  1  0.17553354  0.87600442  0.85252432  1
  O  O171  1  0.67931142  0.85410409  0.85581081  1
  O  O172  1  0.25651986  0.62467587  0.85943728  1
  O  O173  1  0.74423959  0.63969622  0.85599897  1
  O  O174  1  0.02136087  0.82712903  0.41485483  1
  O  O175  1  0.51165453  0.81921629  0.42000717  1
  O  O176  1  0.39762174  0.95816623  0.41448897  1
  O  O177  1  0.90442335  0.96143310  0.42242704  1
  O  O178  1  0.08520314  0.19757858  0.41870432  1
  O  O179  1  0.57886608  0.18707694  0.42127291  1
  O  O180  1  0.01380433  0.20662860  0.92093232  1
  O  O181  1  0.51946237  0.21162262  0.91804644  1
  O  O182  1  0.07983443  0.97293546  0.92003670  1
  O  O183  1  0.58464092  0.97105064  0.91924958  1
  O  O184  1  0.40298707  0.84856322  0.92318951  1
  O  O185  1  0.89782036  0.83816333  0.91413434  1
  O  O186  1  0.49930300  0.15990553  0.59177952  1
  O  O187  1  0.99387801  0.16898180  0.59053894  1
  O  O188  1  0.08096849  0.00275907  0.59651053  1
  O  O189  1  0.58409580  0.00722734  0.59903162  1
  O  O190  1  0.40610283  0.80940084  0.58342327  1
  O  O191  1  0.91751958  0.82857239  0.59671926  1
  O  O192  1  0.49032117  0.81851941  0.09141665  1
  O  O193  1  0.99979033  0.83690723  0.09018858  1
  O  O194  1  0.40881020  0.01294455  0.09031943  1
  O  O195  1  0.90640089  0.00396991  0.08258919  1
  O  O196  1  0.08383562  0.16039018  0.09822321  1
  O  O197  1  0.57483228  0.15433008  0.09714457  1
  O  O198  1  0.34568659  0.16496828  0.74819050  1
  O  O199  1  0.84235208  0.18144624  0.73870810  1
  O  O200  1  0.23935229  0.32156396  0.73961020  1
  O  O201  1  0.74839037  0.31645658  0.73710603  1
  O  O202  1  0.42013853  0.52522031  0.74138993  1
  O  O203  1  0.92015517  0.52385362  0.74442767  1
  O  O204  1  0.34398995  0.51472012  0.24056856  1
  O  O205  1  0.84567797  0.52683256  0.24726041  1
  O  O206  1  0.41867833  0.31256282  0.24143812  1
  O  O207  1  0.92085335  0.31612560  0.24103945  1
  O  O208  1  0.25242707  0.18359762  0.23259858  1
  O  O209  1  0.74210629  0.15726269  0.24083721  1
  O  O210  1  0.32573449  0.50269180  0.92243315  1
  O  O211  1  0.81428896  0.49550736  0.91550841  1
  O  O212  1  0.43734653  0.35732324  0.92337676  1
  O  O213  1  0.93491879  0.35909076  0.92658262  1
  O  O214  1  0.25483871  0.14094563  0.92006976  1
  O  O215  1  0.75593271  0.13389509  0.91909241  1
  O  O216  1  0.31471810  0.13419657  0.41518117  1
  O  O217  1  0.82636322  0.15277284  0.42500320  1
  O  O218  1  0.25616488  0.37868444  0.41817020  1
  O  O219  1  0.75385907  0.36382525  0.41746875  1
  O  O220  1  0.43207889  0.50807144  0.42305548  1
  O  O221  1  0.94092603  0.51476485  0.41738218  1
  O  O222  1  0.17360938  0.51280328  0.07651309  1
  O  O223  1  0.66771106  0.50709891  0.07370602  1
  O  O224  1  0.08679558  0.66861350  0.07389474  1
  O  O225  1  0.57933821  0.65730431  0.07979350  1
  O  O226  1  0.25516126  0.87026070  0.08499401  1
  O  O227  1  0.75168933  0.85358612  0.07951721  1
  O  O228  1  0.16981951  0.82993701  0.57258776  1
  O  O229  1  0.67439568  0.83463772  0.57771960  1
  O  O230  1  0.25161859  0.64835983  0.57938450  1
  O  O231  1  0.75171406  0.64610740  0.58299860  1
  O  O232  1  0.08095113  0.50565303  0.57815522  1
  O  O233  1  0.58660785  0.50045267  0.57435787  1
  O  O234  1  0.15944374  0.82431533  0.25510549  1
  O  O235  1  0.64428907  0.81253460  0.25002402  1
  O  O236  1  0.25995405  0.68353668  0.24955464  1
  O  O237  1  0.76712139  0.70912503  0.24408540  1
  O  O238  1  0.09211091  0.49569298  0.25548500  1
  O  O239  1  0.57278983  0.45843271  0.24527863  1
  O  O240  1  0.14131480  0.46940047  0.74749967  1
  O  O241  1  0.65838376  0.49696050  0.75683624  1
  O  O242  1  0.07435106  0.68532966  0.74781082  1
  O  O243  1  0.59164470  0.68954506  0.75626333  1
  O  O244  1  0.26642028  0.82435378  0.74247291  1
  O  O245  1  0.75933417  0.84223190  0.75065267  1
