# generated using pymatgen
data_Na4Ta2Si5Sn2SO24
_symmetry_space_group_name_H-M   'P 1'
_cell_length_a   8.95641050
_cell_length_b   8.96461202
_cell_length_c   22.77065994
_cell_angle_alpha   90.21786270
_cell_angle_beta   89.87439449
_cell_angle_gamma   119.93901596
_symmetry_Int_Tables_number   1
_chemical_formula_structural   Na4Ta2Si5Sn2SO24
_chemical_formula_sum   'Na12 Ta6 Si15 Sn6 S3 O72'
_cell_volume   1584.29162490
_cell_formula_units_Z   3
loop_
 _symmetry_equiv_pos_site_id
 _symmetry_equiv_pos_as_xyz
  1  'x, y, z'
loop_
 _atom_site_type_symbol
 _atom_site_label
 _atom_site_symmetry_multiplicity
 _atom_site_fract_x
 _atom_site_fract_y
 _atom_site_fract_z
 _atom_site_occupancy
  Na  Na0  1  0.64026018  0.99941593  0.25038084  1
  Na  Na1  1  0.99399376  0.35982170  0.75014506  1
  Na  Na2  1  0.30009729  0.33709026  0.58080178  1
  Na  Na3  1  0.66678014  0.96695750  0.58057856  1
  Na  Na4  1  0.02509843  0.33104791  0.08405550  1
  Na  Na5  1  0.96127517  0.66398289  0.91565305  1
  Na  Na6  1  0.99878869  0.00025984  0.49420453  1
  Na  Na7  1  0.98392876  0.99380574  0.00124792  1
  Na  Na8  1  0.65737763  0.33086276  0.83351048  1
  Na  Na9  1  0.66035074  0.33676665  0.33391025  1
  Na  Na10  1  0.33127709  0.67454728  0.16650976  1
  Na  Na11  1  0.33225239  0.67467237  0.66465106  1
  Ta  Ta12  1  0.99762622  0.99451403  0.64630623  1
  Ta  Ta13  1  0.66538261  0.33539641  0.68705605  1
  Ta  Ta14  1  0.67579501  0.33213165  0.18959285  1
  Ta  Ta15  1  0.65592729  0.32435575  0.47840949  1
  Ta  Ta16  1  0.34221700  0.66668474  0.31101931  1
  Ta  Ta17  1  0.33651271  0.65544509  0.81008861  1
  Si  Si18  1  0.28562997  0.99990243  0.25028824  1
  Si  Si19  1  0.71539459  0.70791316  0.25162210  1
  Si  Si20  1  0.00847784  0.29266241  0.24829884  1
  Si  Si21  1  0.28889626  0.27964661  0.75046742  1
  Si  Si22  1  0.00148814  0.71302248  0.75198899  1
  Si  Si23  1  0.70447816  0.99821331  0.74877090  1
  Si  Si24  1  0.95652509  0.33856351  0.58275558  1
  Si  Si25  1  0.37515319  0.04089344  0.58350110  1
  Si  Si26  1  0.67137511  0.62179634  0.58202485  1
  Si  Si27  1  0.96106444  0.63193955  0.08286012  1
  Si  Si28  1  0.66463237  0.03899499  0.08293811  1
  Si  Si29  1  0.62373149  0.66451436  0.91806303  1
  Si  Si30  1  0.04644373  0.37274011  0.91746515  1
  Si  Si31  1  0.62794394  0.95602169  0.41702849  1
  Si  Si32  1  0.32980369  0.37263244  0.41719958  1
  Sn  Sn33  1  0.00033668  0.00837025  0.35130871  1
  Sn  Sn34  1  0.98910297  0.00358384  0.85146471  1
  Sn  Sn35  1  0.99013591  0.98773385  0.14980953  1
  Sn  Sn36  1  0.68127712  0.34154581  0.98045981  1
  Sn  Sn37  1  0.33917392  0.67128650  0.02066716  1
  Sn  Sn38  1  0.33577920  0.66409961  0.51903772  1
  S  S39  1  0.37787136  0.33056584  0.08325726  1
  S  S40  1  0.33543782  0.95811622  0.91539166  1
  S  S41  1  0.04254383  0.66571215  0.41684663  1
  O  O42  1  0.21059193  0.03875973  0.30901032  1
  O  O43  1  0.82971656  0.78612364  0.30968849  1
  O  O44  1  0.94700644  0.16557174  0.30422072  1
  O  O45  1  0.20727223  0.16769787  0.80848852  1
  O  O46  1  0.96711108  0.78859342  0.81190167  1
  O  O47  1  0.83061871  0.05275151  0.80509693  1
  O  O48  1  0.79645398  0.96833339  0.69047270  1
  O  O49  1  0.16532869  0.20086016  0.69188850  1
  O  O50  1  0.02928384  0.83707319  0.69473445  1
  O  O51  1  0.77565383  0.83204453  0.19427388  1
  O  O52  1  0.04201481  0.21914865  0.18731513  1
  O  O53  1  0.17286002  0.96205493  0.19111124  1
  O  O54  1  0.86605134  0.36079366  0.64216231  1
  O  O55  1  0.50303620  0.13679449  0.63918648  1
  O  O56  1  0.63745454  0.49746577  0.63889546  1
  O  O57  1  0.85686699  0.49726202  0.13750490  1
  O  O58  1  0.64027831  0.13588985  0.14116736  1
  O  O59  1  0.48643391  0.35510356  0.13562128  1
  O  O60  1  0.45467922  0.30574050  0.02897939  1
  O  O61  1  0.85029252  0.55531816  0.02213211  1
  O  O62  1  0.70011274  0.16278798  0.02558338  1
  O  O63  1  0.46575692  0.16917233  0.52658647  1
  O  O64  1  0.69850294  0.52762457  0.52537403  1
  O  O65  1  0.82673352  0.29956588  0.52712787  1
  O  O66  1  0.54173834  0.70437236  0.97504371  1
  O  O67  1  0.15665589  0.46206546  0.97720062  1
  O  O68  1  0.30128925  0.85158130  0.96954651  1
  O  O69  1  0.54293567  0.84911079  0.47760929  1
  O  O70  1  0.29700789  0.44994865  0.47804459  1
  O  O71  1  0.14646837  0.69402639  0.47097222  1
  O  O72  1  0.12564707  0.63990935  0.36444983  1
  O  O73  1  0.50243094  0.86495253  0.35959124  1
  O  O74  1  0.35527709  0.50115035  0.36174444  1
  O  O75  1  0.13995452  0.50219593  0.85993975  1
  O  O76  1  0.36055703  0.87478198  0.86348411  1
  O  O77  1  0.50144144  0.64462210  0.86021449  1
  O  O78  1  0.02264343  0.81820853  0.41193633  1
  O  O79  1  0.81604877  0.97267452  0.41222424  1
  O  O80  1  0.16562640  0.18020604  0.41223369  1
  O  O81  1  0.03120952  0.18522410  0.91284817  1
  O  O82  1  0.17662921  0.97090847  0.91044817  1
  O  O83  1  0.82147153  0.82678830  0.91165177  1
  O  O84  1  0.97242369  0.16265890  0.59095503  1
  O  O85  1  0.19096600  0.03504527  0.59108234  1
  O  O86  1  0.83787659  0.81530957  0.59016969  1
  O  O87  1  0.98468016  0.82233207  0.08756750  1
  O  O88  1  0.84742545  0.03863725  0.08829582  1
  O  O89  1  0.20404322  0.18060814  0.08769469  1
  O  O90  1  0.69085953  0.17169931  0.73976978  1
  O  O91  1  0.48225614  0.31275938  0.74139334  1
  O  O92  1  0.83696554  0.51854347  0.74145119  1
  O  O93  1  0.68236398  0.51411666  0.23975987  1
  O  O94  1  0.83155820  0.30964748  0.24077845  1
  O  O95  1  0.48439367  0.16571124  0.24047797  1
  O  O96  1  0.63657756  0.48707783  0.92057132  1
  O  O97  1  0.85782062  0.36489655  0.91781086  1
  O  O98  1  0.48934888  0.13013695  0.92138986  1
  O  O99  1  0.64497291  0.14905848  0.42394401  1
  O  O100  1  0.51077511  0.36487965  0.42333113  1
  O  O101  1  0.87114491  0.50689249  0.42247878  1
  O  O102  1  0.36019361  0.48789037  0.08047682  1
  O  O103  1  0.14394165  0.62779781  0.07949023  1
  O  O104  1  0.49158027  0.84993422  0.08040272  1
  O  O105  1  0.36305307  0.85566068  0.57758374  1
  O  O106  1  0.49941804  0.64175420  0.58016109  1
  O  O107  1  0.15023730  0.50275158  0.57862236  1
  O  O108  1  0.31922224  0.83479902  0.25955201  1
  O  O109  1  0.52151248  0.69013897  0.25973777  1
  O  O110  1  0.16885043  0.48625213  0.25939499  1
  O  O111  1  0.30096156  0.47158718  0.75706801  1
  O  O112  1  0.16937706  0.68535666  0.75809749  1
  O  O113  1  0.51515261  0.82924441  0.75781330  1
