# generated using pymatgen
data_K2In2As3
_symmetry_space_group_name_H-M   'P 1'
_cell_length_a   7.18673701
_cell_length_b   14.48556808
_cell_length_c   15.93046082
_cell_angle_alpha   89.79475902
_cell_angle_beta   90.00000000
_cell_angle_gamma   90.00000000
_symmetry_Int_Tables_number   1
_chemical_formula_structural   K2In2As3
_chemical_formula_sum   'K16 In16 As24'
_cell_volume   1658.41354596
_cell_formula_units_Z   8
loop_
 _symmetry_equiv_pos_site_id
 _symmetry_equiv_pos_as_xyz
  1  'x, y, z'
loop_
 _atom_site_type_symbol
 _atom_site_label
 _atom_site_symmetry_multiplicity
 _atom_site_fract_x
 _atom_site_fract_y
 _atom_site_fract_z
 _atom_site_occupancy
  K  K0  1  0.95862731  0.85661338  0.99281403  1
  K  K1  1  0.45862731  0.14338662  0.50718597  1
  K  K2  1  0.04137269  0.14338662  0.00718597  1
  K  K3  1  0.54137269  0.85661338  0.49281403  1
  K  K4  1  0.56609978  0.34392868  0.02216544  1
  K  K5  1  0.06609978  0.65607132  0.47783456  1
  K  K6  1  0.43390022  0.65607132  0.97783456  1
  K  K7  1  0.93390022  0.34392868  0.52216544  1
  K  K8  1  0.54622136  0.08322106  0.10748007  1
  K  K9  1  0.04622136  0.91677894  0.39251993  1
  K  K10  1  0.45377864  0.91677894  0.89251993  1
  K  K11  1  0.95377864  0.08322106  0.60748007  1
  K  K12  1  0.91742839  0.56272530  0.90777032  1
  K  K13  1  0.41742839  0.43727470  0.59222968  1
  K  K14  1  0.08257161  0.43727470  0.09222968  1
  K  K15  1  0.58257161  0.56272530  0.40777032  1
  In  In16  1  0.74920961  0.41021107  0.25806351  1
  In  In17  1  0.24920961  0.58978893  0.24193649  1
  In  In18  1  0.25079039  0.58978893  0.74193649  1
  In  In19  1  0.74652240  0.18440695  0.32389927  1
  In  In20  1  0.24652240  0.81559305  0.17610073  1
  In  In21  1  0.25347760  0.81559305  0.67610073  1
  In  In22  1  0.75347760  0.18440695  0.82389927  1
  In  In23  1  0.71502222  0.90852333  0.22997806  1
  In  In24  1  0.21502222  0.09147667  0.27002194  1
  In  In25  1  0.28497778  0.09147667  0.77002194  1
  In  In26  1  0.78497778  0.90852333  0.72997806  1
  In  In27  1  0.22993113  0.31760210  0.33204526  1
  In  In28  1  0.72993113  0.68239790  0.16795474  1
  In  In29  1  0.77006887  0.68239790  0.66795474  1
  In  In30  1  0.27006887  0.31760210  0.83204526  1
  In  In31  1  0.75079039  0.41021107  0.75806351  1
  As  As32  1  0.79781958  0.75248706  0.82254319  1
  As  As33  1  0.70218042  0.75248706  0.32254319  1
  As  As34  1  0.20218042  0.24751294  0.17745681  1
  As  As35  1  0.04551403  0.47794805  0.34176899  1
  As  As36  1  0.54551403  0.52205195  0.15823101  1
  As  As37  1  0.95448597  0.52205195  0.65823101  1
  As  As38  1  0.45448597  0.47794805  0.84176899  1
  As  As39  1  0.64432514  0.25362584  0.67246153  1
  As  As40  1  0.14432514  0.74637416  0.82753847  1
  As  As41  1  0.35567486  0.74637416  0.32753847  1
  As  As42  1  0.85567486  0.25362584  0.17246153  1
  As  As43  1  0.57034932  0.33407298  0.39113732  1
  As  As44  1  0.29781958  0.24751294  0.67745681  1
  As  As45  1  0.07034932  0.66592702  0.10886268  1
  As  As46  1  0.42965068  0.66592702  0.60886268  1
  As  As47  1  0.92965068  0.33407298  0.89113732  1
  As  As48  1  0.95734907  0.03030114  0.82829804  1
  As  As49  1  0.45734907  0.96969886  0.67170196  1
  As  As50  1  0.04265093  0.96969886  0.17170196  1
  As  As51  1  0.54265093  0.03030114  0.32829804  1
  As  As52  1  0.44028192  0.16349354  0.90859996  1
  As  As53  1  0.94028192  0.83650646  0.59140004  1
  As  As54  1  0.55971808  0.83650646  0.09140004  1
  As  As55  1  0.05971808  0.16349354  0.40859996  1
