# generated using pymatgen
data_Na2Nb3AlSi4(SO12)2
_symmetry_space_group_name_H-M   'P 1'
_cell_length_a   8.79027498
_cell_length_b   8.80312022
_cell_length_c   22.76900707
_cell_angle_alpha   89.60740383
_cell_angle_beta   90.67158487
_cell_angle_gamma   119.83667590
_symmetry_Int_Tables_number   1
_chemical_formula_structural   Na2Nb3AlSi4(SO12)2
_chemical_formula_sum   'Na6 Nb9 Al3 Si12 S6 O72'
_cell_volume   1528.25588802
_cell_formula_units_Z   3
loop_
 _symmetry_equiv_pos_site_id
 _symmetry_equiv_pos_as_xyz
  1  'x, y, z'
loop_
 _atom_site_type_symbol
 _atom_site_label
 _atom_site_symmetry_multiplicity
 _atom_site_fract_x
 _atom_site_fract_y
 _atom_site_fract_z
 _atom_site_occupancy
  Na  Na0  1  0.99013216  0.98695493  0.49925276  1
  Na  Na1  1  0.00136966  0.99458196  0.99857393  1
  Na  Na2  1  0.66024981  0.32558263  0.83111696  1
  Na  Na3  1  0.66960744  0.32397630  0.32479187  1
  Na  Na4  1  0.32538086  0.65816217  0.16364073  1
  Na  Na5  1  0.34347109  0.66477388  0.66566637  1
  Nb  Nb6  1  0.99834327  0.00182980  0.35298447  1
  Nb  Nb7  1  0.00500585  0.01725346  0.85648525  1
  Nb  Nb8  1  0.98467041  0.99568125  0.64737760  1
  Nb  Nb9  1  0.02165185  0.01132243  0.14240663  1
  Nb  Nb10  1  0.66207754  0.34358638  0.97642213  1
  Nb  Nb11  1  0.67883365  0.34549663  0.47731339  1
  Nb  Nb12  1  0.32189755  0.65738123  0.02198227  1
  Nb  Nb13  1  0.32015927  0.67670867  0.31024559  1
  Nb  Nb14  1  0.34252483  0.66623456  0.81222000  1
  Al  Al15  1  0.64601649  0.33339078  0.68975288  1
  Al  Al16  1  0.67167978  0.33328599  0.18658354  1
  Al  Al17  1  0.35704958  0.68770107  0.51948836  1
  Si  Si18  1  0.30418105  0.02086729  0.24888646  1
  Si  Si19  1  0.98977399  0.28949560  0.24736375  1
  Si  Si20  1  0.29520976  0.29083859  0.74816115  1
  Si  Si21  1  0.70504277  0.01529950  0.74863244  1
  Si  Si22  1  0.65104195  0.61241098  0.58629788  1
  Si  Si23  1  0.94495637  0.61193593  0.08842934  1
  Si  Si24  1  0.39728109  0.34298334  0.08759983  1
  Si  Si25  1  0.62387535  0.67413793  0.91866266  1
  Si  Si26  1  0.04311533  0.38414994  0.91542219  1
  Si  Si27  1  0.33463514  0.95222312  0.91623516  1
  Si  Si28  1  0.61765275  0.94977796  0.41924252  1
  Si  Si29  1  0.06191445  0.67566674  0.42269736  1
  S  S30  1  0.70985229  0.70746727  0.24903529  1
  S  S31  1  0.99320417  0.70472984  0.74891615  1
  S  S32  1  0.95847827  0.34074733  0.58496498  1
  S  S33  1  0.38146881  0.04387196  0.58415135  1
  S  S34  1  0.66529299  0.04801780  0.08561725  1
  S  S35  1  0.33179441  0.38266890  0.41894169  1
  O  O36  1  0.19577400  0.02847613  0.30670577  1
  O  O37  1  0.81988359  0.79342810  0.30387379  1
  O  O38  1  0.96967709  0.16673590  0.30648225  1
  O  O39  1  0.19704436  0.16672409  0.80555711  1
  O  O40  1  0.96777763  0.78527672  0.80147993  1
  O  O41  1  0.83084788  0.03211677  0.80501787  1
  O  O42  1  0.79956721  0.97067565  0.69194037  1
  O  O43  1  0.16490545  0.18654444  0.69124689  1
  O  O44  1  0.02213759  0.81990169  0.69547662  1
  O  O45  1  0.78740002  0.81841113  0.19753296  1
  O  O46  1  0.02202380  0.18864385  0.19280718  1
  O  O47  1  0.16904129  0.96916547  0.19251921  1
  O  O48  1  0.87349127  0.35907415  0.63576515  1
  O  O49  1  0.48920551  0.12477145  0.63676025  1
  O  O50  1  0.64052232  0.49226149  0.64077597  1
  O  O51  1  0.85837211  0.49245251  0.14435317  1
  O  O52  1  0.64123899  0.12774252  0.13810887  1
  O  O53  1  0.50823392  0.35883321  0.14457656  1
  O  O54  1  0.46969801  0.30264199  0.02673800  1
  O  O55  1  0.83301237  0.52454418  0.02714850  1
  O  O56  1  0.69443106  0.15074142  0.03123518  1
  O  O57  1  0.46230873  0.15184790  0.53053787  1
  O  O58  1  0.68679245  0.52039711  0.52712927  1
  O  O59  1  0.84657314  0.30559953  0.52969165  1
  O  O60  1  0.53297950  0.70091185  0.97588744  1
  O  O61  1  0.16491876  0.46628751  0.97451218  1
  O  O62  1  0.30334459  0.83213619  0.97468287  1
  O  O63  1  0.53572063  0.83162226  0.47580011  1
  O  O64  1  0.30679719  0.46067238  0.47115981  1
  O  O65  1  0.17688682  0.68819222  0.47868546  1
  O  O66  1  0.13494181  0.63547975  0.36087922  1
  O  O67  1  0.49937900  0.85768853  0.35955534  1
  O  O68  1  0.36226532  0.48438373  0.36445155  1
  O  O69  1  0.13376123  0.50124099  0.85739196  1
  O  O70  1  0.36288183  0.86117974  0.85803435  1
  O  O71  1  0.50234766  0.63529736  0.85892307  1
  O  O72  1  0.02948705  0.84078532  0.41059941  1
  O  O73  1  0.81610729  0.97957545  0.40809944  1
  O  O74  1  0.17529327  0.20299249  0.41272954  1
  O  O75  1  0.02929344  0.19163228  0.91089158  1
  O  O76  1  0.15986872  0.96981605  0.90733290  1
  O  O77  1  0.81695885  0.83925778  0.90802437  1
  O  O78  1  0.97393654  0.17569993  0.58802845  1
  O  O79  1  0.20312846  0.02627808  0.58873100  1
  O  O80  1  0.83510692  0.80972363  0.59101361  1
  O  O81  1  0.96231482  0.80875615  0.09234270  1
  O  O82  1  0.82249776  0.02440995  0.09120734  1
  O  O83  1  0.19226507  0.16908884  0.08984100  1
  O  O84  1  0.69903579  0.18967103  0.73422267  1
  O  O85  1  0.48563376  0.31174272  0.74222240  1
  O  O86  1  0.83987104  0.53215370  0.73994806  1
  O  O87  1  0.69672756  0.53610941  0.24589491  1
  O  O88  1  0.82301702  0.31366715  0.24136455  1
  O  O89  1  0.49277080  0.18569828  0.24112579  1
  O  O90  1  0.63862351  0.49677989  0.92176105  1
  O  O91  1  0.84927597  0.35401217  0.92410890  1
  O  O92  1  0.50691756  0.14326982  0.92426131  1
  O  O93  1  0.63682197  0.14542056  0.42710895  1
  O  O94  1  0.48842882  0.35605712  0.42477825  1
  O  O95  1  0.86047915  0.49999316  0.42666491  1
  O  O96  1  0.36652727  0.51111409  0.07940985  1
  O  O97  1  0.14674926  0.64700186  0.07870428  1
  O  O98  1  0.50845658  0.87079585  0.08021384  1
  O  O99  1  0.36006524  0.86597268  0.57749353  1
  O  O100  1  0.48169556  0.63648316  0.57442554  1
  O  O101  1  0.13356213  0.49301290  0.57607647  1
  O  O102  1  0.31268792  0.83590031  0.25577910  1
  O  O103  1  0.53393383  0.68971068  0.25759926  1
  O  O104  1  0.17552867  0.47585740  0.25871027  1
  O  O105  1  0.30112833  0.47893738  0.75391214  1
  O  O106  1  0.15553443  0.69397884  0.75230685  1
  O  O107  1  0.51519349  0.83534983  0.75407985  1
