# generated using pymatgen
data_Na3CaGe3P5SO24
_symmetry_space_group_name_H-M   'P 1'
_cell_length_a   8.62793468
_cell_length_b   8.57688349
_cell_length_c   22.15527102
_cell_angle_alpha   89.73442154
_cell_angle_beta   90.62035869
_cell_angle_gamma   119.87193942
_symmetry_Int_Tables_number   1
_chemical_formula_structural   Na3CaGe3P5SO24
_chemical_formula_sum   'Na9 Ca3 Ge9 P15 S3 O72'
_cell_volume   1421.59999753
_cell_formula_units_Z   3
loop_
 _symmetry_equiv_pos_site_id
 _symmetry_equiv_pos_as_xyz
  1  'x, y, z'
loop_
 _atom_site_type_symbol
 _atom_site_label
 _atom_site_symmetry_multiplicity
 _atom_site_fract_x
 _atom_site_fract_y
 _atom_site_fract_z
 _atom_site_occupancy
  Na  Na0  1  0.99108855  0.36740838  0.74729636  1
  Na  Na1  1  0.31382002  0.97621716  0.08525647  1
  Na  Na2  1  0.32563688  0.03441874  0.41310204  1
  Na  Na3  1  0.98885717  0.99942270  0.50004300  1
  Na  Na4  1  0.99055568  0.00090791  0.99831165  1
  Na  Na5  1  0.65629439  0.33321303  0.83248129  1
  Na  Na6  1  0.66964575  0.33561023  0.32922598  1
  Na  Na7  1  0.33338563  0.65726242  0.16582537  1
  Na  Na8  1  0.34406407  0.66963166  0.66556826  1
  Ca  Ca9  1  0.99165507  0.99857129  0.35859644  1
  Ca  Ca10  1  0.66165233  0.33674249  0.68621544  1
  Ca  Ca11  1  0.66494786  0.33128718  0.17983812  1
  Ge  Ge12  1  0.00105927  0.99906477  0.85587922  1
  Ge  Ge13  1  0.98508134  0.99583924  0.64991391  1
  Ge  Ge14  1  0.00210523  0.99671342  0.14608577  1
  Ge  Ge15  1  0.66857207  0.33422775  0.98037724  1
  Ge  Ge16  1  0.68437455  0.34877093  0.48121131  1
  Ge  Ge17  1  0.33460471  0.66423320  0.01342460  1
  Ge  Ge18  1  0.33376868  0.65891645  0.51890754  1
  Ge  Ge19  1  0.33104557  0.67258742  0.31679330  1
  Ge  Ge20  1  0.33710434  0.66988499  0.81478539  1
  P  P21  1  0.29084484  0.98971401  0.25279477  1
  P  P22  1  0.27697440  0.28323031  0.75474115  1
  P  P23  1  0.01273373  0.72772232  0.75400691  1
  P  P24  1  0.70898488  0.98482455  0.75474273  1
  P  P25  1  0.96891474  0.33502745  0.58352232  1
  P  P26  1  0.66680400  0.63459620  0.58159589  1
  P  P27  1  0.96637073  0.62739284  0.07973087  1
  P  P28  1  0.66773609  0.03138856  0.07941656  1
  P  P29  1  0.36847151  0.33953827  0.07984286  1
  P  P30  1  0.62166302  0.66487581  0.91606867  1
  P  P31  1  0.04176696  0.37778028  0.91514927  1
  P  P32  1  0.33595578  0.95823547  0.91616726  1
  P  P33  1  0.61156445  0.95610655  0.42226720  1
  P  P34  1  0.34997402  0.39356428  0.41896752  1
  P  P35  1  0.04616519  0.65146706  0.41999099  1
  S  S36  1  0.69753803  0.70994906  0.24967025  1
  S  S37  1  0.01388469  0.30218764  0.24955833  1
  S  S38  1  0.36382204  0.03055924  0.58027500  1
  O  O39  1  0.20935304  0.00956595  0.30948076  1
  O  O40  1  0.79907389  0.78952129  0.30388722  1
  O  O41  1  0.98976794  0.19971221  0.30363548  1
  O  O42  1  0.18709781  0.17137391  0.81155557  1
  O  O43  1  0.98343059  0.81251337  0.81063233  1
  O  O44  1  0.83282075  0.02021759  0.81007284  1
  O  O45  1  0.78656130  0.95346676  0.69491300  1
  O  O46  1  0.15565203  0.20363813  0.69603264  1
  O  O47  1  0.04051048  0.83920479  0.69455515  1
  O  O48  1  0.78145118  0.82342634  0.19300131  1
  O  O49  1  0.03721376  0.21503638  0.19284359  1
  O  O50  1  0.17256900  0.96176990  0.19149668  1
  O  O51  1  0.90777656  0.37386161  0.64187908  1
  O  O52  1  0.47060601  0.09953940  0.63451248  1
  O  O53  1  0.62127557  0.52813052  0.63825202  1
  O  O54  1  0.91120570  0.52713489  0.13750523  1
  O  O55  1  0.61054711  0.08673794  0.13512155  1
  O  O56  1  0.46866789  0.38219845  0.13807419  1
  O  O57  1  0.45538613  0.28878385  0.02618660  1
  O  O58  1  0.83730957  0.54109714  0.02423279  1
  O  O59  1  0.70759907  0.16103599  0.02412388  1
  O  O60  1  0.44665459  0.14599221  0.52518260  1
  O  O61  1  0.70491324  0.54611922  0.52531874  1
  O  O62  1  0.83793267  0.29641341  0.52796698  1
  O  O63  1  0.53885474  0.70249066  0.97142526  1
  O  O64  1  0.16462855  0.46441998  0.97037249  1
  O  O65  1  0.30148397  0.84195206  0.97344404  1
  O  O66  1  0.51585819  0.84060818  0.47678979  1
  O  O67  1  0.31918801  0.47684590  0.47491607  1
  O  O68  1  0.16673636  0.68347096  0.47527403  1
  O  O69  1  0.12526572  0.62060886  0.36080490  1
  O  O70  1  0.49417799  0.87863449  0.36265026  1
  O  O71  1  0.37803204  0.50725623  0.36008504  1
  O  O72  1  0.12231908  0.49384382  0.85722774  1
  O  O73  1  0.37157081  0.87222002  0.86059352  1
  O  O74  1  0.50043569  0.62654749  0.85938792  1
  O  O75  1  0.02752927  0.81689527  0.41955858  1
  O  O76  1  0.79364426  0.97767461  0.42170884  1
  O  O77  1  0.19232676  0.20513386  0.41782736  1
  O  O78  1  0.02204093  0.18737449  0.91014330  1
  O  O79  1  0.16586246  0.97703268  0.91034279  1
  O  O80  1  0.81112155  0.83331531  0.90985755  1
  O  O81  1  0.98490734  0.16003924  0.58880204  1
  O  O82  1  0.18499281  0.01614357  0.58563550  1
  O  O83  1  0.84205566  0.82319918  0.58819013  1
  O  O84  1  0.98779906  0.82240359  0.08610860  1
  O  O85  1  0.83973759  0.01604565  0.08892447  1
  O  O86  1  0.17975364  0.16070379  0.08639917  1
  O  O87  1  0.69372813  0.15243011  0.75135735  1
  O  O88  1  0.45894809  0.30398359  0.75244194  1
  O  O89  1  0.85506892  0.53860795  0.75196128  1
  O  O90  1  0.67427053  0.53142181  0.24459736  1
  O  O91  1  0.86384792  0.33282406  0.24418048  1
  O  O92  1  0.47687119  0.14598441  0.24669341  1
  O  O93  1  0.63845973  0.49318636  0.92458880  1
  O  O94  1  0.85469022  0.36035731  0.92349560  1
  O  O95  1  0.50552449  0.14690755  0.92417887  1
  O  O96  1  0.62125021  0.14472056  0.42713078  1
  O  O97  1  0.52328775  0.37630250  0.42480762  1
  O  O98  1  0.85997654  0.47782050  0.42433718  1
  O  O99  1  0.34172246  0.50127302  0.06670439  1
  O  O100  1  0.15963650  0.66248776  0.06715187  1
  O  O101  1  0.50015756  0.84306028  0.06649805  1
  O  O102  1  0.34041641  0.84651743  0.57281365  1
  O  O103  1  0.50468174  0.66474762  0.57084649  1
  O  O104  1  0.15760750  0.49951400  0.57186011  1
  O  O105  1  0.29591353  0.80628545  0.25560104  1
  O  O106  1  0.51862276  0.70133726  0.25308385  1
  O  O107  1  0.18738866  0.47901287  0.25336965  1
  O  O108  1  0.28640697  0.47261702  0.75909373  1
  O  O109  1  0.18767640  0.71190798  0.75864414  1
  O  O110  1  0.52335919  0.81155022  0.75998298  1
