# generated using pymatgen
data_Na6Nb8Zn4Si9(SO8)9
_symmetry_space_group_name_H-M   'P 1'
_cell_length_a   8.87777207
_cell_length_b   8.87086076
_cell_length_c   22.93392991
_cell_angle_alpha   89.75345894
_cell_angle_beta   90.12428559
_cell_angle_gamma   119.96515352
_symmetry_Int_Tables_number   1
_chemical_formula_structural   Na6Nb8Zn4Si9(SO8)9
_chemical_formula_sum   'Na6 Nb8 Zn4 Si9 S9 O72'
_cell_volume   1564.68613635
_cell_formula_units_Z   1
loop_
 _symmetry_equiv_pos_site_id
 _symmetry_equiv_pos_as_xyz
  1  'x, y, z'
loop_
 _atom_site_type_symbol
 _atom_site_label
 _atom_site_symmetry_multiplicity
 _atom_site_fract_x
 _atom_site_fract_y
 _atom_site_fract_z
 _atom_site_occupancy
  Na  Na0  1  0.99956516  0.00019391  0.49505358  1
  Na  Na1  1  0.99518442  0.00354015  0.99947016  1
  Na  Na2  1  0.67477373  0.33561868  0.82328906  1
  Na  Na3  1  0.66513804  0.32541723  0.32448509  1
  Na  Na4  1  0.33087122  0.66652023  0.16860518  1
  Na  Na5  1  0.33217791  0.67024950  0.66027528  1
  Nb  Nb6  1  0.01212307  0.01512909  0.35678213  1
  Nb  Nb7  1  0.97946988  0.99006392  0.85343154  1
  Nb  Nb8  1  0.98951032  0.98558084  0.64517896  1
  Nb  Nb9  1  0.00852539  0.00720938  0.15104537  1
  Nb  Nb10  1  0.67689390  0.34046863  0.97719299  1
  Nb  Nb11  1  0.66536008  0.32740534  0.47196262  1
  Nb  Nb12  1  0.32125873  0.66507225  0.31575124  1
  Nb  Nb13  1  0.32986084  0.65876804  0.81074320  1
  Zn  Zn14  1  0.68153632  0.33573107  0.68835199  1
  Zn  Zn15  1  0.66400394  0.31885274  0.19128808  1
  Zn  Zn16  1  0.33757950  0.65580782  0.01336818  1
  Zn  Zn17  1  0.33263277  0.66809458  0.50687879  1
  Si  Si18  1  0.29760962  0.00227479  0.25176729  1
  Si  Si19  1  0.00063386  0.29848404  0.25157314  1
  Si  Si20  1  0.99579152  0.70565114  0.75031066  1
  Si  Si21  1  0.70422736  0.00288392  0.74826639  1
  Si  Si22  1  0.61475661  0.66624367  0.91966952  1
  Si  Si23  1  0.05353573  0.37853135  0.91880198  1
  Si  Si24  1  0.61922479  0.94321207  0.41826797  1
  Si  Si25  1  0.33334742  0.38725274  0.41955219  1
  Si  Si26  1  0.04854814  0.67345922  0.42028498  1
  S  S27  1  0.71121132  0.71138678  0.24998216  1
  S  S28  1  0.28625380  0.28461871  0.74970565  1
  S  S29  1  0.96001012  0.33673704  0.58452010  1
  S  S30  1  0.37990501  0.04523498  0.58570617  1
  S  S31  1  0.65957844  0.61539795  0.58486936  1
  S  S32  1  0.95863029  0.62432997  0.08439734  1
  S  S33  1  0.66252444  0.03923690  0.08375074  1
  S  S34  1  0.37960891  0.33419610  0.08472085  1
  S  S35  1  0.33304711  0.95568705  0.91757028  1
  O  O36  1  0.18536770  0.01458842  0.30535158  1
  O  O37  1  0.81692043  0.79467453  0.30165481  1
  O  O38  1  0.97677538  0.16931705  0.30546256  1
  O  O39  1  0.20310040  0.18292494  0.80321553  1
  O  O40  1  0.98662073  0.81685367  0.80607228  1
  O  O41  1  0.82799618  0.02293880  0.80581646  1
  O  O42  1  0.80889576  0.97322805  0.69297354  1
  O  O43  1  0.17603960  0.20648909  0.69713176  1
  O  O44  1  0.03184079  0.83677458  0.69262320  1
  O  O45  1  0.80051231  0.82683606  0.19537333  1
  O  O46  1  0.02646951  0.19180444  0.19291166  1
  O  O47  1  0.16456828  0.96864934  0.19232622  1
  O  O48  1  0.87612341  0.35379741  0.63689029  1
  O  O49  1  0.48087490  0.13123073  0.63791439  1
  O  O50  1  0.64684640  0.51778255  0.63775243  1
  O  O51  1  0.87207617  0.51800141  0.13519811  1
  O  O52  1  0.64495307  0.12388080  0.13524289  1
  O  O53  1  0.48238378  0.35164980  0.13629970  1
  O  O54  1  0.46098624  0.30685204  0.03067262  1
  O  O55  1  0.84428505  0.53374482  0.02946235  1
  O  O56  1  0.68979154  0.15363362  0.02990782  1
  O  O57  1  0.45950856  0.15378772  0.53204035  1
  O  O58  1  0.69433061  0.54244781  0.53192160  1
  O  O59  1  0.84859477  0.30467171  0.53165753  1
  O  O60  1  0.55298594  0.71376223  0.97703329  1
  O  O61  1  0.15335346  0.45507609  0.97735516  1
  O  O62  1  0.30154118  0.85388157  0.97036680  1
  O  O63  1  0.55367728  0.84443489  0.47811250  1
  O  O64  1  0.29275565  0.44865332  0.47850573  1
  O  O65  1  0.15494018  0.71178507  0.47832374  1
  O  O66  1  0.12954256  0.63093005  0.36086355  1
  O  O67  1  0.49692327  0.86309727  0.35952741  1
  O  O68  1  0.36769519  0.50207378  0.35963517  1
  O  O69  1  0.13531743  0.50053176  0.85975617  1
  O  O70  1  0.36499295  0.87864565  0.86446373  1
  O  O71  1  0.49744313  0.63673577  0.86059616  1
  O  O72  1  0.01010335  0.82944191  0.40491081  1
  O  O73  1  0.81479495  0.98064225  0.40480442  1
  O  O74  1  0.17204156  0.18752563  0.40839593  1
  O  O75  1  0.02544999  0.18454303  0.90609405  1
  O  O76  1  0.18391440  0.98518290  0.90784706  1
  O  O77  1  0.81670746  0.82648555  0.90763562  1
  O  O78  1  0.97422253  0.17030401  0.59069314  1
  O  O79  1  0.19969592  0.03400698  0.59073930  1
  O  O80  1  0.83175001  0.80122046  0.59003169  1
  O  O81  1  0.96539460  0.79760393  0.08572752  1
  O  O82  1  0.82588517  0.02504918  0.08675817  1
  O  O83  1  0.19907903  0.16701804  0.08815110  1
  O  O84  1  0.68226066  0.16799360  0.74542368  1
  O  O85  1  0.45909376  0.30851154  0.74418554  1
  O  O86  1  0.82417469  0.52379841  0.74572188  1
  O  O87  1  0.69601904  0.54261114  0.24122665  1
  O  O88  1  0.83500939  0.31893125  0.24421072  1
  O  O89  1  0.47555983  0.17785958  0.24490747  1
  O  O90  1  0.63853877  0.49055572  0.92754194  1
  O  O91  1  0.85026704  0.34982476  0.92721702  1
  O  O92  1  0.49359885  0.13428662  0.92384828  1
  O  O93  1  0.64220126  0.14361081  0.42616339  1
  O  O94  1  0.50524497  0.35809959  0.42711197  1
  O  O95  1  0.85284588  0.49454619  0.42757756  1
  O  O96  1  0.35225746  0.48325027  0.07886688  1
  O  O97  1  0.13255404  0.64904498  0.07587024  1
  O  O98  1  0.50834985  0.86690951  0.07628767  1
  O  O99  1  0.35125234  0.86932646  0.58067897  1
  O  O100  1  0.51647594  0.64957433  0.58034066  1
  O  O101  1  0.13460421  0.48561745  0.57927197  1
  O  O102  1  0.30760351  0.82380151  0.25490302  1
  O  O103  1  0.54093768  0.70314221  0.25205602  1
  O  O104  1  0.18551458  0.48017492  0.25512742  1
  O  O105  1  0.29793936  0.46126383  0.75508619  1
  O  O106  1  0.17609626  0.69736337  0.75889822  1
  O  O107  1  0.52062215  0.82016940  0.75840523  1
