# generated using pymatgen
data_ScNbP2SO12
_symmetry_space_group_name_H-M   'P 1'
_cell_length_a   8.83240082
_cell_length_b   8.84704062
_cell_length_c   22.79806186
_cell_angle_alpha   90.51033935
_cell_angle_beta   90.00000000
_cell_angle_gamma   119.94527580
_symmetry_Int_Tables_number   1
_chemical_formula_structural   ScNbP2SO12
_chemical_formula_sum   'Sc6 Nb6 P12 S6 O72'
_cell_volume   1543.55328589
_cell_formula_units_Z   6
loop_
 _symmetry_equiv_pos_site_id
 _symmetry_equiv_pos_as_xyz
  1  'x, y, z'
loop_
 _atom_site_type_symbol
 _atom_site_label
 _atom_site_symmetry_multiplicity
 _atom_site_fract_x
 _atom_site_fract_y
 _atom_site_fract_z
 _atom_site_occupancy
  Sc  Sc0  1  0.99882724  0.00254586  0.35567269  1
  Sc  Sc1  1  0.00371862  0.00254586  0.85567269  1
  Sc  Sc2  1  0.66549424  0.33587886  0.68900569  1
  Sc  Sc3  1  0.67038562  0.33587886  0.18900569  1
  Sc  Sc4  1  0.33216024  0.66921286  0.02233969  1
  Sc  Sc5  1  0.33705162  0.66921286  0.52233969  1
  Nb  Nb6  1  0.99318420  0.00619673  0.64304725  1
  Nb  Nb7  1  0.01301252  0.00619673  0.14304725  1
  Nb  Nb8  1  0.65985120  0.33952973  0.97638025  1
  Nb  Nb9  1  0.67967952  0.33952973  0.47638025  1
  Nb  Nb10  1  0.32651720  0.67286373  0.30971425  1
  Nb  Nb11  1  0.34634552  0.67286373  0.80971425  1
  P  P12  1  0.28893672  0.00512038  0.25092706  1
  P  P13  1  -0.00095445  0.28501891  0.25099282  1
  P  P14  1  0.28597337  0.28501891  0.75099282  1
  P  P15  1  0.71618366  0.00512038  0.75092706  1
  P  P16  1  0.95560372  0.33845338  0.58426006  1
  P  P17  1  0.66571255  0.61835191  0.58432582  1
  P  P18  1  0.95264037  0.61835191  0.08432582  1
  P  P19  1  0.38285066  0.33845338  0.08426006  1
  P  P20  1  0.62226972  0.67178738  0.91759406  1
  P  P21  1  0.33237855  0.95168591  0.91765982  1
  P  P22  1  0.61930637  0.95168591  0.41765982  1
  P  P23  1  0.04951666  0.67178738  0.41759406  1
  S  S24  1  0.71141112  0.71326968  0.25017436  1
  S  S25  1  0.00185856  0.71326968  0.75017436  1
  S  S26  1  0.37807812  0.04660268  0.58350736  1
  S  S27  1  0.66852556  0.04660268  0.08350736  1
  S  S28  1  0.04474412  0.37993668  0.91684136  1
  S  S29  1  0.33519156  0.37993668  0.41684136  1
  O  O30  1  0.20152483  0.02595144  0.30442553  1
  O  O31  1  0.81829634  0.79225382  0.30261176  1
  O  O32  1  0.97423442  0.17554851  0.30431303  1
  O  O33  1  0.20131409  0.17554851  0.80431303  1
  O  O34  1  0.97395748  0.79225382  0.80261176  1
  O  O35  1  0.82442661  0.02595144  0.80442553  1
  O  O36  1  0.80045718  0.96761694  0.69499723  1
  O  O37  1  0.16501790  0.19598162  0.69534166  1
  O  O38  1  0.03388518  0.82420538  0.69752170  1
  O  O39  1  0.79032020  0.82420538  0.19752170  1
  O  O40  1  0.03096372  0.19598162  0.19534166  1
  O  O41  1  0.16715977  0.96761694  0.19499723  1
  O  O42  1  0.86819183  0.35928444  0.63775853  1
  O  O43  1  0.48496334  0.12558682  0.63594476  1
  O  O44  1  0.64090142  0.50888151  0.63764603  1
  O  O45  1  0.86798109  0.50888151  0.13764603  1
  O  O46  1  0.64062448  0.12558682  0.13594476  1
  O  O47  1  0.49109361  0.35928444  0.13775853  1
  O  O48  1  0.46712418  0.30094994  0.02833023  1
  O  O49  1  0.83168490  0.52931462  0.02867466  1
  O  O50  1  0.70055218  0.15753838  0.03085470  1
  O  O51  1  0.45698720  0.15753838  0.53085470  1
  O  O52  1  0.69763072  0.52931462  0.52867466  1
  O  O53  1  0.83382677  0.30094994  0.52833023  1
  O  O54  1  0.53485783  0.69261844  0.97109253  1
  O  O55  1  0.15162934  0.45892082  0.96927876  1
  O  O56  1  0.30756742  0.84221551  0.97098003  1
  O  O57  1  0.53464709  0.84221551  0.47098003  1
  O  O58  1  0.30729048  0.45892082  0.46927876  1
  O  O59  1  0.15775961  0.69261844  0.47109253  1
  O  O60  1  0.13379018  0.63428394  0.36166423  1
  O  O61  1  0.49835090  0.86264862  0.36200866  1
  O  O62  1  0.36721818  0.49087238  0.36418870  1
  O  O63  1  0.12365320  0.49087238  0.86418870  1
  O  O64  1  0.36429672  0.86264862  0.86200866  1
  O  O65  1  0.50049277  0.63428394  0.86166423  1
  O  O66  1  0.01977537  0.82148515  0.40619590  1
  O  O67  1  0.79966214  0.98079796  0.40639177  1
  O  O68  1  0.18474033  0.20593717  0.40836724  1
  O  O69  1  0.02119684  0.20593717  0.90836724  1
  O  O70  1  0.18113582  0.98079796  0.90639177  1
  O  O71  1  0.80170978  0.82148515  0.90619590  1
  O  O72  1  0.96915994  0.16655250  0.59260931  1
  O  O73  1  0.20043737  0.02875517  0.59223761  1
  O  O74  1  0.83631712  0.80276277  0.59417307  1
  O  O75  1  0.96644565  0.80276277  0.09417307  1
  O  O76  1  0.82831780  0.02875517  0.09223761  1
  O  O77  1  0.19739256  0.16655250  0.09260931  1
  O  O78  1  0.68644237  0.15481815  0.73952890  1
  O  O79  1  0.46632914  0.31413096  0.73972477  1
  O  O80  1  0.85140733  0.53927017  0.74170024  1
  O  O81  1  0.68786384  0.53927017  0.24170024  1
  O  O82  1  0.84780282  0.31413096  0.23972477  1
  O  O83  1  0.46837678  0.15481815  0.23952890  1
  O  O84  1  0.63582694  0.49988550  0.92594231  1
  O  O85  1  0.86710437  0.36208817  0.92557061  1
  O  O86  1  0.50298412  0.13609577  0.92750607  1
  O  O87  1  0.63311265  0.13609577  0.42750607  1
  O  O88  1  0.49498480  0.36208817  0.42557061  1
  O  O89  1  0.86405956  0.49988550  0.42594231  1
  O  O90  1  0.35310837  0.48815215  0.07286290  1
  O  O91  1  0.13299514  0.64746496  0.07305877  1
  O  O92  1  0.51807333  0.87260417  0.07503424  1
  O  O93  1  0.35452984  0.87260417  0.57503424  1
  O  O94  1  0.51446882  0.64746496  0.57305877  1
  O  O95  1  0.13504278  0.48815215  0.57286290  1
  O  O96  1  0.30249294  0.83321950  0.25927631  1
  O  O97  1  0.53377037  0.69542217  0.25890461  1
  O  O98  1  0.16965012  0.46942977  0.26084007  1
  O  O99  1  0.29977865  0.46942977  0.76084007  1
  O  O100  1  0.16165080  0.69542217  0.75890461  1
  O  O101  1  0.53072556  0.83321950  0.75927631  1
