# generated using pymatgen
data_NaSc2Ta2P5SO24
_symmetry_space_group_name_H-M   'P 1'
_cell_length_a   8.79689674
_cell_length_b   8.79646644
_cell_length_c   22.81357792
_cell_angle_alpha   89.91216706
_cell_angle_beta   90.00998666
_cell_angle_gamma   119.95109608
_symmetry_Int_Tables_number   1
_chemical_formula_structural   NaSc2Ta2P5SO24
_chemical_formula_sum   'Na3 Sc6 Ta6 P15 S3 O72'
_cell_volume   1529.58977288
_cell_formula_units_Z   3
loop_
 _symmetry_equiv_pos_site_id
 _symmetry_equiv_pos_as_xyz
  1  'x, y, z'
loop_
 _atom_site_type_symbol
 _atom_site_label
 _atom_site_symmetry_multiplicity
 _atom_site_fract_x
 _atom_site_fract_y
 _atom_site_fract_z
 _atom_site_occupancy
  Na  Na0  1  0.00003670  0.99970475  0.00324073  1
  Na  Na1  1  0.66659313  0.33299369  0.83272477  1
  Na  Na2  1  0.66695797  0.33178295  0.33715292  1
  Sc  Sc3  1  0.99428129  0.99400880  0.64529023  1
  Sc  Sc4  1  0.00695301  0.00520261  0.14702887  1
  Sc  Sc5  1  0.66451999  0.33952937  0.68705973  1
  Sc  Sc6  1  0.66675324  0.33423261  0.97941161  1
  Sc  Sc7  1  0.66935059  0.34091741  0.47987650  1
  Sc  Sc8  1  0.32729075  0.66700014  0.31204806  1
  Ta  Ta9  1  0.00658526  0.00852807  0.35883978  1
  Ta  Ta10  1  0.00012455  0.00039647  0.85332770  1
  Ta  Ta11  1  0.66617756  0.32740061  0.18669385  1
  Ta  Ta12  1  0.33230226  0.66608264  0.02485075  1
  Ta  Ta13  1  0.33850061  0.66774860  0.52075419  1
  Ta  Ta14  1  0.33377930  0.66656064  0.80928111  1
  P  P15  1  0.28697756  0.99916130  0.24997239  1
  P  P16  1  0.00175322  0.28834796  0.24985950  1
  P  P17  1  0.28840259  0.28670463  0.74930171  1
  P  P18  1  0.99833061  0.71077248  0.74984275  1
  P  P19  1  0.71241442  0.00321932  0.74966226  1
  P  P20  1  0.66838242  0.62381874  0.58308168  1
  P  P21  1  0.95270786  0.62312284  0.08264877  1
  P  P22  1  0.66978029  0.04480705  0.08192439  1
  P  P23  1  0.37830141  0.33123442  0.08249269  1
  P  P24  1  0.61887562  0.66663384  0.91639600  1
  P  P25  1  0.04752819  0.38124211  0.91629097  1
  P  P26  1  0.33388852  0.95249894  0.91623596  1
  P  P27  1  0.62020436  0.95622661  0.41538601  1
  P  P28  1  0.33837150  0.38377661  0.41587840  1
  P  P29  1  0.04502127  0.66517017  0.41632046  1
  S  S30  1  0.71180246  0.71174547  0.24996096  1
  S  S31  1  0.95830332  0.33432081  0.58280316  1
  S  S32  1  0.37624369  0.04242858  0.58274718  1
  O  O33  1  0.19859371  0.03279919  0.30496217  1
  O  O34  1  0.82493421  0.79064962  0.30302369  1
  O  O35  1  0.96562168  0.16595527  0.30507292  1
  O  O36  1  0.19424154  0.17069917  0.80549198  1
  O  O37  1  0.97578109  0.80498899  0.80557423  1
  O  O38  1  0.82887962  0.02388178  0.80554677  1
  O  O39  1  0.78893598  0.96420855  0.69649511  1
  O  O40  1  0.17412896  0.21021420  0.69600124  1
  O  O41  1  0.03761761  0.82572169  0.69642937  1
  O  O42  1  0.79036796  0.81439063  0.19724275  1
  O  O43  1  0.02157535  0.20229089  0.19564217  1
  O  O44  1  0.17915593  0.97476519  0.19578499  1
  O  O45  1  0.88389263  0.36886455  0.63553766  1
  O  O46  1  0.48581785  0.11441028  0.63550426  1
  O  O47  1  0.62810467  0.50763251  0.63766901  1
  O  O48  1  0.86556169  0.50222609  0.13811202  1
  O  O49  1  0.63567650  0.13224708  0.13778266  1
  O  O50  1  0.49755614  0.36383971  0.13799357  1
  O  O51  1  0.46155133  0.30504858  0.02826540  1
  O  O52  1  0.84397692  0.53870309  0.02836239  1
  O  O53  1  0.69555523  0.15637888  0.02835652  1
  O  O54  1  0.45688277  0.14820629  0.53026655  1
  O  O55  1  0.69269300  0.53847388  0.52865402  1
  O  O56  1  0.85086767  0.30614953  0.53045001  1
  O  O57  1  0.53248234  0.69794452  0.97123237  1
  O  O58  1  0.16533549  0.46739983  0.97116317  1
  O  O59  1  0.30225379  0.83461580  0.97119321  1
  O  O60  1  0.53311748  0.83663425  0.47121543  1
  O  O61  1  0.30257306  0.46655397  0.47137664  1
  O  O62  1  0.16315953  0.69732216  0.47149891  1
  O  O63  1  0.12648987  0.63762339  0.36211450  1
  O  O64  1  0.51090988  0.87160668  0.36170078  1
  O  O65  1  0.36338202  0.49045022  0.36150762  1
  O  O66  1  0.14064182  0.49556467  0.86181997  1
  O  O67  1  0.35487167  0.85931732  0.86180742  1
  O  O68  1  0.50459830  0.64522161  0.86189082  1
  O  O69  1  0.02713893  0.83302736  0.40576341  1
  O  O70  1  0.80438449  0.96947961  0.40614501  1
  O  O71  1  0.16727501  0.19750509  0.40790319  1
  O  O72  1  0.03183390  0.19634254  0.90810710  1
  O  O73  1  0.16460011  0.96820096  0.90803428  1
  O  O74  1  0.80375483  0.83542634  0.90808686  1
  O  O75  1  0.98362463  0.18346979  0.59056258  1
  O  O76  1  0.20120688  0.01955414  0.59056953  1
  O  O77  1  0.82352638  0.80709527  0.59134116  1
  O  O78  1  0.97955473  0.80540893  0.09093133  1
  O  O79  1  0.82398180  0.01691974  0.09115671  1
  O  O80  1  0.19477875  0.17608866  0.08988886  1
  O  O81  1  0.68909959  0.16272821  0.74620191  1
  O  O82  1  0.47144534  0.30872824  0.74717709  1
  O  O83  1  0.83882410  0.52727637  0.74682525  1
  O  O84  1  0.69593264  0.53136687  0.24286380  1
  O  O85  1  0.82977645  0.30516938  0.24165160  1
  O  O86  1  0.47423051  0.17212386  0.24165882  1
  O  O87  1  0.64126309  0.50769921  0.92105710  1
  O  O88  1  0.86630162  0.35875436  0.92108840  1
  O  O89  1  0.49250989  0.13362373  0.92110070  1
  O  O90  1  0.64813989  0.13897622  0.42539927  1
  O  O91  1  0.49013608  0.34992933  0.42436765  1
  O  O92  1  0.86139427  0.50812487  0.42410726  1
  O  O93  1  0.36315668  0.50086226  0.07348557  1
  O  O94  1  0.13719596  0.63703778  0.07345149  1
  O  O95  1  0.49871440  0.86199596  0.07355060  1
  O  O96  1  0.35716679  0.86262882  0.57280268  1
  O  O97  1  0.49962444  0.64213248  0.57093630  1
  O  O98  1  0.13660746  0.49583959  0.57265754  1
  O  O99  1  0.31702253  0.84721864  0.25931926  1
  O  O100  1  0.53741476  0.68717919  0.25823826  1
  O  O101  1  0.15588007  0.46848611  0.25934818  1
  O  O102  1  0.30711229  0.46973793  0.76321888  1
  O  O103  1  0.16322868  0.69296263  0.76327606  1
  O  O104  1  0.53021525  0.83724417  0.76326398  1
