# generated using pymatgen
data_NaAl2Sn2P3(SO8)3
_symmetry_space_group_name_H-M   'P 1'
_cell_length_a   8.53118818
_cell_length_b   8.53650370
_cell_length_c   22.18317288
_cell_angle_alpha   90.15539985
_cell_angle_beta   89.66787403
_cell_angle_gamma   120.00484048
_symmetry_Int_Tables_number   1
_chemical_formula_structural   NaAl2Sn2P3(SO8)3
_chemical_formula_sum   'Na3 Al6 Sn6 P9 S9 O72'
_cell_volume   1398.99240891
_cell_formula_units_Z   3
loop_
 _symmetry_equiv_pos_site_id
 _symmetry_equiv_pos_as_xyz
  1  'x, y, z'
loop_
 _atom_site_type_symbol
 _atom_site_label
 _atom_site_symmetry_multiplicity
 _atom_site_fract_x
 _atom_site_fract_y
 _atom_site_fract_z
 _atom_site_occupancy
  Na  Na0  1  0.67841689  0.33519882  0.83403705  1
  Na  Na1  1  0.66246795  0.34006768  0.33065871  1
  Na  Na2  1  0.34478952  0.67375133  0.17002796  1
  Al  Al3  1  0.67418247  0.33336281  0.68866068  1
  Al  Al4  1  0.64901039  0.32649336  0.18605133  1
  Al  Al5  1  0.67056431  0.32604466  0.98315025  1
  Al  Al6  1  0.66592705  0.34132132  0.47496524  1
  Al  Al7  1  0.33248405  0.66304780  0.31366120  1
  Al  Al8  1  0.32270970  0.66702333  0.81137854  1
  Sn  Sn9  1  0.00714460  0.99423759  0.35243023  1
  Sn  Sn10  1  0.99355473  0.00201073  0.85245339  1
  Sn  Sn11  1  0.99453391  0.99371576  0.64819634  1
  Sn  Sn12  1  -0.00012842  0.99889750  0.14488200  1
  Sn  Sn13  1  0.33455767  0.66233619  0.02198681  1
  Sn  Sn14  1  0.32875273  0.66313636  0.51864308  1
  P  P15  1  0.30104253  0.99658103  0.24929040  1
  P  P16  1  0.69905446  0.69856454  0.24969166  1
  P  P17  1  -0.00047248  0.70059603  0.75007690  1
  P  P18  1  0.69344434  0.99660232  0.75009769  1
  P  P19  1  0.66720717  0.05481707  0.08406967  1
  P  P20  1  0.38838761  0.33145683  0.08252522  1
  P  P21  1  0.04033122  0.38315379  0.91517358  1
  P  P22  1  0.33813853  0.37959637  0.41490517  1
  P  P23  1  0.04076904  0.65792230  0.41569259  1
  S  S24  1  0.99836538  0.29991524  0.25038619  1
  S  S25  1  0.30214229  0.30175803  0.74925249  1
  S  S26  1  0.94558028  0.33155416  0.58311266  1
  S  S27  1  0.38835022  0.05513600  0.58314635  1
  S  S28  1  0.66500396  0.61191366  0.58318087  1
  S  S29  1  0.94398566  0.61103555  0.08361071  1
  S  S30  1  0.61962472  0.65762183  0.91495741  1
  S  S31  1  0.33873091  0.96046879  0.91557904  1
  S  S32  1  0.62301674  0.96243257  0.41617637  1
  O  O33  1  0.22710466  0.04830476  0.30547644  1
  O  O34  1  0.81868143  0.77976528  0.30668119  1
  O  O35  1  0.95778899  0.18284101  0.30471054  1
  O  O36  1  0.22756319  0.17959846  0.80257650  1
  O  O37  1  0.95342855  0.78193614  0.80569348  1
  O  O38  1  0.82545697  0.05211241  0.80426670  1
  O  O39  1  0.77390697  0.95534774  0.69272833  1
  O  O40  1  0.18421847  0.22563702  0.69490007  1
  O  O41  1  0.04694683  0.82402378  0.69318154  1
  O  O42  1  0.77918279  0.82373614  0.19375063  1
  O  O43  1  0.04090224  0.22436002  0.19624789  1
  O  O44  1  0.17732161  0.95440834  0.19339117  1
  O  O45  1  0.86255656  0.35684984  0.63790292  1
  O  O46  1  0.49478300  0.13837357  0.63783763  1
  O  O47  1  0.63997045  0.50450137  0.63776582  1
  O  O48  1  0.86493670  0.50448386  0.13817884  1
  O  O49  1  0.64142408  0.14128098  0.14048554  1
  O  O50  1  0.50023427  0.36440673  0.13915461  1
  O  O51  1  0.47727561  0.31356539  0.02478011  1
  O  O52  1  0.84294979  0.53096463  0.02786663  1
  O  O53  1  0.69234431  0.16086115  0.02599531  1
  O  O54  1  0.47203446  0.16226178  0.52853729  1
  O  O55  1  0.69073029  0.52899882  0.52874257  1
  O  O56  1  0.83790413  0.30622776  0.52906395  1
  O  O57  1  0.55038925  0.70008409  0.97058721  1
  O  O58  1  0.15400380  0.45707202  0.97307071  1
  O  O59  1  0.30233824  0.85149524  0.97124336  1
  O  O60  1  0.55469799  0.85370064  0.47321483  1
  O  O61  1  0.30036621  0.44902397  0.47549472  1
  O  O62  1  0.15317414  0.70458231  0.47511152  1
  O  O63  1  0.13522891  0.63073351  0.36157482  1
  O  O64  1  0.50664575  0.87741019  0.36408998  1
  O  O65  1  0.37203269  0.50517293  0.36165128  1
  O  O66  1  0.13562165  0.50262977  0.86015789  1
  O  O67  1  0.36886756  0.87436588  0.86251152  1
  O  O68  1  0.50691374  0.63325715  0.86196028  1
  O  O69  1  0.01368692  0.82194567  0.41110638  1
  O  O70  1  0.80439226  0.98497750  0.40929725  1
  O  O71  1  0.16707624  0.19393430  0.40866753  1
  O  O72  1  0.02311614  0.19441916  0.90889009  1
  O  O73  1  0.17544991  0.97807141  0.90870229  1
  O  O74  1  0.80311633  0.81964040  0.91028009  1
  O  O75  1  0.96773530  0.16891226  0.58831319  1
  O  O76  1  0.20435156  0.03597545  0.58804959  1
  O  O77  1  0.82983222  0.79528005  0.58670230  1
  O  O78  1  0.96390903  0.79296053  0.08625462  1
  O  O79  1  0.83336084  0.02966975  0.08860461  1
  O  O80  1  0.19860914  0.16250147  0.08759362  1
  O  O81  1  0.67576636  0.16473963  0.73906449  1
  O  O82  1  0.47976269  0.31741503  0.73879598  1
  O  O83  1  0.82817486  0.51695442  0.73927457  1
  O  O84  1  0.68796973  0.51544176  0.24000438  1
  O  O85  1  0.83867966  0.31853730  0.24131577  1
  O  O86  1  0.48756057  0.16468782  0.24109182  1
  O  O87  1  0.63525084  0.49488650  0.92245717  1
  O  O88  1  0.85221413  0.36498834  0.92371368  1
  O  O89  1  0.50105954  0.14090248  0.92213939  1
  O  O90  1  0.63654854  0.14040615  0.42543776  1
  O  O91  1  0.50660460  0.35940169  0.42431289  1
  O  O92  1  0.85573211  0.48530163  0.42536306  1
  O  O93  1  0.36484467  0.50249867  0.08075639  1
  O  O94  1  0.13014582  0.63367061  0.08042732  1
  O  O95  1  0.49176450  0.86279912  0.07977083  1
  O  O96  1  0.36883476  0.87144904  0.57902333  1
  O  O97  1  0.50334880  0.63491063  0.57908305  1
  O  O98  1  0.12892317  0.49542163  0.58034797  1
  O  O99  1  0.31405365  0.82669353  0.26081254  1
  O  O100  1  0.51311575  0.68131431  0.26010007  1
  O  O101  1  0.16223510  0.47716736  0.25910112  1
  O  O102  1  0.31809015  0.47725332  0.76041205  1
  O  O103  1  0.16470854  0.68334989  0.76111250  1
  O  O104  1  0.51504612  0.82870818  0.76426168  1
