# generated using pymatgen
data_MgSb4(WO6)2
_symmetry_space_group_name_H-M   'P 1'
_cell_length_a   5.42899730
_cell_length_b   5.67614945
_cell_length_c   9.62823964
_cell_angle_alpha   93.85779142
_cell_angle_beta   90.46653354
_cell_angle_gamma   89.47769307
_symmetry_Int_Tables_number   1
_chemical_formula_structural   MgSb4(WO6)2
_chemical_formula_sum   'Mg1 Sb4 W2 O12'
_cell_volume   296.00888511
_cell_formula_units_Z   1
loop_
 _symmetry_equiv_pos_site_id
 _symmetry_equiv_pos_as_xyz
  1  'x, y, z'
loop_
 _atom_site_type_symbol
 _atom_site_label
 _atom_site_symmetry_multiplicity
 _atom_site_fract_x
 _atom_site_fract_y
 _atom_site_fract_z
 _atom_site_occupancy
  Mg  Mg0  1  0.02820900  0.48802300  0.91987000  1
  Sb  Sb1  1  0.40723500  0.81836200  0.68969000  1
  Sb  Sb2  1  0.05177800  0.31891500  0.61948500  1
  Sb  Sb3  1  0.94213800  0.64703500  0.32046600  1
  Sb  Sb4  1  0.58724700  0.12953800  0.33742000  1
  W  W5  1  0.00507300  0.99771300  0.00606300  1
  W  W6  1  0.51198500  0.49956900  0.01220200  1
  O  O7  1  0.77510300  0.73954200  0.94812900  1
  O  O8  1  0.76794700  0.24444600  0.94709600  1
  O  O9  1  0.22465900  0.25649100  0.04901400  1
  O  O10  1  0.23406000  0.75389000  0.05749200  1
  O  O11  1  0.86214400  0.00599400  0.19009200  1
  O  O12  1  0.12655000  0.96127400  0.81389500  1
  O  O13  1  0.64866700  0.50848200  0.20736500  1
  O  O14  1  0.34430200  0.50482300  0.81766500  1
  O  O15  1  0.19573200  0.61712200  0.55612800  1
  O  O16  1  0.31722800  0.10588200  0.55305400  1
  O  O17  1  0.72559600  0.85940400  0.43979800  1
  O  O18  1  0.84834800  0.34678500  0.43389100  1
