# generated using pymatgen
data_MnSeO4
_symmetry_space_group_name_H-M   'P 1'
_cell_length_a   4.98491009
_cell_length_b   6.94996153
_cell_length_c   9.28500824
_cell_angle_alpha   90.00000000
_cell_angle_beta   90.00000000
_cell_angle_gamma   90.00000000
_symmetry_Int_Tables_number   1
_chemical_formula_structural   MnSeO4
_chemical_formula_sum   'Mn4 Se4 O16'
_cell_volume   321.67849168
_cell_formula_units_Z   4
loop_
 _symmetry_equiv_pos_site_id
 _symmetry_equiv_pos_as_xyz
  1  'x, y, z'
loop_
 _atom_site_type_symbol
 _atom_site_label
 _atom_site_symmetry_multiplicity
 _atom_site_fract_x
 _atom_site_fract_y
 _atom_site_fract_z
 _atom_site_occupancy
  Mn  Mn0  1  -0.00000000  0.00000000  0.00000000  1
  Mn  Mn1  1  0.50000000  0.00000000  0.50000000  1
  Mn  Mn2  1  -0.00000000  0.50000000  0.00000000  1
  Mn  Mn3  1  0.50000000  0.50000000  0.50000000  1
  Se  Se4  1  0.51876714  0.75000000  0.81864520  1
  Se  Se5  1  0.01876714  0.25000000  0.68135480  1
  Se  Se6  1  0.48123286  0.25000000  0.18135480  1
  Se  Se7  1  0.98123286  0.75000000  0.31864520  1
  O  O8  1  0.16543045  0.44822481  0.62576932  1
  O  O9  1  0.66543045  0.55177519  0.87423068  1
  O  O10  1  0.83456955  0.94822481  0.37423068  1
  O  O11  1  0.33456955  0.05177519  0.12576932  1
  O  O12  1  0.83456955  0.55177519  0.37423068  1
  O  O13  1  0.33456955  0.44822481  0.12576932  1
  O  O14  1  0.16543045  0.05177519  0.62576932  1
  O  O15  1  0.66543045  0.94822481  0.87423068  1
  O  O16  1  0.20248040  0.75000000  0.87686864  1
  O  O17  1  0.70248040  0.25000000  0.62313136  1
  O  O18  1  0.79751960  0.25000000  0.12313136  1
  O  O19  1  0.29751960  0.75000000  0.37686864  1
  O  O20  1  0.54598312  0.75000000  0.63826846  1
  O  O21  1  0.04598312  0.25000000  0.86173154  1
  O  O22  1  0.45401688  0.25000000  0.36173154  1
  O  O23  1  0.95401688  0.75000000  0.13826846  1
