# generated using pymatgen
data_Na4Hf3Mg(PO4)6
_symmetry_space_group_name_H-M   'P 1'
_cell_length_a   8.90749336
_cell_length_b   8.92322283
_cell_length_c   22.78637468
_cell_angle_alpha   89.99599301
_cell_angle_beta   89.98531236
_cell_angle_gamma   119.96405965
_symmetry_Int_Tables_number   1
_chemical_formula_structural   Na4Hf3Mg(PO4)6
_chemical_formula_sum   'Na12 Hf9 Mg3 P18 O72'
_cell_volume   1569.06254664
_cell_formula_units_Z   3
loop_
 _symmetry_equiv_pos_site_id
 _symmetry_equiv_pos_as_xyz
  1  'x, y, z'
loop_
 _atom_site_type_symbol
 _atom_site_label
 _atom_site_symmetry_multiplicity
 _atom_site_fract_x
 _atom_site_fract_y
 _atom_site_fract_z
 _atom_site_occupancy
  Na  Na0  1  0.64166365  0.01082368  0.24557076  1
  Na  Na1  1  0.36919087  0.35790794  0.24554724  1
  Na  Na2  1  0.98866455  0.62971326  0.24518627  1
  Na  Na3  1  0.98902112  0.36237313  0.74329167  1
  Na  Na4  1  0.37217270  0.00803789  0.74341055  1
  Na  Na5  1  0.70577592  0.67491515  0.41496941  1
  Na  Na6  1  0.01204672  0.01258463  0.49484666  1
  Na  Na7  1  0.00003453  0.00014603  0.00160708  1
  Na  Na8  1  0.66577918  0.34497464  0.83132646  1
  Na  Na9  1  0.66570077  0.32280534  0.33236639  1
  Na  Na10  1  0.33320274  0.66662894  0.16166444  1
  Na  Na11  1  0.34513873  0.66559132  0.66160968  1
  Hf  Hf12  1  0.99900581  0.99810007  0.85468036  1
  Hf  Hf13  1  0.99659331  0.99649585  0.64338140  1
  Hf  Hf14  1  0.00055438  0.00030232  0.14543560  1
  Hf  Hf15  1  0.66692208  0.33271029  0.98239056  1
  Hf  Hf16  1  0.66613060  0.32805881  0.48299299  1
  Hf  Hf17  1  0.33311498  0.66646950  0.02067215  1
  Hf  Hf18  1  0.33086975  0.66617883  0.52039918  1
  Hf  Hf19  1  0.33079090  0.66665644  0.31681761  1
  Hf  Hf20  1  0.33785560  0.66588267  0.81526159  1
  Mg  Mg21  1  0.00612822  0.00695549  0.35302734  1
  Mg  Mg22  1  0.66558034  0.34004469  0.68249382  1
  Mg  Mg23  1  0.66665784  0.33310329  0.18093080  1
  P  P24  1  0.29141783  0.00240842  0.25136581  1
  P  P25  1  0.70980554  0.70774952  0.25255740  1
  P  P26  1  0.99710753  0.28842534  0.25145559  1
  P  P27  1  0.29173711  0.28984363  0.74970741  1
  P  P28  1  0.99618129  0.70645868  0.75031353  1
  P  P29  1  0.70891216  0.00033631  0.74977374  1
  P  P30  1  0.95817641  0.33439923  0.58672792  1
  P  P31  1  0.37682644  0.04157847  0.58666222  1
  P  P32  1  0.66480456  0.62172039  0.58366282  1
  P  P33  1  0.95761570  0.62407477  0.08566613  1
  P  P34  1  0.66581000  0.04163962  0.08566969  1
  P  P35  1  0.37596944  0.33403771  0.08563078  1
  P  P36  1  0.62559403  0.66520603  0.91784348  1
  P  P37  1  0.04062003  0.37506644  0.91633074  1
  P  P38  1  0.33528394  0.95948253  0.91648237  1
  P  P39  1  0.62884884  0.96135295  0.41648274  1
  P  P40  1  0.32979947  0.36950469  0.41719993  1
  P  P41  1  0.03816572  0.66888458  0.41702939  1
  O  O42  1  0.20772003  0.03064427  0.30443409  1
  O  O43  1  0.81563902  0.78658404  0.30780362  1
  O  O44  1  0.96753246  0.17608853  0.30450144  1
  O  O45  1  0.20013623  0.17595053  0.80428243  1
  O  O46  1  0.97844689  0.79847078  0.80512863  1
  O  O47  1  0.82279238  0.02332646  0.80408077  1
  O  O48  1  0.79484641  0.97287642  0.69558137  1
  O  O49  1  0.17188488  0.20450264  0.69632131  1
  O  O50  1  0.03171933  0.82579035  0.69675493  1
  O  O51  1  0.79623413  0.82777540  0.19855443  1
  O  O52  1  0.03365074  0.20796155  0.19623665  1
  O  O53  1  0.17504750  0.96703346  0.19606909  1
  O  O54  1  0.88278445  0.35965260  0.64303111  1
  O  O55  1  0.47827096  0.11596930  0.64290619  1
  O  O56  1  0.63771748  0.51270445  0.63709102  1
  O  O57  1  0.88333815  0.52357963  0.14219159  1
  O  O58  1  0.63974463  0.11632726  0.14211289  1
  O  O59  1  0.47669992  0.36032825  0.14213011  1
  O  O60  1  0.46660967  0.31056571  0.03125081  1
  O  O61  1  0.84380251  0.53336652  0.03128783  1
  O  O62  1  0.68988484  0.15568140  0.03125044  1
  O  O63  1  0.46668673  0.15631363  0.53206067  1
  O  O64  1  0.69058834  0.54125347  0.52628413  1
  O  O65  1  0.84374560  0.31087173  0.53217209  1
  O  O66  1  0.53731007  0.69063614  0.97137899  1
  O  O67  1  0.15672623  0.46613225  0.96923061  1
  O  O68  1  0.31055076  0.84377227  0.96941100  1
  O  O69  1  0.53090894  0.84180426  0.46860702  1
  O  O70  1  0.31458635  0.46957015  0.46976010  1
  O  O71  1  0.15347947  0.68617816  0.46948776  1
  O  O72  1  0.12219827  0.64140146  0.36027322  1
  O  O73  1  0.51635157  0.87642126  0.35981350  1
  O  O74  1  0.36322506  0.48700933  0.36100837  1
  O  O75  1  0.12525644  0.48309448  0.85975663  1
  O  O76  1  0.35832772  0.87446820  0.85997054  1
  O  O77  1  0.51365191  0.64163110  0.86251237  1
  O  O78  1  0.01407779  0.82515089  0.41228939  1
  O  O79  1  0.80339781  0.97122588  0.41143485  1
  O  O80  1  0.17248182  0.19328394  0.41187671  1
  O  O81  1  0.02278135  0.19441524  0.91009801  1
  O  O82  1  0.17204005  0.97726786  0.91046527  1
  O  O83  1  0.80572935  0.82810325  0.91078380  1
  O  O84  1  0.97772477  0.17049222  0.58928925  1
  O  O85  1  0.19336161  0.02241998  0.58974979  1
  O  O86  1  0.82906185  0.80527222  0.58867795  1
  O  O87  1  0.97688395  0.80732294  0.08905997  1
  O  O88  1  0.82971112  0.02172923  0.08913151  1
  O  O89  1  0.19243541  0.17001050  0.08897665  1
  O  O90  1  0.68914548  0.16110365  0.74584649  1
  O  O91  1  0.46880963  0.30511939  0.74483765  1
  O  O92  1  0.84271504  0.52424974  0.74557264  1
  O  O93  1  0.68307589  0.52495102  0.24386748  1
  O  O94  1  0.84170700  0.31719996  0.24332189  1
  O  O95  1  0.47555480  0.15771801  0.24346087  1
  O  O96  1  0.64400623  0.50350228  0.92330094  1
  O  O97  1  0.86050080  0.35713142  0.92279144  1
  O  O98  1  0.49694080  0.13959238  0.92282554  1
  O  O99  1  0.64272654  0.14001918  0.42289862  1
  O  O100  1  0.50269867  0.36551523  0.42295978  1
  O  O101  1  0.85663369  0.50272231  0.42276740  1
  O  O102  1  0.35228233  0.49365644  0.07597667  1
  O  O103  1  0.14109064  0.64745284  0.07594656  1
  O  O104  1  0.50560589  0.85884216  0.07596969  1
  O  O105  1  0.35337969  0.85907346  0.57628374  1
  O  O106  1  0.50621001  0.64820495  0.57528010  1
  O  O107  1  0.14098778  0.49392090  0.57672027  1
  O  O108  1  0.30748008  0.83349492  0.25618098  1
  O  O109  1  0.52457054  0.69139612  0.25623698  1
  O  O110  1  0.16588735  0.47343256  0.25665143  1
  O  O111  1  0.30150583  0.46899450  0.75683120  1
  O  O112  1  0.16694053  0.69453004  0.75681693  1
  O  O113  1  0.52442350  0.83808245  0.75631917  1
