# generated using pymatgen
data_Na6Zr2Si5Ge2SO24
_symmetry_space_group_name_H-M   'P 1'
_cell_length_a   8.96117078
_cell_length_b   8.96616122
_cell_length_c   22.27752365
_cell_angle_alpha   89.87947377
_cell_angle_beta   89.19440737
_cell_angle_gamma   120.02223882
_symmetry_Int_Tables_number   1
_chemical_formula_structural   Na6Zr2Si5Ge2SO24
_chemical_formula_sum   'Na18 Zr6 Si15 Ge6 S3 O72'
_cell_volume   1549.54557030
_cell_formula_units_Z   3
loop_
 _symmetry_equiv_pos_site_id
 _symmetry_equiv_pos_as_xyz
  1  'x, y, z'
loop_
 _atom_site_type_symbol
 _atom_site_label
 _atom_site_symmetry_multiplicity
 _atom_site_fract_x
 _atom_site_fract_y
 _atom_site_fract_z
 _atom_site_occupancy
  Na  Na0  1  0.63431534  0.99743978  0.25534208  1
  Na  Na1  1  0.36094351  0.36671904  0.24883197  1
  Na  Na2  1  0.00222196  0.63050154  0.25240661  1
  Na  Na3  1  0.63471950  0.63324579  0.74712509  1
  Na  Na4  1  0.99224133  0.36092646  0.74830737  1
  Na  Na5  1  0.36838579  0.00898456  0.74864653  1
  Na  Na6  1  0.29663638  0.33531010  0.58245051  1
  Na  Na7  1  0.03477423  0.70710766  0.58370971  1
  Na  Na8  1  0.67376691  0.96456069  0.58340046  1
  Na  Na9  1  0.03625026  0.33956640  0.08914821  1
  Na  Na10  1  0.97587637  0.66689059  0.91662703  1
  Na  Na11  1  0.33393853  0.03390116  0.41808706  1
  Na  Na12  1  0.98232582  0.99316537  0.49708518  1
  Na  Na13  1  0.03205755  0.01334096  0.99810393  1
  Na  Na14  1  0.66072689  0.31230219  0.82876480  1
  Na  Na15  1  0.69007507  0.34405038  0.34351275  1
  Na  Na16  1  0.33700781  0.66473424  0.16750658  1
  Na  Na17  1  0.33635183  0.66629883  0.66446537  1
  Zr  Zr18  1  0.00956879  0.01302238  0.84858601  1
  Zr  Zr19  1  0.00930129  0.99253671  0.14672662  1
  Zr  Zr20  1  0.66394986  0.33833418  0.19102775  1
  Zr  Zr21  1  0.65587378  0.32442930  0.97419481  1
  Zr  Zr22  1  0.32143944  0.66044764  0.01952306  1
  Zr  Zr23  1  0.32566446  0.66915334  0.32171796  1
  Si  Si24  1  0.28207689  0.99883815  0.25958731  1
  Si  Si25  1  0.71073491  0.71392862  0.25396645  1
  Si  Si26  1  0.99804847  0.27708442  0.25448072  1
  Si  Si27  1  0.29858628  0.29846817  0.74288542  1
  Si  Si28  1  0.99206108  0.70629184  0.74504664  1
  Si  Si29  1  0.70573161  0.00041504  0.74453362  1
  Si  Si30  1  0.96075319  0.33427903  0.58472075  1
  Si  Si31  1  0.38402989  0.05523148  0.58343055  1
  Si  Si32  1  0.66687994  0.61931215  0.58214477  1
  Si  Si33  1  0.95590811  0.62931436  0.07984154  1
  Si  Si34  1  0.37058014  0.33581266  0.08494393  1
  Si  Si35  1  0.04592207  0.37755491  0.91127621  1
  Si  Si36  1  0.33609428  0.95376779  0.90814746  1
  Si  Si37  1  0.63594382  0.96978757  0.42182553  1
  Si  Si38  1  0.02802217  0.66499526  0.42361094  1
  Ge  Ge39  1  0.97471037  0.97396276  0.35473639  1
  Ge  Ge40  1  0.00099393  0.00326243  0.64584141  1
  Ge  Ge41  1  0.66848248  0.33752477  0.68227808  1
  Ge  Ge42  1  0.68946139  0.33169217  0.48816288  1
  Ge  Ge43  1  0.33976394  0.68901408  0.52283349  1
  Ge  Ge44  1  0.31705427  0.67141248  0.80390768  1
  S  S45  1  0.66577542  0.03808256  0.08414339  1
  S  S46  1  0.62130878  0.66735940  0.91141357  1
  S  S47  1  0.33442039  0.37196653  0.42223076  1
  O  O48  1  0.19047807  0.03107298  0.31887926  1
  O  O49  1  0.83710505  0.78869692  0.31176214  1
  O  O50  1  0.96225068  0.14196488  0.30993389  1
  O  O51  1  0.22041452  0.16893881  0.80055060  1
  O  O52  1  0.95010832  0.77801665  0.80592772  1
  O  O53  1  0.83387180  0.04635937  0.80073886  1
  O  O54  1  0.79150236  0.95447131  0.68600434  1
  O  O55  1  0.16490002  0.21315257  0.68647944  1
  O  O56  1  0.03778337  0.84172815  0.68799524  1
  O  O57  1  0.78777061  0.83656994  0.19501969  1
  O  O58  1  0.03245845  0.21048565  0.19017968  1
  O  O59  1  0.16586799  0.95967323  0.19969607  1
  O  O60  1  0.87886999  0.38217548  0.64298915  1
  O  O61  1  0.50995750  0.13558649  0.64132895  1
  O  O62  1  0.62282340  0.49829610  0.64298815  1
  O  O63  1  0.86727644  0.51155528  0.14115853  1
  O  O64  1  0.64554081  0.11484841  0.14074162  1
  O  O65  1  0.46680724  0.33671317  0.14737813  1
  O  O66  1  0.47163550  0.31401357  0.02714762  1
  O  O67  1  0.85362628  0.52428581  0.02013343  1
  O  O68  1  0.68284221  0.14619815  0.03115989  1
  O  O69  1  0.47052248  0.18022352  0.52417146  1
  O  O70  1  0.71134737  0.52344110  0.52848637  1
  O  O71  1  0.82761640  0.27537319  0.52902233  1
  O  O72  1  0.53611679  0.67701634  0.96695054  1
  O  O73  1  0.14906886  0.45995596  0.97370567  1
  O  O74  1  0.32019364  0.84219695  0.96792744  1
  O  O75  1  0.53794549  0.84264745  0.48112551  1
  O  O76  1  0.31717217  0.46352795  0.47599808  1
  O  O77  1  0.16948927  0.70884387  0.47911337  1
  O  O78  1  0.10528647  0.63239953  0.36121290  1
  O  O79  1  0.51335474  0.88722323  0.36299865  1
  O  O80  1  0.34873441  0.47065408  0.36589543  1
  O  O81  1  0.14843408  0.50312202  0.85174336  1
  O  O82  1  0.35506799  0.86190183  0.84614151  1
  O  O83  1  0.52652923  0.65295740  0.85616442  1
  O  O84  1  0.02533999  0.84844985  0.41623127  1
  O  O85  1  0.82486581  0.98301054  0.41346137  1
  O  O86  1  0.17792427  0.19777278  0.42142101  1
  O  O87  1  0.01910494  0.18492298  0.91060379  1
  O  O88  1  0.15382037  0.95483901  0.90857098  1
  O  O89  1  0.79726819  0.82061808  0.91091249  1
  O  O90  1  0.97980290  0.16044411  0.59152295  1
  O  O91  1  0.18897688  0.03227102  0.59002982  1
  O  O92  1  0.84147285  0.81409869  0.58783246  1
  O  O93  1  0.96967774  0.81611138  0.08008420  1
  O  O94  1  0.82751553  0.03286554  0.08471036  1
  O  O95  1  0.17175362  0.17607220  0.08210378  1
  O  O96  1  0.68334750  0.17157531  0.73761228  1
  O  O97  1  0.48966034  0.31516828  0.73697801  1
  O  O98  1  0.82277734  0.51239668  0.73798429  1
  O  O99  1  0.69479256  0.52388415  0.24980037  1
  O  O100  1  0.82541265  0.29724223  0.25172808  1
  O  O101  1  0.47425956  0.16799327  0.25488367  1
  O  O102  1  0.64272418  0.51097843  0.91381412  1
  O  O103  1  0.86141749  0.37445557  0.91151719  1
  O  O104  1  0.50410007  0.14564967  0.91040079  1
  O  O105  1  0.64012736  0.15580143  0.42986669  1
  O  O106  1  0.49207219  0.35630577  0.42237636  1
  O  O107  1  0.84080717  0.48892451  0.43158304  1
  O  O108  1  0.36047302  0.51274524  0.08435900  1
  O  O109  1  0.14889124  0.64926785  0.08219926  1
  O  O110  1  0.51545764  0.86515575  0.07999131  1
  O  O111  1  0.36067161  0.85745485  0.57891072  1
  O  O112  1  0.49109573  0.63943382  0.57486812  1
  O  O113  1  0.15392623  0.50983504  0.57405715  1
  O  O114  1  0.30749242  0.82997363  0.26009747  1
  O  O115  1  0.51618056  0.68227652  0.26135338  1
  O  O116  1  0.16733123  0.46987621  0.26127326  1
  O  O117  1  0.31839322  0.49166951  0.75297075  1
  O  O118  1  0.16895484  0.68744368  0.74797529  1
  O  O119  1  0.51291823  0.82236711  0.75244456  1
