# generated using pymatgen
data_Pr3InSe6
_symmetry_space_group_name_H-M   'P 1'
_cell_length_a   4.15692219
_cell_length_b   14.50521047
_cell_length_c   17.67494590
_cell_angle_alpha   90.00000000
_cell_angle_beta   90.00000000
_cell_angle_gamma   90.00000000
_symmetry_Int_Tables_number   1
_chemical_formula_structural   Pr3InSe6
_chemical_formula_sum   'Pr12 In4 Se24'
_cell_volume   1065.74676569
_cell_formula_units_Z   4
loop_
 _symmetry_equiv_pos_site_id
 _symmetry_equiv_pos_as_xyz
  1  'x, y, z'
loop_
 _atom_site_type_symbol
 _atom_site_label
 _atom_site_symmetry_multiplicity
 _atom_site_fract_x
 _atom_site_fract_y
 _atom_site_fract_z
 _atom_site_occupancy
  Pr  Pr0  1  0.50000000  0.68738716  0.35471652  1
  Pr  Pr1  1  0.50000000  0.31261284  0.64528348  1
  Pr  Pr2  1  -0.00000000  0.18738716  0.14528348  1
  Pr  Pr3  1  -0.00000000  0.81261284  0.85471652  1
  Pr  Pr4  1  0.00000000  0.74778280  0.10536442  1
  Pr  Pr5  1  0.00000000  0.25221720  0.89463558  1
  Pr  Pr6  1  0.50000000  0.24778280  0.39463558  1
  Pr  Pr7  1  0.50000000  0.75221720  0.60536442  1
  Pr  Pr8  1  0.00000000  0.95902387  0.27714646  1
  Pr  Pr9  1  0.00000000  0.04097613  0.72285354  1
  Pr  Pr10  1  0.50000000  0.45902387  0.22285354  1
  Pr  Pr11  1  0.50000000  0.54097613  0.77714646  1
  In  In12  1  0.00000000  0.50000000  -0.00000000  1
  In  In13  1  0.50000000  0.00000000  0.50000000  1
  In  In14  1  0.00000000  0.50000000  0.50000000  1
  In  In15  1  0.50000000  0.00000000  -0.00000000  1
  Se  Se16  1  -0.00000000  0.97769332  0.10233745  1
  Se  Se17  1  -0.00000000  0.02230668  0.89766255  1
  Se  Se18  1  0.50000000  0.47769332  0.39766255  1
  Se  Se19  1  0.50000000  0.52230668  0.60233745  1
  Se  Se20  1  -0.00000000  0.68851269  0.48093440  1
  Se  Se21  1  0.00000000  0.31148731  0.51906560  1
  Se  Se22  1  0.50000000  0.18851269  0.01906560  1
  Se  Se23  1  0.50000000  0.81148731  0.98093440  1
  Se  Se24  1  0.50000000  0.88796004  0.38664219  1
  Se  Se25  1  0.50000000  0.11203996  0.61335781  1
  Se  Se26  1  -0.00000000  0.38796004  0.11335781  1
  Se  Se27  1  -0.00000000  0.61203996  0.88664219  1
  Se  Se28  1  0.00000000  0.61129095  0.25190575  1
  Se  Se29  1  -0.00000000  0.38870905  0.74809425  1
  Se  Se30  1  0.50000000  0.11129095  0.24809425  1
  Se  Se31  1  0.50000000  0.88870905  0.75190575  1
  Se  Se32  1  0.00000000  0.90654041  0.58339684  1
  Se  Se33  1  0.00000000  0.09345959  0.41660316  1
  Se  Se34  1  0.50000000  0.40654041  0.91660316  1
  Se  Se35  1  0.50000000  0.59345959  0.08339684  1
  Se  Se36  1  -0.00000000  0.68211326  0.71491703  1
  Se  Se37  1  -0.00000000  0.31788674  0.28508297  1
  Se  Se38  1  0.50000000  0.18211326  0.78508297  1
  Se  Se39  1  0.50000000  0.81788674  0.21491703  1
