# generated using pymatgen
data_Na2TaSi2SnPO12
_symmetry_space_group_name_H-M   'P 1'
_cell_length_a   8.93636160
_cell_length_b   8.93636129
_cell_length_c   22.68199792
_cell_angle_alpha   89.80556544
_cell_angle_beta   90.19443457
_cell_angle_gamma   119.83148462
_symmetry_Int_Tables_number   1
_chemical_formula_structural   Na2TaSi2SnPO12
_chemical_formula_sum   'Na12 Ta6 Si12 Sn6 P6 O72'
_cell_volume   1571.32135303
_cell_formula_units_Z   6
loop_
 _symmetry_equiv_pos_site_id
 _symmetry_equiv_pos_as_xyz
  1  'x, y, z'
loop_
 _atom_site_type_symbol
 _atom_site_label
 _atom_site_symmetry_multiplicity
 _atom_site_fract_x
 _atom_site_fract_y
 _atom_site_fract_z
 _atom_site_occupancy
  Na  Na0  1  0.99237867  0.62924620  0.25012721  1
  Na  Na1  1  0.37075380  0.00762133  0.75012721  1
  Na  Na2  1  0.65904567  0.96257920  0.58346021  1
  Na  Na3  1  0.03742080  0.34095433  0.08346021  1
  Na  Na4  1  0.32571167  0.29591320  0.91679421  1
  Na  Na5  1  0.70408680  0.67428833  0.41679421  1
  Na  Na6  1  0.01291553  0.00199795  0.49737232  1
  Na  Na7  1  0.99800205  0.98708447  0.99737232  1
  Na  Na8  1  0.67958253  0.33533095  0.83070532  1
  Na  Na9  1  0.66466905  0.32041747  0.33070532  1
  Na  Na10  1  0.34624853  0.66866495  0.16403932  1
  Na  Na11  1  0.33133505  0.65375147  0.66403932  1
  Ta  Ta12  1  0.00127162  0.00043716  0.64539288  1
  Ta  Ta13  1  -0.00043716  0.99872838  0.14539288  1
  Ta  Ta14  1  0.66793862  0.33377016  0.97872588  1
  Ta  Ta15  1  0.66622984  0.33206138  0.47872588  1
  Ta  Ta16  1  0.33460462  0.66710416  0.31205988  1
  Ta  Ta17  1  0.33289584  0.66539538  0.81205988  1
  Si  Si18  1  0.70761905  0.70940308  0.25034610  1
  Si  Si19  1  0.99795470  0.28805219  0.24945179  1
  Si  Si20  1  0.29059692  0.29238095  0.75034610  1
  Si  Si21  1  0.71194781  0.00204530  0.74945179  1
  Si  Si22  1  0.37428605  0.04273608  0.58367910  1
  Si  Si23  1  0.66462170  0.62138519  0.58278479  1
  Si  Si24  1  0.95726392  0.62571395  0.08367910  1
  Si  Si25  1  0.37861481  0.33537830  0.08278479  1
  Si  Si26  1  0.04095205  0.37607008  0.91701310  1
  Si  Si27  1  0.33128770  0.95471919  0.91611879  1
  Si  Si28  1  0.62392992  0.95904795  0.41701310  1
  Si  Si29  1  0.04528081  0.66871230  0.41611879  1
  Sn  Sn30  1  0.99882490  0.00167220  0.35245143  1
  Sn  Sn31  1  0.99832780  0.00117510  0.85245143  1
  Sn  Sn32  1  0.66549190  0.33500520  0.68578443  1
  Sn  Sn33  1  0.66499480  0.33450810  0.18578443  1
  Sn  Sn34  1  0.33215790  0.66833920  0.01911843  1
  Sn  Sn35  1  0.33166080  0.66784210  0.51911843  1
  P  P36  1  0.29084318  0.00392716  0.25065198  1
  P  P37  1  0.99607284  0.70915682  0.75065198  1
  P  P38  1  0.95751018  0.33726016  0.58398498  1
  P  P39  1  0.66273984  0.04248982  0.08398498  1
  P  P40  1  0.62417618  0.67059416  0.91731898  1
  P  P41  1  0.32940584  0.37582382  0.41731898  1
  O  O42  1  0.21260209  0.03217435  0.30582615  1
  O  O43  1  0.82738049  0.78414961  0.30901426  1
  O  O44  1  0.96975573  0.17482527  0.30746344  1
  O  O45  1  0.21585039  0.17261951  0.80901426  1
  O  O46  1  0.96782565  0.78739791  0.80582615  1
  O  O47  1  0.82517473  0.03024427  0.80746344  1
  O  O48  1  0.80040576  0.97117219  0.69012107  1
  O  O49  1  0.16387319  0.19071722  0.69357531  1
  O  O50  1  0.02924497  0.82945761  0.69572195  1
  O  O51  1  0.80928278  0.83612681  0.19357531  1
  O  O52  1  0.02882781  0.19959424  0.19012107  1
  O  O53  1  0.17054239  0.97075503  0.19572195  1
  O  O54  1  0.87926909  0.36550735  0.63915915  1
  O  O55  1  0.49404749  0.11748261  0.64234726  1
  O  O56  1  0.63642273  0.50815827  0.64079644  1
  O  O57  1  0.88251739  0.50595251  0.14234726  1
  O  O58  1  0.63449265  0.12073091  0.13915915  1
  O  O59  1  0.49184173  0.36357727  0.14079644  1
  O  O60  1  0.46707276  0.30450519  0.02345407  1
  O  O61  1  0.83054019  0.52405022  0.02690831  1
  O  O62  1  0.69591197  0.16279061  0.02905495  1
  O  O63  1  0.47594978  0.16945981  0.52690831  1
  O  O64  1  0.69549481  0.53292724  0.52345407  1
  O  O65  1  0.83720939  0.30408803  0.52905495  1
  O  O66  1  0.54593509  0.69884135  0.97249315  1
  O  O67  1  0.16071349  0.45081661  0.97568126  1
  O  O68  1  0.30308873  0.84149227  0.97413044  1
  O  O69  1  0.54918339  0.83928651  0.47568126  1
  O  O70  1  0.30115865  0.45406491  0.47249315  1
  O  O71  1  0.15850773  0.69691127  0.47413044  1
  O  O72  1  0.13373876  0.63783919  0.35678807  1
  O  O73  1  0.49720619  0.85738422  0.36024231  1
  O  O74  1  0.36257797  0.49612461  0.36238895  1
  O  O75  1  0.14261578  0.50279381  0.86024231  1
  O  O76  1  0.36216081  0.86626124  0.85678807  1
  O  O77  1  0.50387539  0.63742203  0.86238895  1
  O  O78  1  0.01803654  0.83582744  0.41101581  1
  O  O79  1  0.81279017  0.97495937  0.41135656  1
  O  O80  1  0.17636986  0.19429001  0.41006590  1
  O  O81  1  0.02504063  0.18720983  0.91135656  1
  O  O82  1  0.16417256  0.98196346  0.91101581  1
  O  O83  1  0.80570999  0.82363014  0.91006590  1
  O  O84  1  0.96476787  0.16505633  0.58943213  1
  O  O85  1  0.18466624  0.02782144  0.59054400  1
  O  O86  1  0.83659120  0.81780497  0.59006968  1
  O  O87  1  0.97217856  0.81533376  0.09054400  1
  O  O88  1  0.83494367  0.03523213  0.08943213  1
  O  O89  1  0.18219503  0.16340880  0.09006968  1
  O  O90  1  0.68470354  0.16916044  0.74434881  1
  O  O91  1  0.47945717  0.30829237  0.74468956  1
  O  O92  1  0.84303686  0.52762301  0.74339890  1
  O  O93  1  0.69170763  0.52054283  0.24468956  1
  O  O94  1  0.83083956  0.31529646  0.24434881  1
  O  O95  1  0.47237699  0.15696314  0.24339890  1
  O  O96  1  0.63143487  0.49838933  0.92276513  1
  O  O97  1  0.85133324  0.36115444  0.92387700  1
  O  O98  1  0.50325820  0.15113797  0.92340268  1
  O  O99  1  0.63884556  0.14866676  0.42387700  1
  O  O100  1  0.50161067  0.36856513  0.42276513  1
  O  O101  1  0.84886203  0.49674180  0.42340268  1
  O  O102  1  0.35136954  0.50249444  0.07768281  1
  O  O103  1  0.14612317  0.64162637  0.07802356  1
  O  O104  1  0.50970286  0.86095701  0.07673290  1
  O  O105  1  0.35837363  0.85387683  0.57802356  1
  O  O106  1  0.49750556  0.64863046  0.57768281  1
  O  O107  1  0.13904299  0.49029714  0.57673290  1
  O  O108  1  0.29810087  0.83172333  0.25609913  1
  O  O109  1  0.51799924  0.69448844  0.25721100  1
  O  O110  1  0.16992420  0.48447197  0.25673668  1
  O  O111  1  0.30551156  0.48200076  0.75721100  1
  O  O112  1  0.16827667  0.70189913  0.75609913  1
  O  O113  1  0.51552803  0.83007580  0.75673668  1
