# generated using pymatgen
data_Tl3PbBr5
_symmetry_space_group_name_H-M   'P 1'
_cell_length_a   8.55309085
_cell_length_b   9.12194513
_cell_length_c   15.49334099
_cell_angle_alpha   90.00000000
_cell_angle_beta   90.00000000
_cell_angle_gamma   90.00000000
_symmetry_Int_Tables_number   1
_chemical_formula_structural   Tl3PbBr5
_chemical_formula_sum   'Tl12 Pb4 Br20'
_cell_volume   1208.80325264
_cell_formula_units_Z   4
loop_
 _symmetry_equiv_pos_site_id
 _symmetry_equiv_pos_as_xyz
  1  'x, y, z'
loop_
 _atom_site_type_symbol
 _atom_site_label
 _atom_site_symmetry_multiplicity
 _atom_site_fract_x
 _atom_site_fract_y
 _atom_site_fract_z
 _atom_site_occupancy
  Tl  Tl0  1  0.77455116  0.70548724  0.44730818  1
  Tl  Tl1  1  0.27455116  0.79451276  0.55269182  1
  Tl  Tl2  1  0.22544884  0.20548724  0.05269182  1
  Tl  Tl3  1  0.72544884  0.29451276  0.94730818  1
  Tl  Tl4  1  0.91388276  0.16733696  0.52228350  1
  Tl  Tl5  1  0.41388276  0.33266304  0.47771650  1
  Tl  Tl6  1  0.08611724  0.66733696  0.97771650  1
  Tl  Tl7  1  0.58611724  0.83266304  0.02228350  1
  Tl  Tl8  1  0.93864292  0.08943898  0.21336308  1
  Tl  Tl9  1  0.43864292  0.41056102  0.78663692  1
  Tl  Tl10  1  0.06135708  0.58943898  0.28663692  1
  Tl  Tl11  1  0.56135708  0.91056102  0.71336308  1
  Pb  Pb12  1  0.57630490  0.45590302  0.20570863  1
  Pb  Pb13  1  0.07630490  0.04409698  0.79429137  1
  Pb  Pb14  1  0.42369510  0.95590302  0.29429137  1
  Pb  Pb15  1  0.92369510  0.54409698  0.70570863  1
  Br  Br16  1  0.73604481  0.65457845  0.84987176  1
  Br  Br17  1  0.23604481  0.84542155  0.15012824  1
  Br  Br18  1  0.26395519  0.15457845  0.65012824  1
  Br  Br19  1  0.76395519  0.34542155  0.34987176  1
  Br  Br20  1  0.27486479  0.28745574  0.27409719  1
  Br  Br21  1  0.77486479  0.21254426  0.72590281  1
  Br  Br22  1  0.72513521  0.78745574  0.22590281  1
  Br  Br23  1  0.22513521  0.71254426  0.77409719  1
  Br  Br24  1  0.91583690  0.85238081  0.63483113  1
  Br  Br25  1  0.41583690  0.64761919  0.36516887  1
  Br  Br26  1  0.08416310  0.35238081  0.86516887  1
  Br  Br27  1  0.58416310  0.14761919  0.13483113  1
  Br  Br28  1  0.60214989  0.55648664  0.61098885  1
  Br  Br29  1  0.10214989  0.94351336  0.38901115  1
  Br  Br30  1  0.39785011  0.05648664  0.88901115  1
  Br  Br31  1  0.89785011  0.44351336  0.11098885  1
  Br  Br32  1  0.07666868  0.49748711  0.52333069  1
  Br  Br33  1  0.57666868  0.00251289  0.47666931  1
  Br  Br34  1  0.92333132  0.99748711  0.97666931  1
  Br  Br35  1  0.42333132  0.50251289  0.02333069  1
