# generated using pymatgen
data_Na9Nb2Zn10P3(S5O24)3
_symmetry_space_group_name_H-M   'P 1'
_cell_length_a   8.78020675
_cell_length_b   8.79108725
_cell_length_c   22.59173961
_cell_angle_alpha   89.60236168
_cell_angle_beta   90.34507968
_cell_angle_gamma   119.92742833
_symmetry_Int_Tables_number   1
_chemical_formula_structural   Na9Nb2Zn10P3(S5O24)3
_chemical_formula_sum   'Na9 Nb2 Zn10 P3 S15 O72'
_cell_volume   1511.23641790
_cell_formula_units_Z   1
loop_
 _symmetry_equiv_pos_site_id
 _symmetry_equiv_pos_as_xyz
  1  'x, y, z'
loop_
 _atom_site_type_symbol
 _atom_site_label
 _atom_site_symmetry_multiplicity
 _atom_site_fract_x
 _atom_site_fract_y
 _atom_site_fract_z
 _atom_site_occupancy
  Na  Na0  1  0.66718667  0.96952475  0.58662492  1
  Na  Na1  1  0.30139790  0.96930465  0.08662481  1
  Na  Na2  1  0.33271002  0.04031803  0.41526503  1
  Na  Na3  1  0.00574877  0.00806153  0.50088518  1
  Na  Na4  1  0.98855842  0.00203068  0.00027562  1
  Na  Na5  1  0.66915524  0.32699516  0.83146070  1
  Na  Na6  1  0.66515117  0.33775742  0.33050326  1
  Na  Na7  1  0.33347160  0.65871390  0.16081535  1
  Na  Na8  1  0.32322334  0.65625483  0.66050203  1
  Nb  Nb9  1  0.33386750  0.66281229  0.31274883  1
  Nb  Nb10  1  0.33906425  0.67158097  0.81272822  1
  Zn  Zn11  1  0.01098176  0.01149510  0.34732895  1
  Zn  Zn12  1  0.99424049  0.00314762  0.84801104  1
  Zn  Zn13  1  0.99745965  0.99809049  0.65290480  1
  Zn  Zn14  1  0.00052614  0.99720330  0.15256723  1
  Zn  Zn15  1  0.66757649  0.32722292  0.68303520  1
  Zn  Zn16  1  0.65822302  0.32544777  0.18289223  1
  Zn  Zn17  1  0.67204101  0.33672845  0.98508410  1
  Zn  Zn18  1  0.66472618  0.34673013  0.48443282  1
  Zn  Zn19  1  0.33219986  0.65802564  0.01704505  1
  Zn  Zn20  1  0.32395413  0.64743631  0.51735375  1
  P  P21  1  0.29854257  0.00675272  0.25044308  1
  P  P22  1  0.71307619  0.01016892  0.74918545  1
  P  P23  1  0.33190938  0.36937104  0.41874049  1
  S  S24  1  0.71203219  0.70774307  0.25116130  1
  S  S25  1  0.99457255  0.29122295  0.24992456  1
  S  S26  1  0.29489827  0.29112359  0.75111644  1
  S  S27  1  0.99625300  0.70635842  0.75139037  1
  S  S28  1  0.96009664  0.33459005  0.58312821  1
  S  S29  1  0.36679068  0.03575310  0.58197964  1
  S  S30  1  0.66909518  0.62927695  0.58449461  1
  S  S31  1  0.95935878  0.62699429  0.08342538  1
  S  S32  1  0.66972672  0.03832891  0.08270621  1
  S  S33  1  0.37246283  0.33492249  0.08277101  1
  S  S34  1  0.62843989  0.66661498  0.91826139  1
  S  S35  1  0.04067227  0.37311243  0.91743490  1
  S  S36  1  0.33123573  0.96107746  0.91796691  1
  S  S37  1  0.63056090  0.95881698  0.41799028  1
  S  S38  1  0.03979197  0.66473628  0.41733435  1
  O  O39  1  0.21697540  0.02572683  0.30739668  1
  O  O40  1  0.81163667  0.78899200  0.30500173  1
  O  O41  1  0.97001796  0.18988266  0.30411007  1
  O  O42  1  0.21736317  0.18817436  0.80477697  1
  O  O43  1  0.97769103  0.78712673  0.80497686  1
  O  O44  1  0.81867660  0.02939032  0.80448395  1
  O  O45  1  0.77235013  0.96296866  0.69212975  1
  O  O46  1  0.18732235  0.22277064  0.69776205  1
  O  O47  1  0.03792257  0.81395966  0.69785521  1
  O  O48  1  0.77817521  0.81437001  0.19759748  1
  O  O49  1  0.03243691  0.22130542  0.19725822  1
  O  O50  1  0.18814882  0.96394745  0.19383318  1
  O  O51  1  0.87976955  0.35715047  0.63696413  1
  O  O52  1  0.48206127  0.11986690  0.63376478  1
  O  O53  1  0.64541276  0.52242086  0.63757091  1
  O  O54  1  0.87801652  0.52160036  0.13683615  1
  O  O55  1  0.63752025  0.11754710  0.13542204  1
  O  O56  1  0.47756605  0.36016466  0.13676046  1
  O  O57  1  0.45251460  0.30424624  0.02960687  1
  O  O58  1  0.85736229  0.54791110  0.02895799  1
  O  O59  1  0.69378538  0.14280970  0.02824975  1
  O  O60  1  0.44360364  0.13601193  0.52602280  1
  O  O61  1  0.69137604  0.55159758  0.52996170  1
  O  O62  1  0.84906232  0.30495925  0.52958250  1
  O  O63  1  0.54546114  0.69161059  0.97022259  1
  O  O64  1  0.14522191  0.45541388  0.97051637  1
  O  O65  1  0.30876866  0.85807142  0.97206758  1
  O  O66  1  0.55036491  0.85886674  0.47238272  1
  O  O67  1  0.30731932  0.45543643  0.47233464  1
  O  O68  1  0.15286924  0.69887290  0.46943531  1
  O  O69  1  0.13485426  0.64756211  0.36320857  1
  O  O70  1  0.50908603  0.86324228  0.36496811  1
  O  O71  1  0.34913723  0.49034365  0.36245598  1
  O  O72  1  0.13694697  0.48700585  0.86362652  1
  O  O73  1  0.34975971  0.86097964  0.86491043  1
  O  O74  1  0.51292126  0.64924074  0.86382170  1
  O  O75  1  0.02212005  0.82161531  0.40926388  1
  O  O76  1  0.80139298  0.97306156  0.40867484  1
  O  O77  1  0.17036569  0.18555758  0.41133999  1
  O  O78  1  0.02599575  0.20003635  0.91074667  1
  O  O79  1  0.17360362  0.97530657  0.90856441  1
  O  O80  1  0.80167801  0.82261438  0.91023795  1
  O  O81  1  0.97566879  0.17251624  0.58779756  1
  O  O82  1  0.19149424  0.01739123  0.58904208  1
  O  O83  1  0.82705978  0.80919033  0.58823110  1
  O  O84  1  0.98235259  0.80756763  0.08713120  1
  O  O85  1  0.82582756  0.01799243  0.08947583  1
  O  O86  1  0.19575240  0.17249763  0.08779944  1
  O  O87  1  0.67572818  0.16143992  0.74425386  1
  O  O88  1  0.47491929  0.32444135  0.74486535  1
  O  O89  1  0.84633150  0.52869286  0.74529929  1
  O  O90  1  0.68371410  0.52963214  0.24545176  1
  O  O91  1  0.84760958  0.32443642  0.24381822  1
  O  O92  1  0.48531782  0.16176253  0.24494900  1
  O  O93  1  0.63401471  0.50249348  0.91877862  1
  O  O94  1  0.86842043  0.36385517  0.91814528  1
  O  O95  1  0.49431164  0.13155291  0.91814637  1
  O  O96  1  0.63693776  0.12997355  0.41801663  1
  O  O97  1  0.50022493  0.35492670  0.41815533  1
  O  O98  1  0.87075441  0.50170484  0.41937240  1
  O  O99  1  0.35269681  0.49189591  0.07719570  1
  O  O100  1  0.14172877  0.65187398  0.07913584  1
  O  O101  1  0.50485925  0.86211285  0.07746994  1
  O  O102  1  0.35565335  0.85991251  0.57762613  1
  O  O103  1  0.51211397  0.65474035  0.58043098  1
  O  O104  1  0.13613326  0.49250722  0.57859120  1
  O  O105  1  0.31596309  0.83312019  0.26163642  1
  O  O106  1  0.52614174  0.68825604  0.25879475  1
  O  O107  1  0.16195264  0.47477650  0.25798466  1
  O  O108  1  0.31079944  0.47476283  0.75968274  1
  O  O109  1  0.16152061  0.68558468  0.75993179  1
  O  O110  1  0.51975071  0.83483719  0.76191934  1
