# generated using pymatgen
data_NaSc3TaP3(SO8)3
_symmetry_space_group_name_H-M   'P 1'
_cell_length_a   8.83931354
_cell_length_b   8.82140399
_cell_length_c   23.00846738
_cell_angle_alpha   90.17772068
_cell_angle_beta   90.00270107
_cell_angle_gamma   120.06971225
_symmetry_Int_Tables_number   1
_chemical_formula_structural   NaSc3TaP3(SO8)3
_chemical_formula_sum   'Na3 Sc9 Ta3 P9 S9 O72'
_cell_volume   1552.62378233
_cell_formula_units_Z   3
loop_
 _symmetry_equiv_pos_site_id
 _symmetry_equiv_pos_as_xyz
  1  'x, y, z'
loop_
 _atom_site_type_symbol
 _atom_site_label
 _atom_site_symmetry_multiplicity
 _atom_site_fract_x
 _atom_site_fract_y
 _atom_site_fract_z
 _atom_site_occupancy
  Na  Na0  1  0.00129073  0.00945394  0.99965885  1
  Na  Na1  1  0.67535890  0.33864289  0.83390970  1
  Na  Na2  1  0.66448650  0.33785114  0.33611242  1
  Sc  Sc3  1  0.99830015  0.99703052  0.35672206  1
  Sc  Sc4  1  0.99795116  0.99968617  0.85388923  1
  Sc  Sc5  1  0.99131507  0.99986829  0.14621215  1
  Sc  Sc6  1  0.67242075  0.33833749  0.68391116  1
  Sc  Sc7  1  0.66786951  0.32591227  0.97989230  1
  Sc  Sc8  1  0.66121865  0.33315625  0.48365672  1
  Sc  Sc9  1  0.33392639  0.65803717  0.02295491  1
  Sc  Sc10  1  0.34250054  0.66113499  0.31117244  1
  Sc  Sc11  1  0.31726113  0.65994491  0.81155318  1
  Ta  Ta12  1  0.00259749  0.99448728  0.64388361  1
  Ta  Ta13  1  0.65895110  0.33281463  0.18391479  1
  Ta  Ta14  1  0.32973700  0.65739393  0.52364627  1
  P  P15  1  0.71373690  0.71144283  0.25014747  1
  P  P16  1  0.99724633  0.70991741  0.75099091  1
  P  P17  1  0.95323842  0.32868342  0.58336161  1
  P  P18  1  0.37877304  0.04268102  0.58335486  1
  P  P19  1  0.66671015  0.62302805  0.58344500  1
  P  P20  1  0.66557051  0.04199970  0.08226922  1
  P  P21  1  0.37276776  0.32941796  0.08104178  1
  P  P22  1  0.04255914  0.37596586  0.91696173  1
  P  P23  1  0.33479030  0.37670741  0.41584405  1
  S  S24  1  0.28981526  0.99905047  0.24979369  1
  S  S25  1  0.99727752  0.29053248  0.25006604  1
  S  S26  1  0.28983429  0.28757343  0.74993543  1
  S  S27  1  0.71114767  0.99991077  0.74987170  1
  S  S28  1  0.95559620  0.62296553  0.08303227  1
  S  S29  1  0.62259116  0.66592573  0.91619338  1
  S  S30  1  0.33246842  0.95549487  0.91675911  1
  S  S31  1  0.61991593  0.95523980  0.41678207  1
  S  S32  1  0.04567917  0.66465047  0.41624133  1
  O  O33  1  0.21851028  0.03839094  0.30204820  1
  O  O34  1  0.82811479  0.78956232  0.30453904  1
  O  O35  1  0.96324913  0.18061391  0.30204483  1
  O  O36  1  0.20796760  0.17891253  0.80148414  1
  O  O37  1  0.96991552  0.79926578  0.80357393  1
  O  O38  1  0.82193595  0.03137973  0.80159908  1
  O  O39  1  0.80189042  0.97885158  0.69687021  1
  O  O40  1  0.17658413  0.19955077  0.69676400  1
  O  O41  1  0.01901607  0.83011589  0.69560728  1
  O  O42  1  0.79826952  0.81979019  0.19596835  1
  O  O43  1  0.02553064  0.21210693  0.19797888  1
  O  O44  1  0.18748735  0.97711508  0.19748556  1
  O  O45  1  0.88072787  0.36947299  0.63726971  1
  O  O46  1  0.48858278  0.11853177  0.63761815  1
  O  O47  1  0.62839265  0.51150504  0.63732341  1
  O  O48  1  0.86526693  0.50935970  0.13673523  1
  O  O49  1  0.64686254  0.14352364  0.13786238  1
  O  O50  1  0.49567723  0.35540830  0.13765760  1
  O  O51  1  0.46382671  0.30227395  0.02950437  1
  O  O52  1  0.84496978  0.54363343  0.03187077  1
  O  O53  1  0.70044514  0.16174275  0.03014927  1
  O  O54  1  0.45238157  0.15471846  0.52926485  1
  O  O55  1  0.70412195  0.54983282  0.52914856  1
  O  O56  1  0.84494127  0.29663298  0.52884831  1
  O  O57  1  0.54484491  0.69500833  0.96896135  1
  O  O58  1  0.15546856  0.46262407  0.97133890  1
  O  O59  1  0.30738440  0.85067993  0.96918918  1
  O  O60  1  0.53240092  0.84426027  0.46949876  1
  O  O61  1  0.31259783  0.47531040  0.47087026  1
  O  O62  1  0.15705930  0.68968599  0.46962022  1
  O  O63  1  0.12759778  0.63931164  0.36436816  1
  O  O64  1  0.51101957  0.87598883  0.36467297  1
  O  O65  1  0.36282822  0.49375341  0.36320254  1
  O  O66  1  0.12886621  0.48812204  0.86210084  1
  O  O67  1  0.36073035  0.87676964  0.86389849  1
  O  O68  1  0.51746084  0.64211512  0.86353587  1
  O  O69  1  0.03143405  0.82330972  0.41115288  1
  O  O70  1  0.79176229  0.96876573  0.41068356  1
  O  O71  1  0.16892193  0.19913717  0.40880099  1
  O  O72  1  0.02269721  0.19207146  0.90982554  1
  O  O73  1  0.17535436  0.97523167  0.91044681  1
  O  O74  1  0.80043658  0.82400233  0.91079887  1
  O  O75  1  0.98361368  0.17316009  0.59681453  1
  O  O76  1  0.19196748  0.01788527  0.59554082  1
  O  O77  1  0.82538892  0.81027992  0.59564768  1
  O  O78  1  0.97310476  0.79613303  0.09181834  1
  O  O79  1  0.82904535  0.02647414  0.09143099  1
  O  O80  1  0.19668052  0.16665756  0.09258461  1
  O  O81  1  0.69334030  0.15668135  0.74239067  1
  O  O82  1  0.46240574  0.30278943  0.74226252  1
  O  O83  1  0.83485134  0.52946737  0.74225254  1
  O  O84  1  0.69219198  0.52106873  0.23952153  1
  O  O85  1  0.83623369  0.30938737  0.24130947  1
  O  O86  1  0.47372458  0.16315823  0.24148414  1
  O  O87  1  0.64213296  0.50887615  0.92244217  1
  O  O88  1  0.85937593  0.35778410  0.92228912  1
  O  O89  1  0.48920897  0.13395097  0.92171577  1
  O  O90  1  0.64063287  0.13111146  0.42383511  1
  O  O91  1  0.49791768  0.36004374  0.42402860  1
  O  O92  1  0.87139307  0.50817718  0.42370049  1
  O  O93  1  0.36328062  0.49568459  0.07796812  1
  O  O94  1  0.12534658  0.63577286  0.07878385  1
  O  O95  1  0.50059782  0.86667579  0.07652590  1
  O  O96  1  0.34968746  0.85635042  0.56939357  1
  O  O97  1  0.50771290  0.65116636  0.57077223  1
  O  O98  1  0.14076574  0.49226239  0.57105646  1
  O  O99  1  0.31476507  0.84954379  0.25842501  1
  O  O100  1  0.53123091  0.68490647  0.25849730  1
  O  O101  1  0.14765114  0.46630248  0.25810091  1
  O  O102  1  0.30580248  0.46019565  0.75518075  1
  O  O103  1  0.16379688  0.69964766  0.75555739  1
  O  O104  1  0.54105021  0.84169318  0.75597168  1
