# generated using pymatgen
data_KMgNiIO6
_symmetry_space_group_name_H-M   'P 1'
_cell_length_a   5.30070295
_cell_length_b   5.30068353
_cell_length_c   5.20091251
_cell_angle_alpha   90.08710763
_cell_angle_beta   90.08656390
_cell_angle_gamma   119.80956545
_symmetry_Int_Tables_number   1
_chemical_formula_structural   KMgNiIO6
_chemical_formula_sum   'K1 Mg1 Ni1 I1 O6'
_cell_volume   126.79546843
_cell_formula_units_Z   1
loop_
 _symmetry_equiv_pos_site_id
 _symmetry_equiv_pos_as_xyz
  1  'x, y, z'
loop_
 _atom_site_type_symbol
 _atom_site_label
 _atom_site_symmetry_multiplicity
 _atom_site_fract_x
 _atom_site_fract_y
 _atom_site_fract_z
 _atom_site_occupancy
  K  K0  1  0.00116700  0.99881900  0.00002500  1
  Mg  Mg1  1  0.33670700  0.66329500  0.99999300  1
  Ni  Ni2  1  0.33269100  0.66730900  0.50000000  1
  I  I3  1  0.66698700  0.33301500  0.49999800  1
  O  O4  1  0.40321200  0.01567900  0.71813400  1
  O  O5  1  0.98670200  0.38818500  0.71895800  1
  O  O6  1  0.61156600  0.59767900  0.71902300  1
  O  O7  1  0.98432600  0.59676700  0.28186400  1
  O  O8  1  0.61179200  0.01329500  0.28103700  1
  O  O9  1  0.40235000  0.38845700  0.28097100  1
