# generated using pymatgen
data_Na7NbZn3Si3(SO8)3
_symmetry_space_group_name_H-M   'P 1'
_cell_length_a   9.16367686
_cell_length_b   9.19727380
_cell_length_c   22.25239749
_cell_angle_alpha   89.48046588
_cell_angle_beta   90.69481125
_cell_angle_gamma   120.39251176
_symmetry_Int_Tables_number   1
_chemical_formula_structural   Na7NbZn3Si3(SO8)3
_chemical_formula_sum   'Na21 Nb3 Zn9 Si9 S9 O72'
_cell_volume   1617.59773106
_cell_formula_units_Z   3
loop_
 _symmetry_equiv_pos_site_id
 _symmetry_equiv_pos_as_xyz
  1  'x, y, z'
loop_
 _atom_site_type_symbol
 _atom_site_label
 _atom_site_symmetry_multiplicity
 _atom_site_fract_x
 _atom_site_fract_y
 _atom_site_fract_z
 _atom_site_occupancy
  Na  Na0  1  0.63638797  0.00462363  0.23910003  1
  Na  Na1  1  0.37812531  0.35160959  0.25331589  1
  Na  Na2  1  0.98652858  0.64772113  0.24860049  1
  Na  Na3  1  0.66137349  0.63623692  0.75004153  1
  Na  Na4  1  0.98078121  0.34628904  0.74979915  1
  Na  Na5  1  0.36144119  0.01406326  0.74921429  1
  Na  Na6  1  0.29033873  0.32664606  0.58712667  1
  Na  Na7  1  0.03895486  0.71134360  0.58634862  1
  Na  Na8  1  0.67420362  0.96708356  0.59189492  1
  Na  Na9  1  0.30360831  0.96619005  0.09063391  1
  Na  Na10  1  0.66954405  0.72093671  0.08173010  1
  Na  Na11  1  0.03123806  0.32252401  0.08074053  1
  Na  Na12  1  0.97349177  0.30167018  0.42021333  1
  Na  Na13  1  0.31906617  0.03817735  0.41463172  1
  Na  Na14  1  0.71060759  0.66199504  0.40972700  1
  Na  Na15  1  0.01189849  0.00064525  0.49632647  1
  Na  Na16  1  0.97982526  0.99272207  0.99022207  1
  Na  Na17  1  0.66798532  0.33746763  0.82283626  1
  Na  Na18  1  0.65679313  0.33974194  0.33298495  1
  Na  Na19  1  0.35268904  0.68648978  0.16300980  1
  Na  Na20  1  0.32986623  0.66742554  0.66372133  1
  Nb  Nb21  1  0.67031695  0.32911850  0.97480844  1
  Nb  Nb22  1  0.33064775  0.66343551  0.31609081  1
  Nb  Nb23  1  0.34514836  0.66104096  0.81057620  1
  Zn  Zn24  1  0.01374368  0.98095960  0.34866410  1
  Zn  Zn25  1  0.98096597  0.98096238  0.84138948  1
  Zn  Zn26  1  0.99843084  0.99446457  0.67708477  1
  Zn  Zn27  1  0.98146921  0.98151933  0.15712466  1
  Zn  Zn28  1  0.66207031  0.33244784  0.69029193  1
  Zn  Zn29  1  0.64891457  0.32040837  0.18574501  1
  Zn  Zn30  1  0.66773694  0.35041843  0.47866932  1
  Zn  Zn31  1  0.36881171  0.69557240  0.01025798  1
  Zn  Zn32  1  0.31573357  0.64716339  0.50677448  1
  Si  Si33  1  0.29539747  0.00035864  0.24909287  1
  Si  Si34  1  0.70127968  0.70190989  0.25004060  1
  Si  Si35  1  0.28838617  0.28397379  0.75041242  1
  Si  Si36  1  0.00084880  0.70195734  0.74878823  1
  Si  Si37  1  0.70891647  0.00557022  0.74867959  1
  Si  Si38  1  0.66925324  0.04006539  0.08677327  1
  Si  Si39  1  0.64169103  0.67659161  0.92093507  1
  Si  Si40  1  0.32689626  0.36158248  0.42047051  1
  Si  Si41  1  0.03522128  0.66545660  0.42141423  1
  S  S42  1  0.00379152  0.29800146  0.25062177  1
  S  S43  1  0.95857627  0.33229076  0.58142664  1
  S  S44  1  0.37749663  0.04028063  0.58042206  1
  S  S45  1  0.66616454  0.63285799  0.58140985  1
  S  S46  1  0.95868348  0.62082734  0.08244903  1
  S  S47  1  0.37426098  0.33351474  0.08193402  1
  S  S48  1  0.04435008  0.37703600  0.92103244  1
  S  S49  1  0.33069350  0.96113962  0.91898596  1
  S  S50  1  0.62478816  0.95886862  0.41856183  1
  O  O51  1  0.22184977  0.04015531  0.30821219  1
  O  O52  1  0.81297357  0.78849681  0.30981208  1
  O  O53  1  0.98060323  0.19708516  0.30466647  1
  O  O54  1  0.20251981  0.16166491  0.80640896  1
  O  O55  1  0.94935926  0.77942341  0.80259913  1
  O  O56  1  0.83441507  0.05477664  0.80470124  1
  O  O57  1  0.76503032  0.94473538  0.68846009  1
  O  O58  1  0.17806816  0.22912378  0.68756403  1
  O  O59  1  0.05863244  0.81861841  0.68736081  1
  O  O60  1  0.76232240  0.81820096  0.18926956  1
  O  O61  1  0.03387470  0.22690325  0.19578163  1
  O  O62  1  0.17544061  0.95851936  0.18862292  1
  O  O63  1  0.87350745  0.34512923  0.63545047  1
  O  O64  1  0.47513304  0.12645487  0.63540403  1
  O  O65  1  0.64609889  0.52996450  0.63565757  1
  O  O66  1  0.88220780  0.52661017  0.13838024  1
  O  O67  1  0.64442707  0.12888104  0.14497804  1
  O  O68  1  0.47470188  0.36443211  0.13807465  1
  O  O69  1  0.47161381  0.31932220  0.03008723  1
  O  O70  1  0.84513924  0.52575086  0.02931074  1
  O  O71  1  0.68419880  0.17065913  0.02850860  1
  O  O72  1  0.46454796  0.13883478  0.52518746  1
  O  O73  1  0.68107398  0.54950332  0.52629078  1
  O  O74  1  0.85980526  0.31980152  0.52562496  1
  O  O75  1  0.55590130  0.68233548  0.98299885  1
  O  O76  1  0.13663287  0.46719824  0.97636997  1
  O  O77  1  0.31542673  0.86712345  0.97555115  1
  O  O78  1  0.54760773  0.85580640  0.47266450  1
  O  O79  1  0.30572732  0.44582827  0.48073699  1
  O  O80  1  0.15553003  0.70675477  0.48007174  1
  O  O81  1  0.14743161  0.65005977  0.36244032  1
  O  O82  1  0.51513600  0.86770584  0.36321616  1
  O  O83  1  0.35154096  0.49734905  0.36247697  1
  O  O84  1  0.12164876  0.48316963  0.86635239  1
  O  O85  1  0.35921094  0.88031035  0.86635883  1
  O  O86  1  0.50436358  0.64372462  0.86394240  1
  O  O87  1  0.00782118  0.82587310  0.41566260  1
  O  O88  1  0.79448871  0.98216284  0.41134437  1
  O  O89  1  0.15265630  0.18269365  0.41149413  1
  O  O90  1  0.01976005  0.21121486  0.91761285  1
  O  O91  1  0.19344748  0.99239686  0.91383208  1
  O  O92  1  0.82618957  0.83432369  0.91217135  1
  O  O93  1  0.97638624  0.18005546  0.58193262  1
  O  O94  1  0.20582015  0.02082989  0.58022652  1
  O  O95  1  0.82199233  0.80255244  0.58332498  1
  O  O96  1  0.97413724  0.78910038  0.08064622  1
  O  O97  1  0.84424734  0.03176598  0.08438145  1
  O  O98  1  0.20952001  0.17360482  0.08318779  1
  O  O99  1  0.66092420  0.15179000  0.74137461  1
  O  O100  1  0.48481324  0.33269682  0.74448669  1
  O  O101  1  0.84729255  0.50831814  0.74093955  1
  O  O102  1  0.68148794  0.51486545  0.24343652  1
  O  O103  1  0.86121341  0.32959441  0.24505002  1
  O  O104  1  0.48972515  0.15851368  0.24698646  1
  O  O105  1  0.64659800  0.49115672  0.92649116  1
  O  O106  1  0.86561459  0.36301325  0.92324586  1
  O  O107  1  0.49837435  0.13659831  0.92348067  1
  O  O108  1  0.63116433  0.12254792  0.41868352  1
  O  O109  1  0.49937079  0.35043207  0.41711260  1
  O  O110  1  0.85728397  0.48500863  0.41777569  1
  O  O111  1  0.34425776  0.47756188  0.07596158  1
  O  O112  1  0.12711934  0.63561587  0.07628000  1
  O  O113  1  0.49460495  0.85447062  0.08071896  1
  O  O114  1  0.36369398  0.86982296  0.58058970  1
  O  O115  1  0.51255542  0.65269870  0.57863240  1
  O  O116  1  0.13217513  0.48931687  0.58142059  1
  O  O117  1  0.31063016  0.82335554  0.25768793  1
  O  O118  1  0.50565115  0.67753790  0.25929029  1
  O  O119  1  0.16516164  0.47301842  0.25527468  1
  O  O120  1  0.30518860  0.47894979  0.76090302  1
  O  O121  1  0.17472695  0.68724630  0.76493945  1
  O  O122  1  0.51477067  0.82748505  0.76067931  1
