# generated using pymatgen
data_NaY2Al2PS5O24
_symmetry_space_group_name_H-M   'P 1'
_cell_length_a   8.66654092
_cell_length_b   8.66679205
_cell_length_c   23.06715020
_cell_angle_alpha   89.96771581
_cell_angle_beta   90.07815086
_cell_angle_gamma   119.80978299
_symmetry_Int_Tables_number   1
_chemical_formula_structural   NaY2Al2PS5O24
_chemical_formula_sum   'Na3 Y6 Al6 P3 S15 O72'
_cell_volume   1503.34128382
_cell_formula_units_Z   3
loop_
 _symmetry_equiv_pos_site_id
 _symmetry_equiv_pos_as_xyz
  1  'x, y, z'
loop_
 _atom_site_type_symbol
 _atom_site_label
 _atom_site_symmetry_multiplicity
 _atom_site_fract_x
 _atom_site_fract_y
 _atom_site_fract_z
 _atom_site_occupancy
  Na  Na0  1  0.99951067  0.98548773  0.99618036  1
  Na  Na1  1  0.65308384  0.33112829  0.83166298  1
  Na  Na2  1  0.67822633  0.33166394  0.34278470  1
  Y  Y3  1  0.00003625  0.99177475  0.84577712  1
  Y  Y4  1  0.00027257  0.00661970  0.15958924  1
  Y  Y5  1  0.67225500  0.33406572  0.19697259  1
  Y  Y6  1  0.65994128  0.33504206  0.97627784  1
  Y  Y7  1  0.33921230  0.67172859  0.01977628  1
  Y  Y8  1  0.33938386  0.67359227  0.80181861  1
  Al  Al9  1  0.99680649  0.00455157  0.35818005  1
  Al  Al10  1  0.00082639  0.00016450  0.63947200  1
  Al  Al11  1  0.66546619  0.33270942  0.67177298  1
  Al  Al12  1  0.66634251  0.33377988  0.48485607  1
  Al  Al13  1  0.33294080  0.66666280  0.51845638  1
  Al  Al14  1  0.32839482  0.66001888  0.32449971  1
  P  P15  1  0.01592341  0.30309471  0.26717943  1
  P  P16  1  0.63390650  0.66893730  0.91184019  1
  P  P17  1  0.33202707  0.96534373  0.91171898  1
  S  S18  1  0.28392912  0.98235001  0.26726677  1
  S  S19  1  0.69694548  0.71451145  0.26726877  1
  S  S20  1  0.30181363  0.27885938  0.73393745  1
  S  S21  1  0.97551515  0.69521845  0.73317057  1
  S  S22  1  0.72382500  0.02577912  0.73401528  1
  S  S23  1  0.95643736  0.33584752  0.57779154  1
  S  S24  1  0.37926841  0.04325553  0.57797964  1
  S  S25  1  0.66365794  0.62084381  0.57806412  1
  S  S26  1  0.96442454  0.63691938  0.08690177  1
  S  S27  1  0.67422024  0.03761514  0.08636014  1
  S  S28  1  0.36175719  0.32665286  0.08823070  1
  S  S29  1  0.03808359  0.36903366  0.91152976  1
  S  S30  1  0.61796056  0.95355177  0.42188767  1
  S  S31  1  0.33877149  0.38123369  0.42245635  1
  S  S32  1  0.04401628  0.66561200  0.42231521  1
  O  O33  1  0.18856813  0.01013794  0.31605683  1
  O  O34  1  0.82499061  0.80362361  0.31558107  1
  O  O35  1  0.98109354  0.16868230  0.31684628  1
  O  O36  1  0.23702131  0.17925344  0.78860043  1
  O  O37  1  0.93994901  0.75958299  0.78792953  1
  O  O38  1  0.82346744  0.06012839  0.78864607  1
  O  O39  1  0.81863366  0.99861816  0.68493780  1
  O  O40  1  0.18133170  0.18277094  0.68474916  1
  O  O41  1  0.00376175  0.81904214  0.68465989  1
  O  O42  1  0.76735054  0.80702349  0.21182868  1
  O  O43  1  0.03807804  0.22957607  0.20885414  1
  O  O44  1  0.18791761  0.95396845  0.21204690  1
  O  O45  1  0.87659664  0.37843730  0.62799857  1
  O  O46  1  0.50106477  0.12240753  0.62842873  1
  O  O47  1  0.61981648  0.49799605  0.62825135  1
  O  O48  1  0.86335912  0.54117734  0.13940453  1
  O  O49  1  0.67838561  0.13721455  0.13903355  1
  O  O50  1  0.45803260  0.32432185  0.14093772  1
  O  O51  1  0.45121745  0.31693014  0.03504486  1
  O  O52  1  0.86573733  0.54905170  0.03338323  1
  O  O53  1  0.68490575  0.13587681  0.03299871  1
  O  O54  1  0.45743046  0.16593661  0.52739736  1
  O  O55  1  0.70858450  0.54267079  0.52749441  1
  O  O56  1  0.83362830  0.29160880  0.52700211  1
  O  O57  1  0.53867074  0.65810702  0.96912468  1
  O  O58  1  0.12702744  0.45526779  0.96623259  1
  O  O59  1  0.32512338  0.86876408  0.96836351  1
  O  O60  1  0.53803732  0.83874514  0.47348874  1
  O  O61  1  0.30129636  0.46127589  0.47365818  1
  O  O62  1  0.15993360  0.70115217  0.47387029  1
  O  O63  1  0.12305138  0.62375720  0.37172604  1
  O  O64  1  0.49666359  0.87549745  0.37138518  1
  O  O65  1  0.38397215  0.50346779  0.37204791  1
  O  O66  1  0.13474100  0.46574858  0.85923816  1
  O  O67  1  0.31807924  0.86056131  0.85608935  1
  O  O68  1  0.53139886  0.66606410  0.85692449  1
  O  O69  1  0.01956903  0.82035137  0.41133024  1
  O  O70  1  0.79549300  0.97414693  0.41128078  1
  O  O71  1  0.18518594  0.20295646  0.41139996  1
  O  O72  1  0.01978831  0.19171510  0.91152555  1
  O  O73  1  0.17442060  0.99994235  0.91334752  1
  O  O74  1  0.81387201  0.84246902  0.91316750  1
  O  O75  1  0.98150099  0.18090971  0.58959092  1
  O  O76  1  0.19941651  0.01861020  0.58969080  1
  O  O77  1  0.81837716  0.80000466  0.59013942  1
  O  O78  1  0.98685679  0.81704498  0.08764643  1
  O  O79  1  0.83062137  0.01264984  0.08667560  1
  O  O80  1  0.18381151  0.16602829  0.08766325  1
  O  O81  1  0.70590616  0.18647521  0.72359138  1
  O  O82  1  0.48044918  0.29616000  0.72397499  1
  O  O83  1  0.81327925  0.51882066  0.72266941  1
  O  O84  1  0.66864527  0.53197313  0.26344897  1
  O  O85  1  0.84941357  0.32677923  0.26345895  1
  O  O86  1  0.46105827  0.14384389  0.26312693  1
  O  O87  1  0.66482883  0.50951757  0.90767331  1
  O  O88  1  0.86154693  0.35392655  0.90927559  1
  O  O89  1  0.50695847  0.14322977  0.90874158  1
  O  O90  1  0.63786470  0.13624927  0.43154015  1
  O  O91  1  0.50250832  0.36321768  0.43277199  1
  O  O92  1  0.86311953  0.50142430  0.43198033  1
  O  O93  1  0.34640435  0.48665705  0.08881062  1
  O  O94  1  0.13651167  0.64491584  0.08815091  1
  O  O95  1  0.51106639  0.86495147  0.08832267  1
  O  O96  1  0.36275067  0.86694434  0.56589649  1
  O  O97  1  0.50444928  0.63853634  0.56570908  1
  O  O98  1  0.13249193  0.49509676  0.56559075  1
  O  O99  1  0.30263309  0.82537250  0.27760110  1
  O  O100  1  0.52810554  0.71029527  0.27802437  1
  O  O101  1  0.18295113  0.48101437  0.27880928  1
  O  O102  1  0.31902337  0.45476968  0.73874818  1
  O  O103  1  0.13139842  0.67321969  0.73840914  1
  O  O104  1  0.54695678  0.86835097  0.73862958  1
