# generated using pymatgen
data_Na6Y8Si3(S3O16)3
_symmetry_space_group_name_H-M   'P 1'
_cell_length_a   18.56521152
_cell_length_b   9.23051168
_cell_length_c   24.21890121
_cell_angle_alpha   90.08558438
_cell_angle_beta   89.93033553
_cell_angle_gamma   119.78467842
_symmetry_Int_Tables_number   1
_chemical_formula_structural   Na6Y8Si3(S3O16)3
_chemical_formula_sum   'Na18 Y24 Si9 S27 O144'
_cell_volume   3602.03900728
_cell_formula_units_Z   3
loop_
 _symmetry_equiv_pos_site_id
 _symmetry_equiv_pos_as_xyz
  1  'x, y, z'
loop_
 _atom_site_type_symbol
 _atom_site_label
 _atom_site_symmetry_multiplicity
 _atom_site_fract_x
 _atom_site_fract_y
 _atom_site_fract_z
 _atom_site_occupancy
  Na  Na0  1  0.00625176  0.65132795  0.25440508  1
  Na  Na1  1  0.50471871  0.36141782  0.74207859  1
  Na  Na2  1  0.16063115  0.30498620  0.91073353  1
  Na  Na3  1  0.66037810  0.30473182  0.91107151  1
  Na  Na4  1  0.16234782  0.01984467  0.41633854  1
  Na  Na5  1  0.65877421  0.00993868  0.41626703  1
  Na  Na6  1  0.99463346  0.98371128  0.49926861  1
  Na  Na7  1  0.49418786  0.00124963  0.50352014  1
  Na  Na8  1  0.99598126  0.00837664  0.99460211  1
  Na  Na9  1  0.49465294  0.00633045  0.99629026  1
  Na  Na10  1  0.33064762  0.33224423  0.82677277  1
  Na  Na11  1  0.83925858  0.33488712  0.82837252  1
  Na  Na12  1  0.34319810  0.35106364  0.33622192  1
  Na  Na13  1  0.83038105  0.32951134  0.33568717  1
  Na  Na14  1  0.17395790  0.68511451  0.17095627  1
  Na  Na15  1  0.66371456  0.68170080  0.17394563  1
  Na  Na16  1  0.16762896  0.64913368  0.67135370  1
  Na  Na17  1  0.66142737  0.64539315  0.66245398  1
  Y  Y18  1  0.00213344  0.99709026  0.35119894  1
  Y  Y19  1  0.50270311  0.99374421  0.34968095  1
  Y  Y20  1  0.00299253  0.01328755  0.84742157  1
  Y  Y21  1  0.50213664  0.00843496  0.84857633  1
  Y  Y22  1  0.00589319  0.01316910  0.65138705  1
  Y  Y23  1  0.50429761  0.01645294  0.64735053  1
  Y  Y24  1  0.00531072  0.00136051  0.15012957  1
  Y  Y25  1  0.50521272  0.99813310  0.15176497  1
  Y  Y26  1  0.33041651  0.33435420  0.68184859  1
  Y  Y27  1  0.82814509  0.33416023  0.68636412  1
  Y  Y28  1  0.32937703  0.32405008  0.18764752  1
  Y  Y29  1  0.82347790  0.31580981  0.18611642  1
  Y  Y30  1  0.34134593  0.33325194  0.98038828  1
  Y  Y31  1  0.84121581  0.33372028  0.98087160  1
  Y  Y32  1  0.34705733  0.34857542  0.48410607  1
  Y  Y33  1  0.84055156  0.34830075  0.48143528  1
  Y  Y34  1  0.16215880  0.65836378  0.01629506  1
  Y  Y35  1  0.66125421  0.65727828  0.01655499  1
  Y  Y36  1  0.16269814  0.66633265  0.51706988  1
  Y  Y37  1  0.65423125  0.65400040  0.51995018  1
  Y  Y38  1  0.16533351  0.67017550  0.31674209  1
  Y  Y39  1  0.65927696  0.66873153  0.31531082  1
  Y  Y40  1  0.15931563  0.64918059  0.81302045  1
  Y  Y41  1  0.66380524  0.65890110  0.81459883  1
  Si  Si42  1  0.14911939  0.99870853  0.25138939  1
  Si  Si43  1  0.64984867  0.99802648  0.25154972  1
  Si  Si44  1  0.15329484  0.30055865  0.75149101  1
  Si  Si45  1  0.65011303  0.29791379  0.75262923  1
  Si  Si46  1  0.48274611  0.33166179  0.58733674  1
  Si  Si47  1  0.01806116  0.36605296  0.91712506  1
  Si  Si48  1  0.51811706  0.36665976  0.91514016  1
  Si  Si49  1  0.01775505  0.66654923  0.41469229  1
  Si  Si50  1  0.51640905  0.66813501  0.41627669  1
  S  S51  1  0.35162862  0.70457538  0.24871714  1
  S  S52  1  0.85351163  0.70612533  0.24839408  1
  S  S53  1  0.00002966  0.29721391  0.24896094  1
  S  S54  1  0.50005892  0.29444687  0.24898002  1
  S  S55  1  0.99928432  0.70522720  0.74934163  1
  S  S56  1  0.49933432  0.70354295  0.75000214  1
  S  S57  1  0.35183639  -0.00057049  0.74989062  1
  S  S58  1  0.85202977  0.00018372  0.74908822  1
  S  S59  1  0.98044144  0.33194285  0.58369730  1
  S  S60  1  0.18389612  0.03565917  0.58104465  1
  S  S61  1  0.68834125  0.04017498  0.58194726  1
  S  S62  1  0.33154527  0.63106629  0.58306710  1
  S  S63  1  0.83511924  0.63362453  0.58353508  1
  S  S64  1  0.48030107  0.62921728  0.08369653  1
  S  S65  1  0.98093814  0.62964907  0.08500137  1
  S  S66  1  0.33344462  0.03527445  0.08363997  1
  S  S67  1  0.83348968  0.03420613  0.08325100  1
  S  S68  1  0.18658540  0.33503523  0.08234519  1
  S  S69  1  0.68534970  0.33401226  0.08159230  1
  S  S70  1  0.31323785  0.66644894  0.91786373  1
  S  S71  1  0.81364711  0.66684115  0.91830666  1
  S  S72  1  0.16616192  0.96277767  0.91736862  1
  S  S73  1  0.66640328  0.96364813  0.91786504  1
  S  S74  1  0.31308519  0.96099271  0.41732196  1
  S  S75  1  0.81298730  0.95961836  0.41776310  1
  S  S76  1  0.16647042  0.36937322  0.41701079  1
  S  S77  1  0.66739270  0.37066493  0.41622890  1
  O  O78  1  0.10586838  0.02012091  0.30760270  1
  O  O79  1  0.60815641  0.02206748  0.30791722  1
  O  O80  1  0.40086777  0.78493771  0.29893421  1
  O  O81  1  0.90486846  0.78625483  0.29814296  1
  O  O82  1  0.48737734  0.19331625  0.29899734  1
  O  O83  1  0.98673334  0.19578837  0.29881234  1
  O  O84  1  0.11011573  0.19692032  0.80928876  1
  O  O85  1  0.61028524  0.19549216  0.81071401  1
  O  O86  1  0.48927743  0.78267624  0.80034017  1
  O  O87  1  0.98711553  0.78160627  0.79972352  1
  O  O88  1  0.40343113  0.02043445  0.79972199  1
  O  O89  1  0.90166054  0.01959477  0.79949738  1
  O  O90  1  0.39025007  0.97245906  0.70042852  1
  O  O91  1  0.89171327  0.97536240  0.69972730  1
  O  O92  1  0.09273407  0.20113993  0.69892495  1
  O  O93  1  0.58699963  0.20221011  0.70144427  1
  O  O94  1  0.00636124  0.80428121  0.69970398  1
  O  O95  1  0.50650125  0.80068211  0.70021032  1
  O  O96  1  0.39121905  0.80780692  0.19904011  1
  O  O97  1  0.89228869  0.81009420  0.19885012  1
  O  O98  1  0.00728937  0.21279471  0.19910498  1
  O  O99  1  0.50699155  0.20928537  0.19898185  1
  O  O100  1  0.08667676  0.96883552  0.19885168  1
  O  O101  1  0.59315576  0.98165915  0.19733774  1
  O  O102  1  0.43971083  0.34934487  0.64467714  1
  O  O103  1  0.94033356  0.35258926  0.63331815  1
  O  O104  1  0.23475883  0.12049493  0.63024122  1
  O  O105  1  0.73974475  0.12910261  0.63083960  1
  O  O106  1  0.31914367  0.52731539  0.63278665  1
  O  O107  1  0.82542583  0.53021961  0.63298910  1
  O  O108  1  0.44003636  0.52806362  0.13322024  1
  O  O109  1  0.94223366  0.53235089  0.13574915  1
  O  O110  1  0.32392484  0.11955283  0.13309884  1
  O  O111  1  0.82397155  0.11781450  0.13298016  1
  O  O112  1  0.23802649  0.35128875  0.13127465  1
  O  O113  1  0.73713331  0.35197219  0.13067027  1
  O  O114  1  0.22466203  0.31459293  0.03119401  1
  O  O115  1  0.72454331  0.31410207  0.03086468  1
  O  O116  1  0.43050237  0.54704079  0.03355020  1
  O  O117  1  0.92937668  0.54377946  0.03577854  1
  O  O118  1  0.34264676  0.13689851  0.03367002  1
  O  O119  1  0.84328659  0.13739797  0.03365601  1
  O  O120  1  0.22125163  0.13165419  0.52982761  1
  O  O121  1  0.72669426  0.13877198  0.53094915  1
  O  O122  1  0.33971052  0.54818964  0.53308104  1
  O  O123  1  0.84485198  0.54961426  0.53371372  1
  O  O124  1  0.42646539  0.31537313  0.53326465  1
  O  O125  1  0.93062622  0.31413526  0.53352527  1
  O  O126  1  0.27492875  0.69301741  0.96788330  1
  O  O127  1  0.77489987  0.69312308  0.96805029  1
  O  O128  1  0.07720174  0.45627425  0.97143778  1
  O  O129  1  0.57930009  0.46102562  0.96832840  1
  O  O130  1  0.15892666  0.86450658  0.96747364  1
  O  O131  1  0.65938588  0.86490805  0.96765890  1
  O  O132  1  0.27443255  0.85730450  0.46686035  1
  O  O133  1  0.77570245  0.85809919  0.46746419  1
  O  O134  1  0.15870334  0.45398206  0.46669278  1
  O  O135  1  0.66055419  0.45412131  0.46623952  1
  O  O136  1  0.08037475  0.69578484  0.46662913  1
  O  O137  1  0.57832593  0.70304603  0.46898447  1
  O  O138  1  0.05898784  0.64493044  0.35729562  1
  O  O139  1  0.56223599  0.64669894  0.36174053  1
  O  O140  1  0.26208124  0.87781333  0.36754496  1
  O  O141  1  0.76260626  0.88006628  0.36758038  1
  O  O142  1  0.17802973  0.47000468  0.36699337  1
  O  O143  1  0.68116939  0.47191264  0.36631800  1
  O  O144  1  0.06384418  0.48032242  0.86359440  1
  O  O145  1  0.56176584  0.47578943  0.85972188  1
  O  O146  1  0.18012957  0.88844099  0.86765184  1
  O  O147  1  0.68033240  0.88960961  0.86794213  1
  O  O148  1  0.26209120  0.64450055  0.86829312  1
  O  O149  1  0.76239468  0.64409460  0.86862074  1
  O  O150  1  0.01371205  0.84227543  0.41303869  1
  O  O151  1  0.51212312  0.84332249  0.41252562  1
  O  O152  1  0.39799062  0.98923465  0.41091415  1
  O  O153  1  0.89866824  0.99010840  0.41077614  1
  O  O154  1  0.08880458  0.20297615  0.41277973  1
  O  O155  1  0.59100936  0.20362930  0.41164183  1
  O  O156  1  0.01325131  0.18206674  0.91431171  1
  O  O157  1  0.51332290  0.18261973  0.91374604  1
  O  O158  1  0.08969207  0.97690934  0.91319221  1
  O  O159  1  0.58988876  0.97695227  0.91368106  1
  O  O160  1  0.39832070  0.80778755  0.91226142  1
  O  O161  1  0.89854951  0.80831693  0.91237776  1
  O  O162  1  0.49098757  0.16213555  0.58624041  1
  O  O163  1  0.98798912  0.17898474  0.58724466  1
  O  O164  1  0.09906949  0.01441710  0.58698491  1
  O  O165  1  0.60384433  0.01768954  0.58770458  1
  O  O166  1  0.40753571  0.79555535  0.58878904  1
  O  O167  1  0.91103519  0.79951020  0.58841603  1
  O  O168  1  0.48784401  0.79711603  0.08736056  1
  O  O169  1  0.98804562  0.79748688  0.08772355  1
  O  O170  1  0.40860480  0.01861281  0.08827535  1
  O  O171  1  0.90881996  0.01828596  0.08818618  1
  O  O172  1  0.10203195  0.18590948  0.08810216  1
  O  O173  1  0.60125686  0.18512332  0.08729334  1
  O  O174  1  0.34971758  0.15863880  0.74547984  1
  O  O175  1  0.84648534  0.15495143  0.74350876  1
  O  O176  1  0.24472259  0.31541158  0.74686276  1
  O  O177  1  0.74282668  0.31914365  0.74614340  1
  O  O178  1  0.42688933  0.53038096  0.74665946  1
  O  O179  1  0.92661599  0.53400975  0.74396531  1
  O  O180  1  0.34584608  0.53861617  0.24292274  1
  O  O181  1  0.85331342  0.54377454  0.24215257  1
  O  O182  1  0.42722485  0.32003433  0.24314422  1
  O  O183  1  0.92865855  0.32895830  0.24287320  1
  O  O184  1  0.24083852  0.16275227  0.24398795  1
  O  O185  1  0.74232289  0.16822682  0.24644331  1
  O  O186  1  0.31427235  0.50529689  0.92430899  1
  O  O187  1  0.81460110  0.50560177  0.92465904  1
  O  O188  1  0.42591780  0.34696265  0.92190781  1
  O  O189  1  0.92528874  0.34542840  0.92244475  1
  O  O190  1  0.23755795  0.13775283  0.92399602  1
  O  O191  1  0.73783597  0.13825197  0.92422452  1
  O  O192  1  0.31265168  0.12216108  0.42220532  1
  O  O193  1  0.81486501  0.12463095  0.42315094  1
  O  O194  1  0.23702073  0.33708912  0.42224047  1
  O  O195  1  0.73896040  0.33778156  0.42208914  1
  O  O196  1  0.42362669  0.50437067  0.41934084  1
  O  O197  1  0.92535933  0.50238314  0.42101893  1
  O  O198  1  0.17916150  0.48839429  0.07957360  1
  O  O199  1  0.67850877  0.48771070  0.07859626  1
  O  O200  1  0.06523974  0.64950036  0.07904736  1
  O  O201  1  0.56488216  0.64906020  0.07846527  1
  O  O202  1  0.25794366  0.86840652  0.07878096  1
  O  O203  1  0.75832877  0.86801122  0.07798442  1
  O  O204  1  0.17666458  0.86745784  0.57810259  1
  O  O205  1  0.68395198  0.87571825  0.57900910  1
  O  O206  1  0.25706923  0.65133306  0.57790989  1
  O  O207  1  0.76068346  0.65116699  0.57812599  1
  O  O208  1  0.06489335  0.48111406  0.57830517  1
  O  O209  1  0.57560435  0.49913097  0.58298949  1
  O  O210  1  0.15293479  0.82308160  0.25312048  1
  O  O211  1  0.66152743  0.83326407  0.25202972  1
  O  O212  1  0.26710885  0.68196134  0.25376897  1
  O  O213  1  0.76859749  0.67696494  0.25459571  1
  O  O214  1  0.07655092  0.46361497  0.25323823  1
  O  O215  1  0.57726913  0.45875724  0.25282237  1
  O  O216  1  0.16136812  0.48678314  0.75251122  1
  O  O217  1  0.65439566  0.48153188  0.75471673  1
  O  O218  1  0.07656232  0.69524577  0.75346268  1
  O  O219  1  0.57576895  0.68806482  0.75441290  1
  O  O220  1  0.26734381  0.85669550  0.75669227  1
  O  O221  1  0.76795969  0.85414451  0.75516988  1
