# generated using pymatgen
data_Na42Mg20Nb4Si15(S7O48)3
_symmetry_space_group_name_H-M   'P 1'
_cell_length_a   18.21306732
_cell_length_b   9.05796594
_cell_length_c   22.12288623
_cell_angle_alpha   90.05619389
_cell_angle_beta   90.15916045
_cell_angle_gamma   119.90022481
_symmetry_Int_Tables_number   1
_chemical_formula_structural   Na42Mg20Nb4Si15(S7O48)3
_chemical_formula_sum   'Na42 Mg20 Nb4 Si15 S21 O144'
_cell_volume   3163.87024423
_cell_formula_units_Z   1
loop_
 _symmetry_equiv_pos_site_id
 _symmetry_equiv_pos_as_xyz
  1  'x, y, z'
loop_
 _atom_site_type_symbol
 _atom_site_label
 _atom_site_symmetry_multiplicity
 _atom_site_fract_x
 _atom_site_fract_y
 _atom_site_fract_z
 _atom_site_occupancy
  Na  Na0  1  0.30783023  0.99152496  0.23486283  1
  Na  Na1  1  0.80423479  0.99017723  0.23683276  1
  Na  Na2  1  0.19290537  0.37022992  0.24884654  1
  Na  Na3  1  0.69152119  0.36598578  0.23905846  1
  Na  Na4  1  0.99945207  0.64223084  0.24963352  1
  Na  Na5  1  0.49855528  0.64814957  0.24740888  1
  Na  Na6  1  0.30275441  0.61826025  0.74163125  1
  Na  Na7  1  0.81005757  0.62679310  0.73903946  1
  Na  Na8  1  0.00075139  0.35100562  0.75430527  1
  Na  Na9  1  0.49770405  0.35349290  0.75435869  1
  Na  Na10  1  0.18875893  0.01342557  0.75377639  1
  Na  Na11  1  0.69434358  0.01676782  0.75256469  1
  Na  Na12  1  0.16623828  0.34277409  0.58924782  1
  Na  Na13  1  0.66538296  0.35230781  0.59152371  1
  Na  Na14  1  0.31517320  0.95519953  0.58921807  1
  Na  Na15  1  0.16292994  0.97139337  0.07330419  1
  Na  Na16  1  0.66637688  0.98916944  0.08562430  1
  Na  Na17  1  0.81716489  0.67851610  0.08510353  1
  Na  Na18  1  0.48100133  0.66383856  0.92038642  1
  Na  Na19  1  0.99824797  0.68464748  0.92001605  1
  Na  Na20  1  0.33701457  0.02823522  0.91729746  1
  Na  Na21  1  0.85575795  0.04269356  0.91768375  1
  Na  Na22  1  0.16404106  0.28155658  0.90719809  1
  Na  Na23  1  0.66807399  0.29674954  0.92037015  1
  Na  Na24  1  0.48246186  0.30003881  0.41644952  1
  Na  Na25  1  0.98381684  0.30038619  0.41965198  1
  Na  Na26  1  0.16776474  0.04052921  0.42009743  1
  Na  Na27  1  0.66535722  0.03443479  0.40644449  1
  Na  Na28  1  0.35326506  0.66524294  0.41761358  1
  Na  Na29  1  0.85294216  0.66684247  0.41972394  1
  Na  Na30  1  0.99743279  0.96985971  0.50746477  1
  Na  Na31  1  0.49580266  0.96792106  0.50126877  1
  Na  Na32  1  0.00717719  0.01976012  0.99370271  1
  Na  Na33  1  0.49251493  0.02241160  0.00414578  1
  Na  Na34  1  0.31465778  0.29793295  0.83039523  1
  Na  Na35  1  0.83167187  0.32480478  0.82556881  1
  Na  Na36  1  0.32796582  0.33687997  0.32326633  1
  Na  Na37  1  0.82688819  0.33412392  0.32343511  1
  Na  Na38  1  0.18326069  0.68413873  0.16233377  1
  Na  Na39  1  0.67085067  0.66284153  0.16146669  1
  Na  Na40  1  0.17039805  0.67949317  0.66581736  1
  Na  Na41  1  0.68434392  0.68153239  0.66640055  1
  Mg  Mg42  1  0.00214344  0.99396987  0.34580701  1
  Mg  Mg43  1  0.49871781  0.98880000  0.34261016  1
  Mg  Mg44  1  0.00341003  0.00804261  0.84854201  1
  Mg  Mg45  1  0.50041240  0.01088240  0.84774494  1
  Mg  Mg46  1  0.32170417  0.32342578  0.68325582  1
  Mg  Mg47  1  0.83022898  0.33388258  0.68398046  1
  Mg  Mg48  1  0.32823250  0.32589001  0.18249545  1
  Mg  Mg49  1  0.82370136  0.32255326  0.18186950  1
  Mg  Mg50  1  0.32736089  0.30728780  0.98539656  1
  Mg  Mg51  1  0.82867846  0.31903157  0.99270943  1
  Mg  Mg52  1  0.32699652  0.33773421  0.49540932  1
  Mg  Mg53  1  0.83584136  0.34793949  0.49183914  1
  Mg  Mg54  1  0.17383100  0.68504533  0.01554561  1
  Mg  Mg55  1  0.66710785  0.66361076  0.02184015  1
  Mg  Mg56  1  0.16703847  0.66849927  0.52274520  1
  Mg  Mg57  1  0.67315413  0.67538567  0.52041759  1
  Mg  Mg58  1  0.17188681  0.67872322  0.30962492  1
  Mg  Mg59  1  0.67068110  0.67461633  0.30967213  1
  Mg  Mg60  1  0.17297319  0.67935235  0.81309936  1
  Mg  Mg61  1  0.67190573  0.66361434  0.81075104  1
  Nb  Nb62  1  0.99664695  0.99936738  0.64764267  1
  Nb  Nb63  1  0.49514971  0.99838100  0.65089503  1
  Nb  Nb64  1  0.99550057  0.98879961  0.14960120  1
  Nb  Nb65  1  0.49654044  0.98963949  0.14628533  1
  Si  Si66  1  0.15046471  0.00323523  0.25468285  1
  Si  Si67  1  0.64882904  0.00016983  0.25466045  1
  Si  Si68  1  0.35069058  0.69655352  0.25449597  1
  Si  Si69  1  0.85037655  0.69434721  0.25656720  1
  Si  Si70  1  0.14862358  0.30173078  0.75331545  1
  Si  Si71  1  0.65026993  0.29704074  0.75403361  1
  Si  Si72  1  0.34925613  0.00715058  0.75581224  1
  Si  Si73  1  0.85222629  0.00393475  0.75526298  1
  Si  Si74  1  0.18182029  0.03017373  0.58134361  1
  Si  Si75  1  0.33602273  0.63191802  0.58111288  1
  Si  Si76  1  0.83043032  0.63037262  0.58196725  1
  Si  Si77  1  0.33076379  0.03282397  0.08377723  1
  Si  Si78  1  0.83507248  0.03972821  0.08184604  1
  Si  Si79  1  0.68268715  0.33382071  0.08225672  1
  Si  Si80  1  0.16353991  0.96438521  0.91613974  1
  S  S81  1  0.00053400  0.29038238  0.25275433  1
  S  S82  1  0.50073884  0.29162926  0.25285824  1
  S  S83  1  0.99865958  0.70688423  0.75092380  1
  S  S84  1  0.50057303  0.70962670  0.75267159  1
  S  S85  1  0.48251340  0.33663174  0.58253087  1
  S  S86  1  0.97979149  0.33107802  0.58209560  1
  S  S87  1  0.68453205  0.03553021  0.58162227  1
  S  S88  1  0.47877773  0.62347583  0.08182376  1
  S  S89  1  0.98067924  0.62343171  0.08540646  1
  S  S90  1  0.18336769  0.33573443  0.08375363  1
  S  S91  1  0.31781184  0.66775593  0.91656213  1
  S  S92  1  0.81387663  0.66143917  0.91690156  1
  S  S93  1  0.01990721  0.38068369  0.91749110  1
  S  S94  1  0.52265856  0.38073752  0.91543405  1
  S  S95  1  0.66402150  0.95435390  0.91559640  1
  S  S96  1  0.31693414  0.96743808  0.41653563  1
  S  S97  1  0.81480410  0.96714684  0.41703450  1
  S  S98  1  0.16391056  0.37373364  0.41550855  1
  S  S99  1  0.66378963  0.37011508  0.41709005  1
  S  S100  1  0.02048214  0.66083624  0.41569045  1
  S  S101  1  0.52241638  0.66269378  0.41745072  1
  O  O102  1  0.10946101  0.03944265  0.31350486  1
  O  O103  1  0.60866709  0.03591270  0.31452284  1
  O  O104  1  0.40324840  0.77445069  0.31677707  1
  O  O105  1  0.90571914  0.78793122  0.31585705  1
  O  O106  1  0.48624005  0.18915238  0.30859773  1
  O  O107  1  0.98675802  0.18847244  0.30833080  1
  O  O108  1  0.10625384  0.18188456  0.81097767  1
  O  O109  1  0.60721405  0.17521928  0.81148230  1
  O  O110  1  0.48736763  0.78588388  0.80768992  1
  O  O111  1  0.98389849  0.78006283  0.80592673  1
  O  O112  1  0.40768758  0.02736979  0.81295397  1
  O  O113  1  0.90607803  0.02669802  0.81596541  1
  O  O114  1  0.40646487  0.98444443  0.69498253  1
  O  O115  1  0.90655485  0.97621114  0.69850675  1
  O  O116  1  0.08494301  0.19141481  0.69343439  1
  O  O117  1  0.58802446  0.18632414  0.69227069  1
  O  O118  1  0.01023789  0.81843338  0.69758939  1
  O  O119  1  0.51160872  0.82435343  0.69901277  1
  O  O120  1  0.40751534  0.83577932  0.19966991  1
  O  O121  1  0.90586702  0.82934026  0.19663017  1
  O  O122  1  0.01122299  0.19911725  0.19968582  1
  O  O123  1  0.51266452  0.20432552  0.20009573  1
  O  O124  1  0.08561722  0.98832447  0.19548855  1
  O  O125  1  0.58445172  0.98209829  0.19672839  1
  O  O126  1  0.44361386  0.35164509  0.63748358  1
  O  O127  1  0.93830930  0.34845219  0.63573559  1
  O  O128  1  0.24417221  0.11913439  0.63831333  1
  O  O129  1  0.73432301  0.11408795  0.63668150  1
  O  O130  1  0.32754301  0.52213090  0.64019291  1
  O  O131  1  0.81727034  0.50651046  0.63862533  1
  O  O132  1  0.43921100  0.52872199  0.13718034  1
  O  O133  1  0.93872985  0.53222789  0.14053687  1
  O  O134  1  0.32018282  0.12654435  0.14243773  1
  O  O135  1  0.82523427  0.12878948  0.14183637  1
  O  O136  1  0.23266805  0.35837807  0.13960052  1
  O  O137  1  0.74229450  0.36862680  0.14094568  1
  O  O138  1  0.22381632  0.30764982  0.03047774  1
  O  O139  1  0.71935645  0.28710286  0.02230707  1
  O  O140  1  0.42835631  0.54350233  0.02696129  1
  O  O141  1  0.92825136  0.55061137  0.03082948  1
  O  O142  1  0.34963531  0.13768695  0.02130930  1
  O  O143  1  0.85267202  0.14327426  0.01944404  1
  O  O144  1  0.21724011  0.14827964  0.52028503  1
  O  O145  1  0.72591908  0.14089388  0.52706321  1
  O  O146  1  0.35502453  0.56743776  0.51776870  1
  O  O147  1  0.84636040  0.56063924  0.51791346  1
  O  O148  1  0.42943644  0.30569678  0.52792679  1
  O  O149  1  0.93042568  0.31021418  0.52577282  1
  O  O150  1  0.27415943  0.69045434  0.96856308  1
  O  O151  1  0.77167315  0.68180988  0.97082473  1
  O  O152  1  0.07423005  0.46813159  0.97009145  1
  O  O153  1  0.57705819  0.47270224  0.96729287  1
  O  O154  1  0.14830084  0.84844349  0.97642439  1
  O  O155  1  0.65705539  0.85576597  0.97069518  1
  O  O156  1  0.27560805  0.86284257  0.47039334  1
  O  O157  1  0.77171053  0.85688124  0.46917676  1
  O  O158  1  0.15688076  0.45839572  0.47060209  1
  O  O159  1  0.65654652  0.45703222  0.47149971  1
  O  O160  1  0.07323395  0.67375622  0.46790175  1
  O  O161  1  0.57579519  0.67905831  0.47017966  1
  O  O162  1  0.05923303  0.64454763  0.35893168  1
  O  O163  1  0.56273631  0.64824386  0.36117960  1
  O  O164  1  0.26582899  0.88597118  0.36150007  1
  O  O165  1  0.76523130  0.89002818  0.36089632  1
  O  O166  1  0.17005277  0.47445591  0.36107669  1
  O  O167  1  0.67418005  0.47301885  0.36240357  1
  O  O168  1  0.05941544  0.47313257  0.86070062  1
  O  O169  1  0.56180151  0.47458102  0.85854035  1
  O  O170  1  0.17996699  0.87682048  0.85679683  1
  O  O171  1  0.67012263  0.86609286  0.86102461  1
  O  O172  1  0.26869523  0.64139490  0.86001292  1
  O  O173  1  0.76124539  0.63570670  0.86200313  1
  O  O174  1  0.01119452  0.81665238  0.41555474  1
  O  O175  1  0.51293080  0.81835065  0.41672773  1
  O  O176  1  0.40402281  0.98763783  0.41300702  1
  O  O177  1  0.90219680  0.99016154  0.41422350  1
  O  O178  1  0.08554327  0.20080544  0.41359336  1
  O  O179  1  0.58449997  0.19928084  0.41468829  1
  O  O180  1  0.00670891  0.20408757  0.91625455  1
  O  O181  1  0.51308917  0.20616017  0.91490199  1
  O  O182  1  0.07672102  0.98186050  0.91313186  1
  O  O183  1  0.58585769  0.97060176  0.91373227  1
  O  O184  1  0.40470055  0.82403659  0.91353978  1
  O  O185  1  0.89879740  0.81661169  0.91282255  1
  O  O186  1  0.49157837  0.17463171  0.58640001  1
  O  O187  1  0.98732592  0.17147286  0.58556992  1
  O  O188  1  0.08816589  0.02305366  0.59234781  1
  O  O189  1  0.59992725  0.03054719  0.58554564  1
  O  O190  1  0.42230258  0.83479808  0.58980468  1
  O  O191  1  0.91657922  0.82234756  0.59294057  1
  O  O192  1  0.48716527  0.80115936  0.08561126  1
  O  O193  1  0.99046321  0.80519859  0.08902991  1
  O  O194  1  0.41747437  0.01203470  0.09542277  1
  O  O195  1  0.92092721  0.00958022  0.09174585  1
  O  O196  1  0.09801974  0.16971398  0.08922520  1
  O  O197  1  0.58868729  0.15229205  0.09336255  1
  O  O198  1  0.34902861  0.18263856  0.74498125  1
  O  O199  1  0.84793892  0.17703300  0.74286727  1
  O  O200  1  0.24295643  0.32760991  0.74667645  1
  O  O201  1  0.74413843  0.32190602  0.74608271  1
  O  O202  1  0.42733676  0.53989249  0.74346795  1
  O  O203  1  0.92388665  0.53572295  0.74216950  1
  O  O204  1  0.34688467  0.51604161  0.24171447  1
  O  O205  1  0.85017848  0.51783048  0.24587268  1
  O  O206  1  0.42715281  0.31661904  0.24528211  1
  O  O207  1  0.92698938  0.31418336  0.24462696  1
  O  O208  1  0.24411319  0.16631519  0.24625557  1
  O  O209  1  0.74353313  0.16163828  0.24746794  1
  O  O210  1  0.32954682  0.51697562  0.92403729  1
  O  O211  1  0.82473053  0.50846829  0.92191535  1
  O  O212  1  0.43769429  0.36641496  0.91957660  1
  O  O213  1  0.93491251  0.37074307  0.92134419  1
  O  O214  1  0.24832745  0.15889339  0.92048812  1
  O  O215  1  0.74127360  0.12760597  0.91653427  1
  O  O216  1  0.32709022  0.14195642  0.42112774  1
  O  O217  1  0.82290835  0.14003431  0.42333264  1
  O  O218  1  0.24118102  0.35534997  0.41649470  1
  O  O219  1  0.73887504  0.34386884  0.42059020  1
  O  O220  1  0.43685676  0.50648619  0.42050771  1
  O  O221  1  0.93390440  0.50463826  0.41923861  1
  O  O222  1  0.16753463  0.47790647  0.07637127  1
  O  O223  1  0.66877361  0.49545214  0.07645020  1
  O  O224  1  0.06633766  0.64958472  0.08117328  1
  O  O225  1  0.56675009  0.65786004  0.07690175  1
  O  O226  1  0.24742487  0.84376242  0.08062360  1
  O  O227  1  0.75173739  0.84833102  0.07845592  1
  O  O228  1  0.16815915  0.84087528  0.57541656  1
  O  O229  1  0.66865862  0.86042689  0.57536412  1
  O  O230  1  0.25254229  0.65537198  0.57779853  1
  O  O231  1  0.74509887  0.64746184  0.57970438  1
  O  O232  1  0.06747522  0.47478270  0.57705082  1
  O  O233  1  0.56928088  0.48001253  0.57528484  1
  O  O234  1  0.14901308  0.82226874  0.25182334  1
  O  O235  1  0.64888694  0.81962639  0.25255128  1
  O  O236  1  0.25697347  0.67832641  0.25225646  1
  O  O237  1  0.75770704  0.67837756  0.25210152  1
  O  O238  1  0.07942574  0.45694219  0.25577694  1
  O  O239  1  0.57911372  0.45945575  0.25745737  1
  O  O240  1  0.14927198  0.48245582  0.75213629  1
  O  O241  1  0.64865076  0.47503809  0.75081888  1
  O  O242  1  0.07587406  0.69323755  0.75369920  1
  O  O243  1  0.57989336  0.70282924  0.75486686  1
  O  O244  1  0.25958381  0.83457757  0.74867626  1
  O  O245  1  0.75780180  0.83484519  0.75305575  1
