# generated using pymatgen
data_Ba2Mg(BiO3)2
_symmetry_space_group_name_H-M   'P 1'
_cell_length_a   6.07750125
_cell_length_b   6.11465611
_cell_length_c   7.48376921
_cell_angle_alpha   65.64577514
_cell_angle_beta   66.04333058
_cell_angle_gamma   60.20079879
_symmetry_Int_Tables_number   1
_chemical_formula_structural   Ba2Mg(BiO3)2
_chemical_formula_sum   'Ba2 Mg1 Bi2 O6'
_cell_volume   212.62777550
_cell_formula_units_Z   1
loop_
 _symmetry_equiv_pos_site_id
 _symmetry_equiv_pos_as_xyz
  1  'x, y, z'
loop_
 _atom_site_type_symbol
 _atom_site_label
 _atom_site_symmetry_multiplicity
 _atom_site_fract_x
 _atom_site_fract_y
 _atom_site_fract_z
 _atom_site_occupancy
  Ba  Ba0  1  0.79477138  0.67609478  0.73436246  1
  Ba  Ba1  1  0.34527639  0.26421826  0.04522896  1
  Mg  Mg2  1  0.18310332  0.03384922  0.59994415  1
  Bi  Bi3  1  0.93254973  0.95726486  0.17763568  1
  Bi  Bi4  1  0.51335145  0.45609741  0.51719969  1
  O  O5  1  0.78993403  0.21958109  0.70726786  1
  O  O6  1  0.58464566  0.91939083  0.38385309  1
  O  O7  1  0.11211042  0.91939083  0.38385309  1
  O  O8  1  0.28321701  0.21958109  0.70726786  1
  O  O9  1  0.76615769  0.36478984  0.10289478  1
  O  O10  1  0.28863293  0.66765877  0.75507538  1
