# generated using pymatgen
data_Na4Zr2Al2Si3(SO8)3
_symmetry_space_group_name_H-M   'P 1'
_cell_length_a   8.91973347
_cell_length_b   8.92198358
_cell_length_c   22.66341998
_cell_angle_alpha   90.12975430
_cell_angle_beta   88.62502292
_cell_angle_gamma   119.96308206
_symmetry_Int_Tables_number   1
_chemical_formula_structural   Na4Zr2Al2Si3(SO8)3
_chemical_formula_sum   'Na12 Zr6 Al6 Si9 S9 O72'
_cell_volume   1561.99054313
_cell_formula_units_Z   3
loop_
 _symmetry_equiv_pos_site_id
 _symmetry_equiv_pos_as_xyz
  1  'x, y, z'
loop_
 _atom_site_type_symbol
 _atom_site_label
 _atom_site_symmetry_multiplicity
 _atom_site_fract_x
 _atom_site_fract_y
 _atom_site_fract_z
 _atom_site_occupancy
  Na  Na0  1  0.00231149  0.64562776  0.25302678  1
  Na  Na1  1  0.99940681  0.35894920  0.74146919  1
  Na  Na2  1  0.66630298  0.97404498  0.58751797  1
  Na  Na3  1  0.67046978  0.69809308  0.08228416  1
  Na  Na4  1  0.33599818  0.30459869  0.90513605  1
  Na  Na5  1  0.32649055  0.02769885  0.42126395  1
  Na  Na6  1  0.00951660  0.00277255  0.50047554  1
  Na  Na7  1  0.98987265  0.98345579  0.99412064  1
  Na  Na8  1  0.65732268  0.33005311  0.82140862  1
  Na  Na9  1  0.66624607  0.34413089  0.33176506  1
  Na  Na10  1  0.33600951  0.67667889  0.16736937  1
  Na  Na11  1  0.33464974  0.66666580  0.65993750  1
  Zr  Zr12  1  0.01174599  0.01439591  0.64556753  1
  Zr  Zr13  1  0.00309606  0.98758886  0.14929805  1
  Zr  Zr14  1  0.67744586  0.34936351  0.97990605  1
  Zr  Zr15  1  0.67658666  0.33957389  0.48376268  1
  Zr  Zr16  1  0.33767510  0.67206522  0.31318419  1
  Zr  Zr17  1  0.35220723  0.66950045  0.80942237  1
  Al  Al18  1  0.00265933  0.96535728  0.34837189  1
  Al  Al19  1  0.97705024  0.98887037  0.84228418  1
  Al  Al20  1  0.64491002  0.29190404  0.68534926  1
  Al  Al21  1  0.67856114  0.34705672  0.19281644  1
  Al  Al22  1  0.33155614  0.67585076  0.01654204  1
  Al  Al23  1  0.28624665  0.66754846  0.52479332  1
  Si  Si24  1  0.30810883  0.01877098  0.25144157  1
  Si  Si25  1  0.70858735  0.70187679  0.25063013  1
  Si  Si26  1  0.29732978  0.27722040  0.75418099  1
  Si  Si27  1  0.71485313  0.01073212  0.74887172  1
  Si  Si28  1  0.95914181  0.34429194  0.58816717  1
  Si  Si29  1  0.37631073  0.03461666  0.58116317  1
  Si  Si30  1  0.97134642  0.61759295  0.08603768  1
  Si  Si31  1  0.63372677  0.68793458  0.91979117  1
  Si  Si32  1  0.03769308  0.67102920  0.41630290  1
  S  S33  1  0.99329821  0.28333563  0.25135261  1
  S  S34  1  0.99318850  0.70890202  0.75314104  1
  S  S35  1  0.65866467  0.61996888  0.58608568  1
  S  S36  1  0.66017739  0.04168366  0.08459743  1
  S  S37  1  0.37663965  0.34013519  0.08412677  1
  S  S38  1  0.05001252  0.37667916  0.91905590  1
  S  S39  1  0.32698780  0.95196838  0.92007234  1
  S  S40  1  0.63591057  0.95584661  0.41714637  1
  S  S41  1  0.32418115  0.37387801  0.41879371  1
  O  O42  1  0.20992242  0.03933438  0.31033202  1
  O  O43  1  0.84046686  0.80398847  0.30383002  1
  O  O44  1  0.97234734  0.17799072  0.30375404  1
  O  O45  1  0.19727879  0.16084879  0.81482099  1
  O  O46  1  0.97503472  0.79795306  0.80633114  1
  O  O47  1  0.83662755  0.03796590  0.80513258  1
  O  O48  1  0.78759251  0.96549404  0.68912360  1
  O  O49  1  0.16885445  0.19794517  0.69817146  1
  O  O50  1  0.02800730  0.81308767  0.69906871  1
  O  O51  1  0.78425632  0.81607300  0.18836829  1
  O  O52  1  0.02137877  0.20932620  0.19608478  1
  O  O53  1  0.17493645  0.97223508  0.19529935  1
  O  O54  1  0.86080549  0.36502138  0.64661311  1
  O  O55  1  0.50279018  0.12901060  0.63612236  1
  O  O56  1  0.63700812  0.51279671  0.63770151  1
  O  O57  1  0.86568521  0.49703822  0.14361652  1
  O  O58  1  0.63943120  0.12606060  0.13707781  1
  O  O59  1  0.48760886  0.36212949  0.13423680  1
  O  O60  1  0.45043602  0.30763775  0.02806608  1
  O  O61  1  0.83980186  0.53131410  0.02925345  1
  O  O62  1  0.68014958  0.14260577  0.02958680  1
  O  O63  1  0.45159052  0.14667976  0.51908646  1
  O  O64  1  0.68966969  0.54498829  0.53041475  1
  O  O65  1  0.83812633  0.30693449  0.52969497  1
  O  O66  1  0.52961467  0.69964093  0.97971923  1
  O  O67  1  0.15935820  0.47066253  0.96984526  1
  O  O68  1  0.30856535  0.84455659  0.97291088  1
  O  O69  1  0.55515267  0.85273085  0.47117165  1
  O  O70  1  0.31179701  0.46504800  0.47115259  1
  O  O71  1  0.16959754  0.70454857  0.47024845  1
  O  O72  1  0.12319838  0.64233485  0.35532177  1
  O  O73  1  0.52101194  0.87140044  0.36515393  1
  O  O74  1  0.35407847  0.47906528  0.36376387  1
  O  O75  1  0.11780753  0.47862446  0.86368051  1
  O  O76  1  0.35271078  0.87534133  0.86579711  1
  O  O77  1  0.50022244  0.63530056  0.86492688  1
  O  O78  1  0.02936753  0.85148345  0.41000322  1
  O  O79  1  0.81032962  0.98089519  0.40620883  1
  O  O80  1  0.16674095  0.20061562  0.41335636  1
  O  O81  1  0.03981643  0.20664295  0.91586283  1
  O  O82  1  0.17579985  0.97549985  0.91782409  1
  O  O83  1  0.82725052  0.85251613  0.90637506  1
  O  O84  1  0.97000460  0.16404878  0.58819869  1
  O  O85  1  0.17967219  0.00023798  0.58706792  1
  O  O86  1  0.81664463  0.79665065  0.58832072  1
  O  O87  1  0.97957548  0.80935642  0.08700227  1
  O  O88  1  0.81895249  0.02270994  0.08606739  1
  O  O89  1  0.19875612  0.18922834  0.08899258  1
  O  O90  1  0.70320720  0.18685039  0.74385119  1
  O  O91  1  0.49037240  0.30912303  0.74076999  1
  O  O92  1  0.83927127  0.53721222  0.74981437  1
  O  O93  1  0.70609295  0.51833891  0.24279899  1
  O  O94  1  0.83840756  0.30535761  0.24562398  1
  O  O95  1  0.49759601  0.18303052  0.23672076  1
  O  O96  1  0.64047985  0.50190284  0.92487387  1
  O  O97  1  0.86946897  0.34707903  0.92560263  1
  O  O98  1  0.48572264  0.12982563  0.92492057  1
  O  O99  1  0.64227680  0.12831098  0.41943314  1
  O  O100  1  0.47850021  0.34690798  0.42019290  1
  O  O101  1  0.84375316  0.50165966  0.41970170  1
  O  O102  1  0.36774662  0.50195854  0.07727779  1
  O  O103  1  0.16239798  0.64086206  0.07153521  1
  O  O104  1  0.50602906  0.86232677  0.07952293  1
  O  O105  1  0.37370892  0.84953318  0.57327478  1
  O  O106  1  0.50738084  0.64291509  0.57813650  1
  O  O107  1  0.15196575  0.50928583  0.57742855  1
  O  O108  1  0.31321633  0.83519641  0.25534831  1
  O  O109  1  0.51367562  0.67201287  0.25511471  1
  O  O110  1  0.14836036  0.46290530  0.25444291  1
  O  O111  1  0.30023322  0.46679924  0.75937268  1
  O  O112  1  0.14731206  0.68374403  0.76018636  1
  O  O113  1  0.51649645  0.84495432  0.75526434  1
