# generated using pymatgen
data_Na6Ta2In2Si5SO24
_symmetry_space_group_name_H-M   'P 1'
_cell_length_a   9.15765365
_cell_length_b   9.14842876
_cell_length_c   22.60143338
_cell_angle_alpha   89.93081100
_cell_angle_beta   90.09937990
_cell_angle_gamma   120.06821934
_symmetry_Int_Tables_number   1
_chemical_formula_structural   Na6Ta2In2Si5SO24
_chemical_formula_sum   'Na18 Ta6 In6 Si15 S3 O72'
_cell_volume   1638.69337381
_cell_formula_units_Z   3
loop_
 _symmetry_equiv_pos_site_id
 _symmetry_equiv_pos_as_xyz
  1  'x, y, z'
loop_
 _atom_site_type_symbol
 _atom_site_label
 _atom_site_symmetry_multiplicity
 _atom_site_fract_x
 _atom_site_fract_y
 _atom_site_fract_z
 _atom_site_occupancy
  Na  Na0  1  0.64725669  0.02059960  0.24797439  1
  Na  Na1  1  0.36480839  0.34756661  0.25444438  1
  Na  Na2  1  0.98736701  0.62831841  0.24766034  1
  Na  Na3  1  0.98990083  0.35310608  0.74888038  1
  Na  Na4  1  0.29742676  0.34433605  0.57899348  1
  Na  Na5  1  0.65990690  0.95579144  0.57883423  1
  Na  Na6  1  0.67044962  0.69753144  0.07267746  1
  Na  Na7  1  0.02037945  0.33902225  0.07914625  1
  Na  Na8  1  0.95368321  0.66442044  0.91038798  1
  Na  Na9  1  0.71789160  0.03845118  0.91734877  1
  Na  Na10  1  0.32621821  0.30205540  0.91053247  1
  Na  Na11  1  0.69861098  0.67573811  0.41698045  1
  Na  Na12  1  0.01187205  0.01837393  0.49379004  1
  Na  Na13  1  0.98886841  0.99388607  0.99576719  1
  Na  Na14  1  0.66362407  0.34237801  0.83038556  1
  Na  Na15  1  0.66099991  0.31643285  0.33185779  1
  Na  Na16  1  0.32968268  0.69445596  0.16102789  1
  Na  Na17  1  0.32978535  0.67802193  0.66054655  1
  Ta  Ta18  1  0.99576686  0.99290331  0.64710937  1
  Ta  Ta19  1  0.99399432  0.99488800  0.15115315  1
  Ta  Ta20  1  0.66572769  0.33480402  0.68663370  1
  Ta  Ta21  1  0.65459272  0.32096582  0.48039830  1
  Ta  Ta22  1  0.34526273  0.67087085  0.31388705  1
  Ta  Ta23  1  0.33558299  0.65430831  0.80683559  1
  In  In24  1  0.00430899  0.01282024  0.35250564  1
  In  In25  1  0.99020605  0.99722533  0.84430176  1
  In  In26  1  0.67252002  0.32986945  0.18299487  1
  In  In27  1  0.68886293  0.34666784  0.98248832  1
  In  In28  1  0.33567785  0.67359225  0.01735412  1
  In  In29  1  0.33252935  0.66483011  0.52197623  1
  Si  Si30  1  0.29160216  0.99800601  0.25217378  1
  Si  Si31  1  0.70668849  0.70507360  0.25363528  1
  Si  Si32  1  0.00335192  0.29783754  0.25022281  1
  Si  Si33  1  0.29509912  0.28465349  0.75044634  1
  Si  Si34  1  0.00054005  0.70542574  0.75181609  1
  Si  Si35  1  0.70158932  0.99942279  0.74948103  1
  Si  Si36  1  0.95331774  0.33175584  0.58455184  1
  Si  Si37  1  0.37132796  0.04342608  0.58516326  1
  Si  Si38  1  0.67618265  0.62446783  0.58187728  1
  Si  Si39  1  0.97028556  0.64144558  0.08416270  1
  Si  Si40  1  0.66646330  0.03197017  0.08414632  1
  Si  Si41  1  0.62547947  0.66481705  0.91746139  1
  Si  Si42  1  0.04389418  0.37257228  0.91628329  1
  Si  Si43  1  0.62847922  0.96315494  0.42000642  1
  Si  Si44  1  0.33442012  0.37015313  0.42045473  1
  S  S45  1  0.36328839  0.32304538  0.08354813  1
  S  S46  1  0.33393818  0.95836704  0.91405192  1
  S  S47  1  0.03913534  0.65886342  0.41619518  1
  O  O48  1  0.21420752  0.03954251  0.30845807  1
  O  O49  1  0.82202962  0.77531634  0.31170432  1
  O  O50  1  0.94855850  0.16722896  0.30387707  1
  O  O51  1  0.22599503  0.18834356  0.81236214  1
  O  O52  1  0.96888607  0.77189066  0.81360070  1
  O  O53  1  0.81397007  0.05191463  0.80924140  1
  O  O54  1  0.80264608  0.97269500  0.69320288  1
  O  O55  1  0.16197719  0.19280834  0.69478924  1
  O  O56  1  0.02330978  0.83588508  0.69665674  1
  O  O57  1  0.80227563  0.83708807  0.19608821  1
  O  O58  1  0.03797671  0.20813425  0.19075253  1
  O  O59  1  0.16210939  0.96975752  0.19505365  1
  O  O60  1  0.85822469  0.34593120  0.64349300  1
  O  O61  1  0.49877204  0.14919846  0.63922028  1
  O  O62  1  0.65722676  0.50092503  0.63724201  1
  O  O63  1  0.88256755  0.52866091  0.14264052  1
  O  O64  1  0.64084431  0.11105705  0.14425108  1
  O  O65  1  0.46454651  0.34458475  0.13719486  1
  O  O66  1  0.44075299  0.30301891  0.02907509  1
  O  O67  1  0.84904202  0.57424260  0.02501617  1
  O  O68  1  0.70344378  0.14858206  0.02432408  1
  O  O69  1  0.46600711  0.16881027  0.52586320  1
  O  O70  1  0.69601405  0.53246367  0.52142761  1
  O  O71  1  0.82510573  0.30504210  0.52774759  1
  O  O72  1  0.55238942  0.69972463  0.97780308  1
  O  O73  1  0.14751325  0.45360691  0.97716325  1
  O  O74  1  0.30818276  0.86281264  0.96962925  1
  O  O75  1  0.54387954  0.85520569  0.47898858  1
  O  O76  1  0.31532441  0.45395016  0.48012905  1
  O  O77  1  0.13750360  0.67951537  0.46934040  1
  O  O78  1  0.12702418  0.64551985  0.36143115  1
  O  O79  1  0.50165811  0.86159909  0.36084519  1
  O  O80  1  0.35661275  0.50105427  0.36209200  1
  O  O81  1  0.14934092  0.49759341  0.85870497  1
  O  O82  1  0.35122112  0.86813800  0.86242581  1
  O  O83  1  0.49944382  0.65276788  0.86109465  1
  O  O84  1  0.01037670  0.80381323  0.41228091  1
  O  O85  1  0.80665886  0.96620297  0.41404554  1
  O  O86  1  0.17952731  0.18060120  0.41534056  1
  O  O87  1  0.02624695  0.18525772  0.91321596  1
  O  O88  1  0.18415872  0.98011221  0.91008303  1
  O  O89  1  0.81655612  0.82743080  0.91242357  1
  O  O90  1  0.96293802  0.15417984  0.58995350  1
  O  O91  1  0.19127638  0.04100898  0.59190599  1
  O  O92  1  0.84399782  0.81478273  0.59006617  1
  O  O93  1  0.98558015  0.83019173  0.09307327  1
  O  O94  1  0.84885265  0.02647300  0.09099728  1
  O  O95  1  0.19090813  0.17044646  0.08826769  1
  O  O96  1  0.68107699  0.16577648  0.73893390  1
  O  O97  1  0.48645755  0.32230233  0.73979860  1
  O  O98  1  0.84133669  0.51256602  0.74093577  1
  O  O99  1  0.65989416  0.51306249  0.24134597  1
  O  O100  1  0.84882981  0.33605485  0.24575869  1
  O  O101  1  0.48090582  0.15699399  0.24387070  1
  O  O102  1  0.62187619  0.48232117  0.91739325  1
  O  O103  1  0.85787829  0.36039497  0.91332711  1
  O  O104  1  0.49045258  0.12698092  0.91696705  1
  O  O105  1  0.64405165  0.15237951  0.42273549  1
  O  O106  1  0.52226300  0.37643282  0.42063219  1
  O  O107  1  0.86991232  0.49960824  0.41789378  1
  O  O108  1  0.34358413  0.47466376  0.08132270  1
  O  O109  1  0.14994329  0.64639714  0.07957477  1
  O  O110  1  0.51617044  0.83509987  0.08196892  1
  O  O111  1  0.36290694  0.86439013  0.58189976  1
  O  O112  1  0.50955921  0.64408146  0.58440078  1
  O  O113  1  0.14316913  0.49016937  0.58267660  1
  O  O114  1  0.29759599  0.81867231  0.25778066  1
  O  O115  1  0.52341471  0.70501529  0.25826983  1
  O  O116  1  0.18135532  0.48236486  0.25885640  1
  O  O117  1  0.30468819  0.47402663  0.75518339  1
  O  O118  1  0.17032026  0.68299610  0.75630273  1
  O  O119  1  0.51514874  0.82874938  0.75703616  1
