# generated using pymatgen
data_MgCrCo5O12
_symmetry_space_group_name_H-M   'P 1'
_cell_length_a   4.93980564
_cell_length_b   4.94110126
_cell_length_c   9.99478810
_cell_angle_alpha   86.28501632
_cell_angle_beta   82.19971838
_cell_angle_gamma   59.98797807
_symmetry_Int_Tables_number   1
_chemical_formula_structural   MgCrCo5O12
_chemical_formula_sum   'Mg1 Cr1 Co5 O12'
_cell_volume   209.28843802
_cell_formula_units_Z   1
loop_
 _symmetry_equiv_pos_site_id
 _symmetry_equiv_pos_as_xyz
  1  'x, y, z'
loop_
 _atom_site_type_symbol
 _atom_site_label
 _atom_site_symmetry_multiplicity
 _atom_site_fract_x
 _atom_site_fract_y
 _atom_site_fract_z
 _atom_site_occupancy
  Mg  Mg0  1  0.25060033  0.66832523  0.24978488  1
  Cr  Cr1  1  0.98320605  0.00815620  0.99515682  1
  Co  Co2  1  0.17799600  0.66780755  0.50921050  1
  Co  Co3  1  0.65239565  0.67279209  0.99887174  1
  Co  Co4  1  0.31774949  0.33751864  0.99864171  1
  Co  Co5  1  0.84827405  0.33454542  0.49635588  1
  Co  Co6  1  0.51487195  0.00118480  0.49636911  1
  O  O7  1  0.97036125  0.66162950  0.10473048  1
  O  O8  1  0.36210230  0.65437158  0.90228822  1
  O  O9  1  0.20874782  0.34558031  0.39895893  1
  O  O10  1  0.53004635  0.66691117  0.39904559  1
  O  O11  1  0.50082211  0.32255216  0.59291197  1
  O  O12  1  0.15457870  0.01472796  0.59313586  1
  O  O13  1  0.80851085  0.66871618  0.59293917  1
  O  O14  1  0.60330534  0.35814616  0.10472520  1
  O  O15  1  0.30028291  0.99122576  0.10495162  1
  O  O16  1  0.00945410  0.35589318  0.90265892  1
  O  O17  1  0.66030916  0.00657642  0.90265523  1
  O  O18  1  0.88745659  0.98833969  0.39857216  1
