# generated using pymatgen
data_Na6Mg3TiP4(SO12)2
_symmetry_space_group_name_H-M   'P 1'
_cell_length_a   8.89666690
_cell_length_b   8.90481993
_cell_length_c   22.00946038
_cell_angle_alpha   90.23598889
_cell_angle_beta   89.82713054
_cell_angle_gamma   119.95455627
_symmetry_Int_Tables_number   1
_chemical_formula_structural   Na6Mg3TiP4(SO12)2
_chemical_formula_sum   'Na18 Mg9 Ti3 P12 S6 O72'
_cell_volume   1510.73133970
_cell_formula_units_Z   3
loop_
 _symmetry_equiv_pos_site_id
 _symmetry_equiv_pos_as_xyz
  1  'x, y, z'
loop_
 _atom_site_type_symbol
 _atom_site_label
 _atom_site_symmetry_multiplicity
 _atom_site_fract_x
 _atom_site_fract_y
 _atom_site_fract_z
 _atom_site_occupancy
  Na  Na0  1  0.36420277  0.36434268  0.25260655  1
  Na  Na1  1  0.63887104  0.63733318  0.74616520  1
  Na  Na2  1  0.99692564  0.35201120  0.74932314  1
  Na  Na3  1  0.29794659  0.33974474  0.58382008  1
  Na  Na4  1  0.02958432  0.69419958  0.58059495  1
  Na  Na5  1  0.67077368  0.96216022  0.58190297  1
  Na  Na6  1  0.29345750  0.96361642  0.08010117  1
  Na  Na7  1  0.66280323  0.69370744  0.08232673  1
  Na  Na8  1  0.04136374  0.34039018  0.08208853  1
  Na  Na9  1  0.32290607  0.29620318  0.91259620  1
  Na  Na10  1  0.97962576  0.30537515  0.41453529  1
  Na  Na11  1  0.69313564  0.67496411  0.41459364  1
  Na  Na12  1  0.00611034  0.00076226  0.49509525  1
  Na  Na13  1  0.99416379  0.98969161  0.99257536  1
  Na  Na14  1  0.65762265  0.31096389  0.83027444  1
  Na  Na15  1  0.66371026  0.31809189  0.33080439  1
  Na  Na16  1  0.32635792  0.67117515  0.17015287  1
  Na  Na17  1  0.33736074  0.66983779  0.66666407  1
  Mg  Mg18  1  0.00448981  0.99803029  0.35238637  1
  Mg  Mg19  1  0.99780788  0.00291462  0.85163471  1
  Mg  Mg20  1  0.99305914  0.00466196  0.65199508  1
  Mg  Mg21  1  0.00304763  0.99622122  0.15004445  1
  Mg  Mg22  1  0.65985365  0.32734662  0.68549734  1
  Mg  Mg23  1  0.67248898  0.33826740  0.18441379  1
  Mg  Mg24  1  0.33049308  0.66539788  0.01502320  1
  Mg  Mg25  1  0.33328134  0.66462979  0.51332582  1
  Mg  Mg26  1  0.33389577  0.67534547  0.32053709  1
  Ti  Ti27  1  0.67159473  0.34547929  0.97593767  1
  Ti  Ti28  1  0.67246462  0.33800739  0.47795590  1
  Ti  Ti29  1  0.33997121  0.67346608  0.81944815  1
  P  P30  1  0.29723018  0.29787445  0.75183202  1
  P  P31  1  0.70092438  0.99814843  0.75051606  1
  P  P32  1  0.96006605  0.33577316  0.58438263  1
  P  P33  1  0.66690597  0.62576654  0.58449949  1
  P  P34  1  0.95796283  0.62295777  0.08356864  1
  P  P35  1  0.37545584  0.33435337  0.08400746  1
  P  P36  1  0.63112259  0.67285247  0.91918595  1
  P  P37  1  0.03798062  0.37397945  0.91815681  1
  P  P38  1  0.33475525  0.96126184  0.92033578  1
  P  P39  1  0.62715108  0.96334742  0.41848868  1
  P  P40  1  0.33465539  0.36851838  0.41683392  1
  P  P41  1  0.04124849  0.67004922  0.41888384  1
  S  S42  1  0.29639452  0.99774118  0.24856023  1
  S  S43  1  0.70276952  0.70456704  0.24970290  1
  S  S44  1  0.99883396  0.29528242  0.24974108  1
  S  S45  1  0.00572471  0.70933038  0.74979919  1
  S  S46  1  0.37556513  0.04178396  0.58320256  1
  S  S47  1  0.66659806  0.04444047  0.08330915  1
  O  O48  1  0.20738286  0.02490320  0.30065381  1
  O  O49  1  0.80553073  0.79109026  0.30436133  1
  O  O50  1  0.98167189  0.19197888  0.30453288  1
  O  O51  1  0.21160312  0.19113472  0.80833795  1
  O  O52  1  0.98054271  0.79494083  0.80240020  1
  O  O53  1  0.82120967  0.02507971  0.80331577  1
  O  O54  1  0.76557721  0.95288343  0.69124976  1
  O  O55  1  0.18567044  0.22167427  0.69383356  1
  O  O56  1  0.02923249  0.80709442  0.69280461  1
  O  O57  1  0.78673004  0.80488937  0.19369632  1
  O  O58  1  0.02211151  0.21081163  0.19415267  1
  O  O59  1  0.19837336  0.97811571  0.19109846  1
  O  O60  1  0.87460594  0.35937525  0.64112405  1
  O  O61  1  0.48142700  0.12108679  0.63753142  1
  O  O62  1  0.63941935  0.51521033  0.64089068  1
  O  O63  1  0.87469385  0.50616105  0.13798322  1
  O  O64  1  0.63859952  0.12346423  0.13787721  1
  O  O65  1  0.48454225  0.35874282  0.14076118  1
  O  O66  1  0.47017109  0.30994925  0.02665238  1
  O  O67  1  0.83641590  0.52514886  0.02658420  1
  O  O68  1  0.69375119  0.15381721  0.02877911  1
  O  O69  1  0.45964146  0.15151142  0.52878941  1
  O  O70  1  0.68574501  0.52715349  0.52750377  1
  O  O71  1  0.84158433  0.31330758  0.52757522  1
  O  O72  1  0.54720495  0.69070174  0.97685282  1
  O  O73  1  0.14687804  0.45514572  0.97503567  1
  O  O74  1  0.31409773  0.86126325  0.97839167  1
  O  O75  1  0.55206023  0.85634258  0.47655931  1
  O  O76  1  0.30542095  0.45096202  0.47379524  1
  O  O77  1  0.14004948  0.69341032  0.47788883  1
  O  O78  1  0.11782823  0.62424315  0.36474080  1
  O  O79  1  0.51438015  0.88208785  0.36299010  1
  O  O80  1  0.37659381  0.48459771  0.36015542  1
  O  O81  1  0.12980192  0.49220722  0.86117212  1
  O  O82  1  0.35902924  0.86062710  0.86516599  1
  O  O83  1  0.50578224  0.63773525  0.86300092  1
  O  O84  1  0.00151243  0.81746189  0.41068988  1
  O  O85  1  0.81363520  0.99190769  0.41124678  1
  O  O86  1  0.17379084  0.18897409  0.40925571  1
  O  O87  1  0.01953481  0.19533282  0.91022427  1
  O  O88  1  0.18174834  0.99047646  0.91054397  1
  O  O89  1  0.81101156  0.82233853  0.90929567  1
  O  O90  1  0.97609934  0.16985477  0.58521030  1
  O  O91  1  0.20014502  0.02439170  0.58785487  1
  O  O92  1  0.83641363  0.80439786  0.58571620  1
  O  O93  1  0.96666463  0.80130633  0.08601765  1
  O  O94  1  0.82454764  0.02635477  0.08827591  1
  O  O95  1  0.19272064  0.16905862  0.08606296  1
  O  O96  1  0.68422454  0.16106288  0.74428356  1
  O  O97  1  0.48514343  0.33393916  0.74630205  1
  O  O98  1  0.84978845  0.53136456  0.74582326  1
  O  O99  1  0.68119810  0.52646866  0.24665920  1
  O  O100  1  0.84331963  0.31383807  0.24513835  1
  O  O101  1  0.47078846  0.15947693  0.24479129  1
  O  O102  1  0.63356015  0.49406736  0.92183805  1
  O  O103  1  0.85434616  0.35885639  0.92348272  1
  O  O104  1  0.50419266  0.14646744  0.92267088  1
  O  O105  1  0.65323878  0.15290620  0.42646192  1
  O  O106  1  0.50291468  0.35232381  0.42608148  1
  O  O107  1  0.85024958  0.49754651  0.42533372  1
  O  O108  1  0.35662753  0.49738602  0.07816143  1
  O  O109  1  0.14219951  0.64971254  0.07666021  1
  O  O110  1  0.51222045  0.86782222  0.07770024  1
  O  O111  1  0.35513679  0.86609713  0.57714121  1
  O  O112  1  0.50664034  0.64905825  0.57803829  1
  O  O113  1  0.14174048  0.49855045  0.57800223  1
  O  O114  1  0.31449611  0.84303678  0.25466671  1
  O  O115  1  0.52477367  0.68201440  0.25291797  1
  O  O116  1  0.16059266  0.46867151  0.25371023  1
  O  O117  1  0.31254018  0.48596570  0.75883080  1
  O  O118  1  0.16081753  0.68498423  0.75595761  1
  O  O119  1  0.51535305  0.83001104  0.76128655  1
