# generated using pymatgen
data_Na2Nb3InSi2(PO6)4
_symmetry_space_group_name_H-M   'P 1'
_cell_length_a   8.85606043
_cell_length_b   8.86445551
_cell_length_c   23.02165390
_cell_angle_alpha   90.05574455
_cell_angle_beta   89.97966966
_cell_angle_gamma   119.95752147
_symmetry_Int_Tables_number   1
_chemical_formula_structural   Na2Nb3InSi2(PO6)4
_chemical_formula_sum   'Na6 Nb9 In3 Si6 P12 O72'
_cell_volume   1565.83254154
_cell_formula_units_Z   3
loop_
 _symmetry_equiv_pos_site_id
 _symmetry_equiv_pos_as_xyz
  1  'x, y, z'
loop_
 _atom_site_type_symbol
 _atom_site_label
 _atom_site_symmetry_multiplicity
 _atom_site_fract_x
 _atom_site_fract_y
 _atom_site_fract_z
 _atom_site_occupancy
  Na  Na0  1  0.99734523  0.99929798  0.49494726  1
  Na  Na1  1  0.99968102  0.99943760  0.00095328  1
  Na  Na2  1  0.66827986  0.33370457  0.83198912  1
  Na  Na3  1  0.66624843  0.33434188  0.32804123  1
  Na  Na4  1  0.33348235  0.66374386  0.16489900  1
  Na  Na5  1  0.32990602  0.66432115  0.66711919  1
  Nb  Nb6  1  0.00047815  0.99991846  0.85707331  1
  Nb  Nb7  1  0.99904752  0.00214263  0.64460770  1
  Nb  Nb8  1  0.00272579  0.00331156  0.14602428  1
  Nb  Nb9  1  0.66156550  0.33173329  0.97801367  1
  Nb  Nb10  1  0.67004358  0.32915427  0.47801542  1
  Nb  Nb11  1  0.33314293  0.66368961  0.01999375  1
  Nb  Nb12  1  0.33531642  0.66674862  0.52012875  1
  Nb  Nb13  1  0.33751674  0.67119906  0.31022282  1
  Nb  Nb14  1  0.33254892  0.66641521  0.81346349  1
  In  In15  1  0.99851809  0.00072203  0.35406657  1
  In  In16  1  0.66852059  0.33485455  0.68661674  1
  In  In17  1  0.66611978  0.33429674  0.18414689  1
  Si  Si18  1  0.95713275  0.33590327  0.58450046  1
  Si  Si19  1  0.37714572  0.33480869  0.08425633  1
  Si  Si20  1  0.61967173  0.66546800  0.91639817  1
  Si  Si21  1  0.04423553  0.38038817  0.91647126  1
  Si  Si22  1  0.33502013  0.95329916  0.91700464  1
  Si  Si23  1  0.62473902  0.95507472  0.41658759  1
  P  P24  1  0.29037141  0.00188162  0.25139152  1
  P  P25  1  0.71208149  0.70852191  0.25089352  1
  P  P26  1  0.99805625  0.29068185  0.25084019  1
  P  P27  1  0.28717153  0.28747503  0.75041674  1
  P  P28  1  0.00062572  0.71351226  0.75044931  1
  P  P29  1  0.71166894  0.99860864  0.75077640  1
  P  P30  1  0.37790139  0.04406851  0.58328136  1
  P  P31  1  0.66616909  0.62096530  0.58326315  1
  P  P32  1  0.95699388  0.62333654  0.08324851  1
  P  P33  1  0.66566638  0.04251233  0.08316883  1
  P  P34  1  0.33582139  0.38119174  0.41666308  1
  P  P35  1  0.04717803  0.66634437  0.41669712  1
  O  O36  1  0.21072367  0.02650529  0.30595019  1
  O  O37  1  0.81480585  0.78820721  0.30567668  1
  O  O38  1  0.97217788  0.18578487  0.30521296  1
  O  O39  1  0.19308866  0.17538476  0.80397208  1
  O  O40  1  0.98467237  0.80979406  0.80423779  1
  O  O41  1  0.82522970  0.01702765  0.80410883  1
  O  O42  1  0.80379692  0.97535180  0.69545408  1
  O  O43  1  0.17158138  0.19577430  0.69517421  1
  O  O44  1  0.02476398  0.82743916  0.69539132  1
  O  O45  1  0.79850900  0.82678957  0.19596776  1
  O  O46  1  0.02680469  0.19861813  0.19571717  1
  O  O47  1  0.17119953  0.97261176  0.19618924  1
  O  O48  1  0.88690079  0.37689352  0.64193408  1
  O  O49  1  0.48299540  0.11221158  0.63839286  1
  O  O50  1  0.62513114  0.51577477  0.63857116  1
  O  O51  1  0.89097082  0.51782257  0.13833647  1
  O  O52  1  0.63164544  0.11220654  0.13843047  1
  O  O53  1  0.48707095  0.37550567  0.14180689  1
  O  O54  1  0.46925332  0.30307404  0.02645125  1
  O  O55  1  0.84094267  0.53595679  0.02920704  1
  O  O56  1  0.69773925  0.15909271  0.02902477  1
  O  O57  1  0.46349039  0.16119356  0.52911332  1
  O  O58  1  0.69492613  0.53514414  0.52922215  1
  O  O59  1  0.83159219  0.30327743  0.52657291  1
  O  O60  1  0.53201545  0.69947723  0.97301384  1
  O  O61  1  0.16772712  0.46859303  0.97275660  1
  O  O62  1  0.30061061  0.83324942  0.97346071  1
  O  O63  1  0.51985167  0.83605320  0.47296710  1
  O  O64  1  0.31392350  0.47337549  0.47106771  1
  O  O65  1  0.15796156  0.68224949  0.47106909  1
  O  O66  1  0.13056393  0.63441811  0.36206837  1
  O  O67  1  0.49656381  0.85889598  0.35951512  1
  O  O68  1  0.36083618  0.49569971  0.36222588  1
  O  O69  1  0.13752466  0.50149151  0.85862482  1
  O  O70  1  0.36404908  0.86215245  0.85864260  1
  O  O71  1  0.49837231  0.63517015  0.85857704  1
  O  O72  1  0.03104916  0.82794667  0.41446175  1
  O  O73  1  0.81369193  0.97740025  0.41607991  1
  O  O74  1  0.17699524  0.20149310  0.41424045  1
  O  O75  1  0.02593084  0.18921027  0.90657809  1
  O  O76  1  0.16491959  0.97645333  0.90673216  1
  O  O77  1  0.81176855  0.83694024  0.90685979  1
  O  O78  1  0.97678455  0.15904301  0.59155941  1
  O  O79  1  0.19190651  0.02213805  0.59028589  1
  O  O80  1  0.83194711  0.80593021  0.59081888  1
  O  O81  1  0.97318688  0.80724369  0.09050892  1
  O  O82  1  0.83070927  0.02115951  0.09027349  1
  O  O83  1  0.18001483  0.15780498  0.09138941  1
  O  O84  1  0.69251951  0.15904720  0.74781867  1
  O  O85  1  0.46613685  0.30454001  0.74650094  1
  O  O86  1  0.83767223  0.53539324  0.74864163  1
  O  O87  1  0.68418976  0.52687123  0.24543413  1
  O  O88  1  0.84372745  0.31717764  0.24325624  1
  O  O89  1  0.47313633  0.15215429  0.24479681  1
  O  O90  1  0.64282995  0.49612991  0.92486126  1
  O  O91  1  0.85368773  0.35891208  0.92528005  1
  O  O92  1  0.50708554  0.14490839  0.92434722  1
  O  O93  1  0.63089862  0.14503171  0.42488178  1
  O  O94  1  0.50499864  0.37172832  0.42519061  1
  O  O95  1  0.86365287  0.49970280  0.42505298  1
  O  O96  1  0.34658496  0.50059293  0.07344736  1
  O  O97  1  0.14307753  0.65337143  0.07339693  1
  O  O98  1  0.50654416  0.85882915  0.07356804  1
  O  O99  1  0.35015043  0.85872959  0.57257400  1
  O  O100  1  0.50952010  0.65153522  0.57288074  1
  O  O101  1  0.15263821  0.49914296  0.57177140  1
  O  O102  1  0.29784486  0.82630708  0.25652723  1
  O  O103  1  0.52581359  0.69570663  0.25702824  1
  O  O104  1  0.17062406  0.47257030  0.25638200  1
  O  O105  1  0.29852964  0.46782105  0.75506035  1
  O  O106  1  0.16941470  0.70068084  0.75560884  1
  O  O107  1  0.53166847  0.82900986  0.75516914  1
