# generated using pymatgen
data_NaNbZn3(SO4)6
_symmetry_space_group_name_H-M   'P 1'
_cell_length_a   8.73810978
_cell_length_b   8.73810950
_cell_length_c   22.66527079
_cell_angle_alpha   90.00000000
_cell_angle_beta   90.00000000
_cell_angle_gamma   120.00000105
_symmetry_Int_Tables_number   1
_chemical_formula_structural   NaNbZn3(SO4)6
_chemical_formula_sum   'Na3 Nb3 Zn9 S18 O72'
_cell_volume   1498.74075997
_cell_formula_units_Z   3
loop_
 _symmetry_equiv_pos_site_id
 _symmetry_equiv_pos_as_xyz
  1  'x, y, z'
loop_
 _atom_site_type_symbol
 _atom_site_label
 _atom_site_symmetry_multiplicity
 _atom_site_fract_x
 _atom_site_fract_y
 _atom_site_fract_z
 _atom_site_occupancy
  Na  Na0  1  0.00000000  0.00000000  0.00291450  1
  Na  Na1  1  0.66666700  0.33333300  0.83632274  1
  Na  Na2  1  0.66666700  0.33333300  0.32557835  1
  Nb  Nb3  1  0.00000000  -0.00000000  0.64795143  1
  Nb  Nb4  1  0.33333300  0.66666700  0.02371169  1
  Nb  Nb5  1  0.33333300  0.66666700  0.51466227  1
  Zn  Zn6  1  0.00000000  0.00000000  0.34338597  1
  Zn  Zn7  1  0.00000000  -0.00000000  0.85566745  1
  Zn  Zn8  1  0.00000000  -0.00000000  0.16086601  1
  Zn  Zn9  1  0.66666700  0.33333300  0.68352956  1
  Zn  Zn10  1  0.66666700  0.33333300  0.18928251  1
  Zn  Zn11  1  0.66666700  0.33333300  0.98478444  1
  Zn  Zn12  1  0.66666700  0.33333300  0.48086619  1
  Zn  Zn13  1  0.33333300  0.66666700  0.30295252  1
  Zn  Zn14  1  0.33333300  0.66666700  0.81408977  1
  S  S15  1  0.29648435  0.00332728  0.25092546  1
  S  S16  1  0.70684292  0.70351565  0.25092546  1
  S  S17  1  0.99667272  0.29315708  0.25092546  1
  S  S18  1  0.29488529  0.29239016  0.75211812  1
  S  S19  1  0.99750486  0.70511471  0.75211812  1
  S  S20  1  0.70760984  0.00249514  0.75211812  1
  S  S21  1  0.95825691  0.33555247  0.58375142  1
  S  S22  1  0.37729656  0.04174309  0.58375142  1
  S  S23  1  0.66444753  0.62270344  0.58375142  1
  S  S24  1  0.95297443  0.62853730  0.08230684  1
  S  S25  1  0.67556386  0.04702557  0.08230684  1
  S  S26  1  0.37146270  0.32443614  0.08230684  1
  S  S27  1  0.62431328  0.66472142  0.91560823  1
  S  S28  1  0.04040714  0.37568672  0.91560823  1
  S  S29  1  0.33527858  0.95959286  0.91560823  1
  S  S30  1  0.62912920  0.96377438  0.41336872  1
  S  S31  1  0.33464418  0.37087080  0.41336872  1
  S  S32  1  0.03622562  0.66535582  0.41336872  1
  O  O33  1  0.21844954  0.03460863  0.30478901  1
  O  O34  1  0.81615909  0.78155046  0.30478901  1
  O  O35  1  0.96539137  0.18384091  0.30478901  1
  O  O36  1  0.21113851  0.17923230  0.80358588  1
  O  O37  1  0.96809379  0.78886149  0.80358588  1
  O  O38  1  0.82076770  0.03190621  0.80358588  1
  O  O39  1  0.80687443  0.98520604  0.69694051  1
  O  O40  1  0.17833161  0.19312557  0.69694051  1
  O  O41  1  0.01479396  0.82166839  0.69694051  1
  O  O42  1  0.78456512  0.80734646  0.19647297  1
  O  O43  1  0.02278135  0.21543488  0.19647297  1
  O  O44  1  0.19265353  0.97721865  0.19647297  1
  O  O45  1  0.88546648  0.36858993  0.63705559  1
  O  O46  1  0.48312445  0.11453352  0.63705559  1
  O  O47  1  0.63141007  0.51687555  0.63705559  1
  O  O48  1  0.88486732  0.51821010  0.13423788  1
  O  O49  1  0.63334377  0.11513267  0.13423788  1
  O  O50  1  0.48178990  0.36665623  0.13423788  1
  O  O51  1  0.44951213  0.30171716  0.02775549  1
  O  O52  1  0.85220603  0.55048787  0.02775549  1
  O  O53  1  0.69828284  0.14779397  0.02775549  1
  O  O54  1  0.44654968  0.15137132  0.53122440  1
  O  O55  1  0.70482263  0.55345032  0.53122440  1
  O  O56  1  0.84862868  0.29517737  0.53122440  1
  O  O57  1  0.53012094  0.68403686  0.96929413  1
  O  O58  1  0.15391492  0.46987906  0.96929413  1
  O  O59  1  0.31596314  0.84608508  0.96929413  1
  O  O60  1  0.52654286  0.84482218  0.47083322  1
  O  O61  1  0.31827831  0.47345714  0.47083322  1
  O  O62  1  0.15517782  0.68172169  0.47083322  1
  O  O63  1  0.12389255  0.63595358  0.36411495  1
  O  O64  1  0.51206003  0.87610745  0.36411495  1
  O  O65  1  0.36404642  0.48793997  0.36411495  1
  O  O66  1  0.12181965  0.48017029  0.86207941  1
  O  O67  1  0.35834964  0.87818035  0.86207941  1
  O  O68  1  0.51982971  0.64165036  0.86207941  1
  O  O69  1  0.03156436  0.82849820  0.41417624  1
  O  O70  1  0.79693384  0.96843564  0.41417624  1
  O  O71  1  0.17150180  0.20306616  0.41417624  1
  O  O72  1  0.03208969  0.20200563  0.91488492  1
  O  O73  1  0.16991594  0.96791031  0.91488492  1
  O  O74  1  0.79799437  0.83008406  0.91488492  1
  O  O75  1  0.98316593  0.17663050  0.59466315  1
  O  O76  1  0.19346457  0.01683407  0.59466315  1
  O  O77  1  0.82336950  0.80653543  0.59466315  1
  O  O78  1  0.98721908  0.80957398  0.08801537  1
  O  O79  1  0.82235490  0.01278092  0.08801537  1
  O  O80  1  0.19042602  0.17764510  0.08801537  1
  O  O81  1  0.69212167  0.16078369  0.74250630  1
  O  O82  1  0.46866302  0.30787833  0.74250630  1
  O  O83  1  0.83921631  0.53133698  0.74250630  1
  O  O84  1  0.68898060  0.52501054  0.24587353  1
  O  O85  1  0.83603094  0.31101940  0.24587353  1
  O  O86  1  0.47498946  0.16396906  0.24587353  1
  O  O87  1  0.64227858  0.50699014  0.92287913  1
  O  O88  1  0.86471256  0.35772142  0.92287913  1
  O  O89  1  0.49300986  0.13528744  0.92287913  1
  O  O90  1  0.64087475  0.13499180  0.42515186  1
  O  O91  1  0.49411805  0.35912525  0.42515186  1
  O  O92  1  0.86500820  0.50588195  0.42515186  1
  O  O93  1  0.35424045  0.49377399  0.07094602  1
  O  O94  1  0.13953254  0.64575955  0.07094602  1
  O  O95  1  0.50622601  0.86046746  0.07094602  1
  O  O96  1  0.34842095  0.86000358  0.57432121  1
  O  O97  1  0.51158163  0.65157905  0.57432121  1
  O  O98  1  0.13999642  0.48841837  0.57432121  1
  O  O99  1  0.31153730  0.84444828  0.25708149  1
  O  O100  1  0.53290997  0.68846270  0.25708149  1
  O  O101  1  0.15555172  0.46709003  0.25708149  1
  O  O102  1  0.30057507  0.46141713  0.75307206  1
  O  O103  1  0.16084107  0.69942493  0.75307206  1
  O  O104  1  0.53858287  0.83915893  0.75307206  1
