# generated using pymatgen
data_Na2TiSi2SnSO12
_symmetry_space_group_name_H-M   'P 1'
_cell_length_a   8.90715722
_cell_length_b   8.89103818
_cell_length_c   22.42834614
_cell_angle_alpha   89.87469504
_cell_angle_beta   89.98375928
_cell_angle_gamma   120.00076196
_symmetry_Int_Tables_number   1
_chemical_formula_structural   Na2TiSi2SnSO12
_chemical_formula_sum   'Na12 Ti6 Si12 Sn6 S6 O72'
_cell_volume   1538.20618408
_cell_formula_units_Z   6
loop_
 _symmetry_equiv_pos_site_id
 _symmetry_equiv_pos_as_xyz
  1  'x, y, z'
loop_
 _atom_site_type_symbol
 _atom_site_label
 _atom_site_symmetry_multiplicity
 _atom_site_fract_x
 _atom_site_fract_y
 _atom_site_fract_z
 _atom_site_occupancy
  Na  Na0  1  0.99753518  0.62652376  0.25415104  1
  Na  Na1  1  0.37513923  0.01160703  0.75410348  1
  Na  Na2  1  0.66411939  0.95960048  0.58746084  1
  Na  Na3  1  0.03926749  0.33921366  0.09051944  1
  Na  Na4  1  0.32275949  0.29222744  0.92325925  1
  Na  Na5  1  0.70601241  0.67398355  0.42111967  1
  Na  Na6  1  0.02477963  0.99271968  0.49999285  1
  Na  Na7  1  0.01520606  0.98179166  0.00276463  1
  Na  Na8  1  0.69351575  0.32169263  0.83204416  1
  Na  Na9  1  0.67294370  0.31402284  0.33644184  1
  Na  Na10  1  0.34901139  0.65493760  0.16957045  1
  Na  Na11  1  0.33869667  0.64784135  0.66550802  1
  Ti  Ti12  1  0.97843449  0.99330041  0.35345374  1
  Ti  Ti13  1  0.99878416  0.00258555  0.64471232  1
  Ti  Ti14  1  0.00021023  0.00011322  0.14762645  1
  Ti  Ti15  1  0.64669367  0.32587722  0.68535649  1
  Ti  Ti16  1  0.66544163  0.33457485  0.47874658  1
  Ti  Ti17  1  0.33132489  0.66867225  0.31322685  1
  Si  Si18  1  0.70356716  0.71530811  0.25117773  1
  Si  Si19  1  -0.00010660  0.28784345  0.24893487  1
  Si  Si20  1  0.28874176  0.29441333  0.74812563  1
  Si  Si21  1  0.71113565  0.00411836  0.74658969  1
  Si  Si22  1  0.37181323  0.04802947  0.58290922  1
  Si  Si23  1  0.66706576  0.62060630  0.58119516  1
  Si  Si24  1  0.95726909  0.63137278  0.08562312  1
  Si  Si25  1  0.37272750  0.33275351  0.08295189  1
  Si  Si26  1  0.03564591  0.37378930  0.91658294  1
  Si  Si27  1  0.33366195  0.95984112  0.91364095  1
  Si  Si28  1  0.61990520  0.96172627  0.41665948  1
  Si  Si29  1  0.04283639  0.66912124  0.41513501  1
  Sn  Sn30  1  0.00596257  0.01198727  0.85136997  1
  Sn  Sn31  1  0.66910903  0.34472083  0.18926215  1
  Sn  Sn32  1  0.66530892  0.33278596  0.98087545  1
  Sn  Sn33  1  0.31883325  0.66210332  0.02001054  1
  Sn  Sn34  1  0.33802068  0.67731315  0.51986085  1
  Sn  Sn35  1  0.33208109  0.66791490  0.81029756  1
  S  S36  1  0.28830393  0.00216512  0.25102054  1
  S  S37  1  0.99070517  0.70782760  0.74744428  1
  S  S38  1  0.95418865  0.33589690  0.58306545  1
  S  S39  1  0.66535222  0.03559170  0.08558802  1
  S  S40  1  0.62799850  0.67189946  0.91663991  1
  S  S41  1  0.32833782  0.37385092  0.41592982  1
  O  O42  1  0.20781481  0.02132313  0.30471717  1
  O  O43  1  0.82377669  0.80209442  0.31103926  1
  O  O44  1  0.98752385  0.16458564  0.30513983  1
  O  O45  1  0.22989367  0.17784837  0.80968823  1
  O  O46  1  0.96672933  0.77969668  0.80438852  1
  O  O47  1  0.81899536  0.02205091  0.80721114  1
  O  O48  1  0.80488963  0.97971588  0.68706385  1
  O  O49  1  0.15908258  0.17812571  0.69397619  1
  O  O50  1  0.01153710  0.81991726  0.69612608  1
  O  O51  1  0.81722712  0.83741447  0.19478187  1
  O  O52  1  0.02421535  0.20220865  0.18768547  1
  O  O53  1  0.18632884  0.98298442  0.19612305  1
  O  O54  1  0.87446998  0.35479259  0.63730822  1
  O  O55  1  0.49150783  0.13368543  0.64315548  1
  O  O56  1  0.65404226  0.49769357  0.63758646  1
  O  O57  1  0.88648996  0.50440993  0.14486611  1
  O  O58  1  0.63617481  0.11404676  0.13883100  1
  O  O59  1  0.49011729  0.35418743  0.14096043  1
  O  O60  1  0.44613418  0.29761616  0.02035244  1
  O  O61  1  0.83702494  0.54025349  0.02726035  1
  O  O62  1  0.69750026  0.14513685  0.03110805  1
  O  O63  1  0.48527412  0.17146395  0.52644062  1
  O  O64  1  0.69070132  0.53316386  0.51992641  1
  O  O65  1  0.85104615  0.31626712  0.52870289  1
  O  O66  1  0.55002843  0.69547397  0.97107795  1
  O  O67  1  0.15499089  0.44385155  0.97720518  1
  O  O68  1  0.32199576  0.85092176  0.97311504  1
  O  O69  1  0.56188146  0.83925716  0.47723612  1
  O  O70  1  0.29870919  0.44555526  0.47201255  1
  O  O71  1  0.15876392  0.69766165  0.47483675  1
  O  O72  1  0.13517667  0.64158935  0.35551661  1
  O  O73  1  0.48947032  0.84820045  0.36210171  1
  O  O74  1  0.35426015  0.48811942  0.36435652  1
  O  O75  1  0.13351819  0.49177275  0.85822676  1
  O  O76  1  0.36544003  0.88480558  0.85094172  1
  O  O77  1  0.52170105  0.64660788  0.86246548  1
  O  O78  1  0.02044891  0.84121662  0.40819078  1
  O  O79  1  0.81420237  0.98461536  0.40661524  1
  O  O80  1  0.18157454  0.19748765  0.40902585  1
  O  O81  1  0.01831653  0.18098573  0.91326753  1
  O  O82  1  0.15163423  0.96690518  0.91183329  1
  O  O83  1  0.80416731  0.82155631  0.91130482  1
  O  O84  1  0.96545719  0.17283118  0.58540017  1
  O  O85  1  0.18170230  0.03029210  0.58825827  1
  O  O86  1  0.83354448  0.81855104  0.58910318  1
  O  O87  1  0.97757812  0.82285895  0.09380731  1
  O  O88  1  0.82586718  0.02473972  0.09064203  1
  O  O89  1  0.17381623  0.16796152  0.09061040  1
  O  O90  1  0.69292425  0.17858666  0.74062531  1
  O  O91  1  0.48264622  0.31667566  0.73882738  1
  O  O92  1  0.84471390  0.53137096  0.74173715  1
  O  O93  1  0.69544406  0.52564085  0.25057211  1
  O  O94  1  0.82018644  0.30052279  0.24859403  1
  O  O95  1  0.46657613  0.15337815  0.24674162  1
  O  O96  1  0.63701877  0.50942188  0.91959836  1
  O  O97  1  0.84662980  0.35955671  0.92114236  1
  O  O98  1  0.49562712  0.16245642  0.91794780  1
  O  O99  1  0.63653283  0.15116503  0.42330710  1
  O  O100  1  0.49327761  0.36815292  0.42007264  1
  O  O101  1  0.84433964  0.49964982  0.42170363  1
  O  O102  1  0.35880844  0.51149541  0.08005710  1
  O  O103  1  0.15105127  0.65144029  0.08204821  1
  O  O104  1  0.51641832  0.85978854  0.07906741  1
  O  O105  1  0.36484522  0.85915025  0.58136935  1
  O  O106  1  0.48764186  0.63341396  0.58030893  1
  O  O107  1  0.13246249  0.48774630  0.57889785  1
  O  O108  1  0.29883313  0.83875120  0.25323742  1
  O  O109  1  0.51360539  0.69762383  0.25661268  1
  O  O110  1  0.16653677  0.48581746  0.25723955  1
  O  O111  1  0.30083351  0.48253289  0.75035115  1
  O  O112  1  0.15800631  0.70508689  0.74896485  1
  O  O113  1  0.50985737  0.83590872  0.74843733  1
