# generated using pymatgen
data_TbB3H18C2S
_symmetry_space_group_name_H-M   'P 1'
_cell_length_a   5.53208640
_cell_length_b   22.73152400
_cell_length_c   8.18546859
_cell_angle_alpha   90.00000000
_cell_angle_beta   100.15300686
_cell_angle_gamma   90.00000000
_symmetry_Int_Tables_number   1
_chemical_formula_structural   TbB3H18C2S
_chemical_formula_sum   'Tb4 B12 H72 C8 S4'
_cell_volume   1013.22621242
_cell_formula_units_Z   4
loop_
 _symmetry_equiv_pos_site_id
 _symmetry_equiv_pos_as_xyz
  1  'x, y, z'
loop_
 _atom_site_type_symbol
 _atom_site_label
 _atom_site_symmetry_multiplicity
 _atom_site_fract_x
 _atom_site_fract_y
 _atom_site_fract_z
 _atom_site_occupancy
  Tb  Tb0  1  0.68121800  0.33406900  0.11771800  1
  Tb  Tb1  1  0.31878200  0.83406900  0.38228200  1
  Tb  Tb2  1  0.31878200  0.66593100  0.88228200  1
  Tb  Tb3  1  0.68121800  0.16593100  0.61771800  1
  B  B4  1  0.16551600  0.16816200  0.56528800  1
  B  B5  1  0.83448400  0.66816200  0.93471200  1
  B  B6  1  0.83448400  0.83183800  0.43471200  1
  B  B7  1  0.16551600  0.33183800  0.06528800  1
  B  B8  1  0.80085100  0.08347400  0.81325600  1
  B  B9  1  0.19914900  0.58347400  0.68674400  1
  B  B10  1  0.19914900  0.91652600  0.18674400  1
  B  B11  1  0.80085100  0.41652600  0.31325600  1
  B  B12  1  0.32192400  0.75494000  0.12292800  1
  B  B13  1  0.67807600  0.25494000  0.37707200  1
  B  B14  1  0.67807600  0.24506000  0.87707200  1
  B  B15  1  0.32192400  0.74506000  0.62292800  1
  H  H16  1  0.27943200  0.19555500  0.47374700  1
  H  H17  1  0.72056800  0.69555500  0.02625300  1
  H  H18  1  0.72056800  0.80444500  0.52625300  1
  H  H19  1  0.27943200  0.30444500  0.97374700  1
  H  H20  1  0.29492800  0.13491000  0.66147200  1
  H  H21  1  0.70507200  0.63491000  0.83852800  1
  H  H22  1  0.70507200  0.86509000  0.33852800  1
  H  H23  1  0.29492800  0.36509000  0.16147200  1
  H  H24  1  0.07505300  0.20483900  0.64721200  1
  H  H25  1  0.92494700  0.70483900  0.85278800  1
  H  H26  1  0.92494700  0.79516100  0.35278800  1
  H  H27  1  0.07505300  0.29516100  0.14721200  1
  H  H28  1  0.00796000  0.13789300  0.47809200  1
  H  H29  1  0.99204000  0.63789300  0.02190800  1
  H  H30  1  0.99204000  0.86210700  0.52190800  1
  H  H31  1  0.00796000  0.36210700  0.97809200  1
  H  H32  1  0.86119000  0.04241600  0.90402900  1
  H  H33  1  0.13881000  0.54241600  0.59597100  1
  H  H34  1  0.13881000  0.95758400  0.09597100  1
  H  H35  1  0.86119000  0.45758400  0.40402900  1
  H  H36  1  0.96090600  0.12202400  0.82328800  1
  H  H37  1  0.03909400  0.62202400  0.67671200  1
  H  H38  1  0.03909400  0.87797600  0.17671200  1
  H  H39  1  0.96090600  0.37797600  0.32328800  1
  H  H40  1  0.75767300  0.06823200  0.66483500  1
  H  H41  1  0.24232700  0.56823200  0.83516500  1
  H  H42  1  0.24232700  0.93176800  0.33516500  1
  H  H43  1  0.75767300  0.43176800  0.16483500  1
  H  H44  1  0.61218800  0.10823400  0.83997200  1
  H  H45  1  0.38781200  0.60823400  0.66002800  1
  H  H46  1  0.38781200  0.89176600  0.16002800  1
  H  H47  1  0.61218800  0.39176600  0.33997200  1
  H  H48  1  0.13114200  0.77271100  0.16328000  1
  H  H49  1  0.86885800  0.27271100  0.33672000  1
  H  H50  1  0.86885800  0.22728900  0.83672000  1
  H  H51  1  0.13114200  0.72728900  0.66328000  1
  H  H52  1  0.33788900  0.70193100  0.15284100  1
  H  H53  1  0.66211100  0.20193100  0.34715900  1
  H  H54  1  0.66211100  0.29806900  0.84715900  1
  H  H55  1  0.33788900  0.79806900  0.65284100  1
  H  H56  1  0.31283200  0.76619200  0.97485700  1
  H  H57  1  0.68716800  0.26619200  0.52514300  1
  H  H58  1  0.68716800  0.23380800  0.02514300  1
  H  H59  1  0.31283200  0.73380800  0.47485700  1
  H  H60  1  0.50774700  0.77845500  0.20050500  1
  H  H61  1  0.49225300  0.27845500  0.29949500  1
  H  H62  1  0.49225300  0.22154500  0.79949500  1
  H  H63  1  0.50774700  0.72154500  0.70050500  1
  H  H64  1  0.80487900  0.00999400  0.41295800  1
  H  H65  1  0.19512100  0.50999400  0.08704200  1
  H  H66  1  0.19512100  0.99000600  0.58704200  1
  H  H67  1  0.80487900  0.49000600  0.91295800  1
  H  H68  1  0.85647900  0.06003300  0.25288200  1
  H  H69  1  0.14352100  0.56003300  0.24711800  1
  H  H70  1  0.14352100  0.93996700  0.74711800  1
  H  H71  1  0.85647900  0.43996700  0.75288200  1
  H  H72  1  0.63398700  0.00189000  0.20793300  1
  H  H73  1  0.36601300  0.50189000  0.29206700  1
  H  H74  1  0.36601300  0.99811000  0.79206700  1
  H  H75  1  0.63398700  0.49811000  0.70793300  1
  H  H76  1  0.21733000  0.14483600  0.18622900  1
  H  H77  1  0.78267000  0.64483600  0.31377100  1
  H  H78  1  0.78267000  0.85516400  0.81377100  1
  H  H79  1  0.21733000  0.35516400  0.68622900  1
  H  H80  1  0.27417100  0.07969000  0.07645800  1
  H  H81  1  0.72582900  0.57969000  0.42354200  1
  H  H82  1  0.72582900  0.92031000  0.92354200  1
  H  H83  1  0.27417100  0.42031000  0.57645800  1
  H  H84  1  0.50193700  0.13699600  0.11317400  1
  H  H85  1  0.49806300  0.63699600  0.38682600  1
  H  H86  1  0.49806300  0.86300400  0.88682600  1
  H  H87  1  0.50193700  0.36300400  0.61317400  1
  C  C88  1  0.71886100  0.03374200  0.30126600  1
  C  C89  1  0.28113900  0.53374200  0.19873400  1
  C  C90  1  0.28113900  0.96625800  0.69873400  1
  C  C91  1  0.71886100  0.46625800  0.80126600  1
  C  C92  1  0.35849800  0.11353700  0.16366300  1
  C  C93  1  0.64150100  0.61353700  0.33633700  1
  C  C94  1  0.64150100  0.88646300  0.83633700  1
  C  C95  1  0.35849800  0.38646300  0.66366300  1
  S  S96  1  0.48114400  0.07942500  0.36007000  1
  S  S97  1  0.51885600  0.57942500  0.13993000  1
  S  S98  1  0.51885600  0.92057500  0.63993000  1
  S  S99  1  0.48114400  0.42057500  0.86007000  1
