# generated using pymatgen
data_Na10Ta6Al2Si11SO48
_symmetry_space_group_name_H-M   'P 1'
_cell_length_a   17.82861038
_cell_length_b   8.96385217
_cell_length_c   22.40787375
_cell_angle_alpha   90.11006199
_cell_angle_beta   89.70733320
_cell_angle_gamma   120.16621948
_symmetry_Int_Tables_number   1
_chemical_formula_structural   Na10Ta6Al2Si11SO48
_chemical_formula_sum   'Na30 Ta18 Al6 Si33 S3 O144'
_cell_volume   3096.04894391
_cell_formula_units_Z   3
loop_
 _symmetry_equiv_pos_site_id
 _symmetry_equiv_pos_as_xyz
  1  'x, y, z'
loop_
 _atom_site_type_symbol
 _atom_site_label
 _atom_site_symmetry_multiplicity
 _atom_site_fract_x
 _atom_site_fract_y
 _atom_site_fract_z
 _atom_site_occupancy
  Na  Na0  1  0.31678378  0.99334380  0.25225890  1
  Na  Na1  1  0.81802719  0.99412988  0.25253246  1
  Na  Na2  1  0.82091395  0.64225743  0.74792545  1
  Na  Na3  1  0.18237795  0.98911171  0.75042184  1
  Na  Na4  1  0.68145118  0.00147100  0.74895309  1
  Na  Na5  1  0.01722820  0.70555202  0.58551378  1
  Na  Na6  1  0.83639122  0.96504351  0.58541490  1
  Na  Na7  1  0.64800654  0.97054960  0.08594820  1
  Na  Na8  1  0.33500039  0.70463436  0.08651701  1
  Na  Na9  1  0.83702880  0.70600433  0.08806569  1
  Na  Na10  1  0.01770472  0.32766981  0.08687812  1
  Na  Na11  1  0.51433456  0.32471050  0.08746868  1
  Na  Na12  1  0.98793451  0.66481905  0.91407382  1
  Na  Na13  1  0.34685532  0.02804874  0.91473475  1
  Na  Na14  1  0.48563140  0.30968969  0.41524309  1
  Na  Na15  1  0.98728829  0.31097588  0.41487577  1
  Na  Na16  1  0.34628231  0.66386835  0.41581915  1
  Na  Na17  1  0.84681043  0.66506387  0.41528635  1
  Na  Na18  1  0.00980135  0.01041140  0.50532609  1
  Na  Na19  1  0.50461044  0.99966643  0.50341114  1
  Na  Na20  1  0.00703146  0.01029002  0.00464904  1
  Na  Na21  1  0.50168784  0.99801303  0.00092917  1
  Na  Na22  1  0.33684148  0.34855377  0.83376480  1
  Na  Na23  1  0.83610367  0.32723605  0.83380386  1
  Na  Na24  1  0.33204189  0.33827036  0.33339362  1
  Na  Na25  1  0.83241192  0.33856998  0.33330671  1
  Na  Na26  1  0.16309945  0.65871662  0.17321993  1
  Na  Na27  1  0.66363084  0.65147040  0.17570833  1
  Na  Na28  1  0.17083207  0.66434102  0.67109299  1
  Na  Na29  1  0.65887229  0.65223044  0.66415373  1
  Ta  Ta30  1  0.99648767  0.99653745  0.35438133  1
  Ta  Ta31  1  0.49576528  0.99624048  0.35410141  1
  Ta  Ta32  1  0.99602646  0.00021015  0.85601357  1
  Ta  Ta33  1  0.49878846  0.99510787  0.85499548  1
  Ta  Ta34  1  0.49660577  0.99889552  0.64486454  1
  Ta  Ta35  1  0.33743132  0.33367707  0.68614862  1
  Ta  Ta36  1  0.83741509  0.33801274  0.68774419  1
  Ta  Ta37  1  0.33759505  0.34293226  0.18813975  1
  Ta  Ta38  1  0.83958318  0.34744611  0.18836738  1
  Ta  Ta39  1  0.33076892  0.33920575  0.97874564  1
  Ta  Ta40  1  0.83333209  0.32930914  0.97858537  1
  Ta  Ta41  1  0.33028217  0.32817114  0.47954759  1
  Ta  Ta42  1  0.83288276  0.32911180  0.47938150  1
  Ta  Ta43  1  0.16660951  0.66809881  0.02037123  1
  Ta  Ta44  1  0.66650342  0.66633889  0.02021776  1
  Ta  Ta45  1  0.16886520  0.66825244  0.52206220  1
  Ta  Ta46  1  0.66289438  0.66279125  0.52055978  1
  Ta  Ta47  1  0.66412855  0.66469584  0.81154474  1
  Al  Al48  1  0.99718040  0.98728669  0.64393883  1
  Al  Al49  1  0.99634487  0.00453826  0.14570529  1
  Al  Al50  1  0.49199553  0.00581992  0.14601025  1
  Al  Al51  1  0.16622365  0.64640431  0.31520150  1
  Al  Al52  1  0.66642181  0.64643868  0.31542544  1
  Al  Al53  1  0.16784857  0.67829315  0.81592882  1
  Si  Si54  1  0.35183152  0.71148946  0.24737261  1
  Si  Si55  1  0.85248114  0.71363437  0.24738110  1
  Si  Si56  1  0.00713088  0.29685126  0.24743052  1
  Si  Si57  1  0.50656686  0.29791498  0.24763078  1
  Si  Si58  1  0.64257543  0.28880063  0.74943218  1
  Si  Si59  1  0.00542722  0.71531163  0.74847901  1
  Si  Si60  1  0.49629400  0.70791115  0.74932904  1
  Si  Si61  1  0.34985321  0.98969264  0.75216872  1
  Si  Si62  1  0.85979688  0.00398298  0.74603046  1
  Si  Si63  1  0.47887980  0.33150910  0.58164192  1
  Si  Si64  1  0.98176089  0.32605115  0.58402586  1
  Si  Si65  1  0.18434550  0.04362315  0.58590436  1
  Si  Si66  1  0.68660505  0.04320036  0.58443146  1
  Si  Si67  1  0.33289798  0.62033348  0.58363760  1
  Si  Si68  1  0.83298308  0.62448353  0.58382750  1
  Si  Si69  1  0.47903701  0.63249639  0.08429272  1
  Si  Si70  1  0.98119329  0.63676406  0.08317568  1
  Si  Si71  1  0.33272540  0.04441929  0.08400569  1
  Si  Si72  1  0.83463416  0.04430086  0.08584310  1
  Si  Si73  1  0.18367884  0.32138555  0.08573787  1
  Si  Si74  1  0.68569514  0.32665815  0.08521869  1
  Si  Si75  1  0.30563213  0.66118689  0.91224226  1
  Si  Si76  1  0.81015705  0.66334304  0.91594352  1
  Si  Si77  1  0.02789719  0.38561734  0.91335359  1
  Si  Si78  1  0.52084707  0.37475162  0.91708291  1
  Si  Si79  1  0.16736162  0.95596475  0.91400851  1
  Si  Si80  1  0.66622894  0.95726745  0.91638041  1
  Si  Si81  1  0.30357617  0.95001690  0.41145641  1
  Si  Si82  1  0.80364357  0.94871385  0.41243883  1
  Si  Si83  1  0.16704526  0.38034421  0.41469395  1
  Si  Si84  1  0.66744883  0.37908115  0.41447610  1
  Si  Si85  1  0.02866875  0.67126409  0.41393209  1
  Si  Si86  1  0.52696862  0.66981615  0.41241494  1
  S  S87  1  0.14104102  0.99754120  0.24774584  1
  S  S88  1  0.64248263  0.99789923  0.24793947  1
  S  S89  1  0.14149685  0.28942317  0.74869853  1
  O  O90  1  0.10233116  0.02572088  0.30305190  1
  O  O91  1  0.60177965  0.02500388  0.30196991  1
  O  O92  1  0.41467323  0.80142870  0.30748410  1
  O  O93  1  0.91470107  0.80130747  0.30770428  1
  O  O94  1  0.48675296  0.16680989  0.30660577  1
  O  O95  1  0.98624084  0.16651928  0.30688545  1
  O  O96  1  0.10218103  0.17624112  0.80302694  1
  O  O97  1  0.59891804  0.16369463  0.80734028  1
  O  O98  1  0.48518894  0.80229915  0.80834861  1
  O  O99  1  0.98534763  0.80565713  0.80770547  1
  O  O100  1  0.41425536  0.02971594  0.81011156  1
  O  O101  1  0.91745300  0.02988175  0.80625845  1
  O  O102  1  0.40161193  0.97179942  0.69401378  1
  O  O103  1  0.90241728  0.96516205  0.68928918  1
  O  O104  1  0.08908700  0.20450575  0.69579543  1
  O  O105  1  0.58343654  0.19690382  0.69159300  1
  O  O106  1  0.01752025  0.83579970  0.69095700  1
  O  O107  1  0.51765436  0.83675295  0.69284463  1
  O  O108  1  0.40142100  0.83378814  0.19014144  1
  O  O109  1  0.90124054  0.83505702  0.19020449  1
  O  O110  1  0.01329918  0.19747917  0.18915046  1
  O  O111  1  0.51430846  0.20007843  0.18888196  1
  O  O112  1  0.08931159  0.97829368  0.19568710  1
  O  O113  1  0.59204455  0.97910390  0.19406825  1
  O  O114  1  0.43197975  0.36137640  0.64027297  1
  O  O115  1  0.93183204  0.36539135  0.63955987  1
  O  O116  1  0.24678143  0.13393509  0.64414086  1
  O  O117  1  0.74903678  0.13231970  0.64306165  1
  O  O118  1  0.31913364  0.49619789  0.64102468  1
  O  O119  1  0.81798502  0.50229050  0.64261639  1
  O  O120  1  0.43485836  0.49791150  0.14097002  1
  O  O121  1  0.93325182  0.49731932  0.13951502  1
  O  O122  1  0.31784898  0.13505350  0.14318516  1
  O  O123  1  0.81248064  0.12976120  0.14325634  1
  O  O124  1  0.25284826  0.36577282  0.14075594  1
  O  O125  1  0.75273796  0.36782358  0.14088161  1
  O  O126  1  0.23373661  0.30141870  0.02681305  1
  O  O127  1  0.73410625  0.29846100  0.02700747  1
  O  O128  1  0.41583226  0.53596638  0.02747092  1
  O  O129  1  0.91776393  0.53947200  0.02518790  1
  O  O130  1  0.35052626  0.16948683  0.02571929  1
  O  O131  1  0.84960661  0.17105426  0.02836699  1
  O  O132  1  0.23571473  0.16710469  0.52768444  1
  O  O133  1  0.73713511  0.16659721  0.52668886  1
  O  O134  1  0.34712942  0.53147825  0.52359463  1
  O  O135  1  0.84961269  0.53124757  0.52560134  1
  O  O136  1  0.42048287  0.30670222  0.52260206  1
  O  O137  1  0.91909608  0.29773291  0.52516325  1
  O  O138  1  0.26668280  0.69942929  0.97486505  1
  O  O139  1  0.76649410  0.69465124  0.97562576  1
  O  O140  1  0.08158503  0.46564032  0.97635856  1
  O  O141  1  0.58096426  0.46785230  0.97633582  1
  O  O142  1  0.14829775  0.82809287  0.97259952  1
  O  O143  1  0.65334186  0.83700787  0.97567699  1
  O  O144  1  0.26496524  0.82825640  0.47129300  1
  O  O145  1  0.76700423  0.83176567  0.47362764  1
  O  O146  1  0.14736089  0.46577827  0.47390883  1
  O  O147  1  0.64800323  0.46555709  0.47377111  1
  O  O148  1  0.08163123  0.69755932  0.47664413  1
  O  O149  1  0.58364135  0.69833841  0.47398445  1
  O  O150  1  0.07209878  0.62957727  0.35883721  1
  O  O151  1  0.57181671  0.62949636  0.35796221  1
  O  O152  1  0.24903240  0.86246967  0.35270331  1
  O  O153  1  0.74873068  0.86104795  0.35385123  1
  O  O154  1  0.18955116  0.50544385  0.35875261  1
  O  O155  1  0.68982697  0.50494733  0.35882209  1
  O  O156  1  0.07060618  0.51467841  0.85859829  1
  O  O157  1  0.57017911  0.50061109  0.86000681  1
  O  O158  1  0.18670742  0.87573170  0.85624455  1
  O  O159  1  0.68090533  0.86656284  0.85730545  1
  O  O160  1  0.24596168  0.63744800  0.85689065  1
  O  O161  1  0.75252285  0.63994587  0.85706682  1
  O  O162  1  0.01085757  0.83501432  0.40821721  1
  O  O163  1  0.51127294  0.83608072  0.40780286  1
  O  O164  1  0.40404292  0.97358248  0.40819364  1
  O  O165  1  0.90407541  0.97333577  0.40842941  1
  O  O166  1  0.08011154  0.18816799  0.40809270  1
  O  O167  1  0.58013937  0.18817229  0.40797183  1
  O  O168  1  0.01479305  0.19138558  0.90771929  1
  O  O169  1  0.50963569  0.18410760  0.91156745  1
  O  O170  1  0.08028620  0.97280448  0.90834281  1
  O  O171  1  0.58024195  0.97397875  0.91158397  1
  O  O172  1  0.40272934  0.83838485  0.90982516  1
  O  O173  1  0.90724617  0.83503176  0.91077350  1
  O  O174  1  0.48679247  0.16065088  0.58858005  1
  O  O175  1  0.98571957  0.15340749  0.59316664  1
  O  O176  1  0.08895817  0.01881229  0.59225132  1
  O  O177  1  0.59236341  0.02420586  0.58926101  1
  O  O178  1  0.41840525  0.81029969  0.59033462  1
  O  O179  1  0.91983473  0.81185306  0.58939373  1
  O  O180  1  0.49044625  0.82064252  0.09335777  1
  O  O181  1  0.98599833  0.81735575  0.09337902  1
  O  O182  1  0.41873085  0.02472180  0.08939402  1
  O  O183  1  0.91870841  0.02358841  0.08981207  1
  O  O184  1  0.08835748  0.15843516  0.09272036  1
  O  O185  1  0.59120937  0.15698169  0.09235016  1
  O  O186  1  0.33931269  0.16417117  0.74445376  1
  O  O187  1  0.84282480  0.16764428  0.74358072  1
  O  O188  1  0.22858854  0.29907810  0.74513080  1
  O  O189  1  0.73945763  0.30861973  0.74430865  1
  O  O190  1  0.41134089  0.51646537  0.74479978  1
  O  O191  1  0.91331834  0.52560498  0.74386484  1
  O  O192  1  0.34378779  0.51869136  0.24325344  1
  O  O193  1  0.84385376  0.51948867  0.24323992  1
  O  O194  1  0.41152407  0.29803165  0.24412113  1
  O  O195  1  0.91170312  0.29824609  0.24313331  1
  O  O196  1  0.23072637  0.15654461  0.24485851  1
  O  O197  1  0.73152776  0.15716736  0.24532278  1
  O  O198  1  0.32041228  0.49641783  0.92295313  1
  O  O199  1  0.82486380  0.49932682  0.92234163  1
  O  O200  1  0.42511819  0.35258304  0.92291559  1
  O  O201  1  0.93040040  0.36464311  0.92435907  1
  O  O202  1  0.25379081  0.14453523  0.92455617  1
  O  O203  1  0.75332251  0.14615609  0.92347163  1
  O  O204  1  0.32453328  0.14895188  0.42122775  1
  O  O205  1  0.82492352  0.14881388  0.42165630  1
  O  O206  1  0.25318895  0.36079244  0.42366018  1
  O  O207  1  0.75416241  0.36194539  0.42460542  1
  O  O208  1  0.42820743  0.49960758  0.42227210  1
  O  O209  1  0.92899177  0.49918845  0.42325647  1
  O  O210  1  0.17932518  0.50093398  0.07713446  1
  O  O211  1  0.67871890  0.50254484  0.07745401  1
  O  O212  1  0.07195887  0.63546633  0.07775440  1
  O  O213  1  0.57356251  0.64337785  0.07779470  1
  O  O214  1  0.24879876  0.84994081  0.07721387  1
  O  O215  1  0.74697100  0.85317524  0.07756053  1
  O  O216  1  0.17644261  0.85385534  0.57684652  1
  O  O217  1  0.68388450  0.85894253  0.57701507  1
  O  O218  1  0.24739841  0.64006733  0.57686636  1
  O  O219  1  0.74881534  0.64844093  0.57740197  1
  O  O220  1  0.07220736  0.50818373  0.57800299  1
  O  O221  1  0.57329594  0.50576519  0.57787622  1
  O  O222  1  0.15362952  0.84863936  0.25391226  1
  O  O223  1  0.65429417  0.84887172  0.25382523  1
  O  O224  1  0.25904554  0.70137622  0.25620397  1
  O  O225  1  0.75916924  0.70165187  0.25632032  1
  O  O226  1  0.08769769  0.48781125  0.25754715  1
  O  O227  1  0.58803863  0.48786351  0.25749175  1
  O  O228  1  0.15228563  0.45909159  0.75628475  1
  O  O229  1  0.65814975  0.48431558  0.75552524  1
  O  O230  1  0.08902392  0.69423186  0.75781874  1
  O  O231  1  0.58549323  0.69562144  0.75620951  1
  O  O232  1  0.25468756  0.82238297  0.75744529  1
  O  O233  1  0.76176231  0.83142310  0.75549494  1
