# generated using pymatgen
data_CsPbF3
_symmetry_space_group_name_H-M   'P 1'
_cell_length_a   6.66475513
_cell_length_b   6.66475530
_cell_length_c   6.66475609
_cell_angle_alpha   62.28894391
_cell_angle_beta   62.28893761
_cell_angle_gamma   62.28893792
_symmetry_Int_Tables_number   1
_chemical_formula_structural   CsPbF3
_chemical_formula_sum   'Cs2 Pb2 F6'
_cell_volume   220.02777346
_cell_formula_units_Z   2
loop_
 _symmetry_equiv_pos_site_id
 _symmetry_equiv_pos_as_xyz
  1  'x, y, z'
loop_
 _atom_site_type_symbol
 _atom_site_label
 _atom_site_symmetry_multiplicity
 _atom_site_fract_x
 _atom_site_fract_y
 _atom_site_fract_z
 _atom_site_occupancy
  Cs  Cs0  1  0.24195867  0.24195867  0.24195867  1
  Cs  Cs1  1  0.74195867  0.74195867  0.74195867  1
  Pb  Pb2  1  0.99163686  0.99163686  0.99163686  1
  Pb  Pb3  1  0.49163686  0.49163686  0.49163686  1
  F  F4  1  0.28990644  0.78580692  0.17589211  1
  F  F5  1  0.78580692  0.17589211  0.28990644  1
  F  F6  1  0.17589211  0.28990644  0.78580692  1
  F  F7  1  0.67589211  0.28580692  0.78990644  1
  F  F8  1  0.78990644  0.67589211  0.28580692  1
  F  F9  1  0.28580692  0.78990644  0.67589211  1
