# generated using pymatgen
data_MgSc2V2O7
_symmetry_space_group_name_H-M   'P 1'
_cell_length_a   5.58834554
_cell_length_b   5.57889402
_cell_length_c   5.51843309
_cell_angle_alpha   85.38506453
_cell_angle_beta   93.26730081
_cell_angle_gamma   69.57750818
_symmetry_Int_Tables_number   1
_chemical_formula_structural   MgSc2V2O7
_chemical_formula_sum   'Mg1 Sc2 V2 O7'
_cell_volume   160.04244847
_cell_formula_units_Z   1
loop_
 _symmetry_equiv_pos_site_id
 _symmetry_equiv_pos_as_xyz
  1  'x, y, z'
loop_
 _atom_site_type_symbol
 _atom_site_label
 _atom_site_symmetry_multiplicity
 _atom_site_fract_x
 _atom_site_fract_y
 _atom_site_fract_z
 _atom_site_occupancy
  Mg  Mg0  1  0.91903600  0.07679100  0.60520400  1
  Sc  Sc1  1  0.31243700  0.32912100  0.49824000  1
  Sc  Sc2  1  0.66968500  0.69019900  0.49483200  1
  V  V3  1  0.27481200  0.72045800  0.89981000  1
  V  V4  1  0.74199300  0.26818400  0.09931500  1
  O  O5  1  0.03969800  0.64515300  0.66775900  1
  O  O6  1  0.35540400  0.95457900  0.66643900  1
  O  O7  1  0.43660400  0.56853800  0.23233800  1
  O  O8  1  0.57521000  0.42008700  0.74994600  1
  O  O9  1  0.98477500  0.01229900  0.96691200  1
  O  O10  1  0.64459500  0.05547400  0.35969000  1
  O  O11  1  0.95051300  0.35435500  0.35951600  1
