# generated using pymatgen
data_Si3(BiO3)4
_symmetry_space_group_name_H-M   'P 1'
_cell_length_a   8.89223981
_cell_length_b   8.89228619
_cell_length_c   8.89227072
_cell_angle_alpha   109.47146209
_cell_angle_beta   109.47130849
_cell_angle_gamma   109.47130392
_symmetry_Int_Tables_number   1
_chemical_formula_structural   Si3(BiO3)4
_chemical_formula_sum   'Si6 Bi8 O24'
_cell_volume   541.26902165
_cell_formula_units_Z   2
loop_
 _symmetry_equiv_pos_site_id
 _symmetry_equiv_pos_as_xyz
  1  'x, y, z'
loop_
 _atom_site_type_symbol
 _atom_site_label
 _atom_site_symmetry_multiplicity
 _atom_site_fract_x
 _atom_site_fract_y
 _atom_site_fract_z
 _atom_site_occupancy
  Si  Si0  1  0.62499546  0.37500341  0.24999921  1
  Si  Si1  1  0.37500486  0.25000551  0.62500020  1
  Si  Si2  1  0.25000191  0.62500022  0.37500231  1
  Si  Si3  1  0.87500613  0.12500142  0.75000736  1
  Si  Si4  1  0.74999952  0.87500139  0.12499727  1
  Si  Si5  1  0.12499689  0.75000250  0.87500532  1
  Bi  Bi6  1  0.49999879  -0.00000102  0.33668105  1
  Bi  Bi7  1  0.33668291  0.49999864  0.00000040  1
  Bi  Bi8  1  0.83668220  0.49999982  -0.00000058  1
  Bi  Bi9  1  0.66331688  0.66331649  0.66331688  1
  Bi  Bi10  1  -0.00000089  0.83668166  0.49999956  1
  Bi  Bi11  1  0.00000119  0.33668198  0.50000026  1
  Bi  Bi12  1  0.50000015  -0.00000072  0.83668212  1
  Bi  Bi13  1  0.16331758  0.16331686  0.16331621  1
  O  O14  1  0.34825373  0.19123308  0.41936969  1
  O  O15  1  0.91937130  0.69123345  0.84825350  1
  O  O16  1  0.08062909  0.27186288  0.92888182  1
  O  O17  1  0.84825344  0.91936817  0.69123225  1
  O  O18  1  0.92888502  0.08063205  0.27186633  1
  O  O19  1  0.69123233  0.84825345  0.91937000  1
  O  O20  1  0.58062920  0.42888279  0.77186403  1
  O  O21  1  0.80876727  0.72813209  0.15702148  1
  O  O22  1  0.15174810  0.57111163  0.84297900  1
  O  O23  1  0.34297863  0.07111080  0.65174766  1
  O  O24  1  0.27186505  0.92888415  0.08063083  1
  O  O25  1  0.30876804  0.65702135  0.22813337  1
  O  O26  1  0.77186573  0.58063276  0.42888526  1
  O  O27  1  0.15702104  0.80876842  0.72813112  1
  O  O28  1  0.42888498  0.77186601  0.58063206  1
  O  O29  1  0.65174700  0.34297996  0.07111372  1
  O  O30  1  0.07111281  0.65174797  0.34297995  1
  O  O31  1  0.57111362  0.84297963  0.15174810  1
  O  O32  1  0.19123295  0.41936832  0.34825408  1
  O  O33  1  0.72813272  0.15702050  0.80876707  1
  O  O34  1  0.22813305  0.30876771  0.65702122  1
  O  O35  1  0.65702136  0.22813138  0.30876843  1
  O  O36  1  0.41937156  0.34825391  0.19123374  1
  O  O37  1  0.84297941  0.15174740  0.57110972  1
