# generated using pymatgen
data_MgSb2P2(HO5)2
_symmetry_space_group_name_H-M   'P 1'
_cell_length_a   5.92728703
_cell_length_b   8.11382611
_cell_length_c   5.33912635
_cell_angle_alpha   111.99028657
_cell_angle_beta   91.09365173
_cell_angle_gamma   111.55085323
_symmetry_Int_Tables_number   1
_chemical_formula_structural   MgSb2P2(HO5)2
_chemical_formula_sum   'Mg1 Sb2 P2 H2 O10'
_cell_volume   217.76591258
_cell_formula_units_Z   1
loop_
 _symmetry_equiv_pos_site_id
 _symmetry_equiv_pos_as_xyz
  1  'x, y, z'
loop_
 _atom_site_type_symbol
 _atom_site_label
 _atom_site_symmetry_multiplicity
 _atom_site_fract_x
 _atom_site_fract_y
 _atom_site_fract_z
 _atom_site_occupancy
  Mg  Mg0  1  0.50000000  0.00000000  -0.00000000  1
  Sb  Sb1  1  0.00000000  0.50000000  -0.00000000  1
  Sb  Sb2  1  0.00000000  0.00000000  -0.00000000  1
  P  P3  1  0.37136537  0.24412855  0.63789075  1
  P  P4  1  0.62863463  0.75587145  0.36210925  1
  H  H5  1  0.91332293  0.29788769  0.34285661  1
  H  H6  1  0.08667707  0.70211231  0.65714339  1
  O  O7  1  0.14991070  0.75880432  0.85591853  1
  O  O8  1  0.16483082  0.32117837  0.66072772  1
  O  O9  1  0.36227153  0.60055559  0.28066167  1
  O  O10  1  0.33024095  0.09876988  0.32951202  1
  O  O11  1  0.33691668  0.12502682  0.81909778  1
  O  O12  1  0.66308332  0.87497318  0.18090222  1
  O  O13  1  0.66975905  0.90123012  0.67048798  1
  O  O14  1  0.63772847  0.39944441  0.71933833  1
  O  O15  1  0.83516918  0.67882163  0.33927228  1
  O  O16  1  0.85008930  0.24119568  0.14408147  1
