# generated using pymatgen
data_Na2Ta4Nb4Si9(SO16)3
_symmetry_space_group_name_H-M   'P 1'
_cell_length_a   17.82638528
_cell_length_b   8.90894707
_cell_length_c   22.99492221
_cell_angle_alpha   89.98594816
_cell_angle_beta   89.89298793
_cell_angle_gamma   119.94337561
_symmetry_Int_Tables_number   1
_chemical_formula_structural   Na2Ta4Nb4Si9(SO16)3
_chemical_formula_sum   'Na6 Ta12 Nb12 Si27 S9 O144'
_cell_volume   3164.45267021
_cell_formula_units_Z   3
loop_
 _symmetry_equiv_pos_site_id
 _symmetry_equiv_pos_as_xyz
  1  'x, y, z'
loop_
 _atom_site_type_symbol
 _atom_site_label
 _atom_site_symmetry_multiplicity
 _atom_site_fract_x
 _atom_site_fract_y
 _atom_site_fract_z
 _atom_site_occupancy
  Na  Na0  1  0.00015258  0.00013927  0.50028471  1
  Na  Na1  1  0.50168824  0.00104198  0.99800595  1
  Na  Na2  1  0.33490124  0.33638340  0.83193050  1
  Na  Na3  1  0.83218597  0.32855663  0.83283282  1
  Na  Na4  1  0.33231029  0.33501856  0.33660178  1
  Na  Na5  1  0.83479036  0.33199623  0.33567704  1
  Ta  Ta6  1  0.49557268  0.99682162  0.35936718  1
  Ta  Ta7  1  0.99535416  0.99424197  0.85684318  1
  Ta  Ta8  1  0.50489391  0.00370978  0.64217842  1
  Ta  Ta9  1  0.00255574  0.00284641  0.14367119  1
  Ta  Ta10  1  0.33679363  0.34052193  0.68197660  1
  Ta  Ta11  1  0.83752484  0.33393314  0.18228729  1
  Ta  Ta12  1  0.16092283  0.66269905  0.01783159  1
  Ta  Ta13  1  0.66082654  0.66404431  0.02609363  1
  Ta  Ta14  1  0.15986865  0.65703656  0.52698356  1
  Ta  Ta15  1  0.66561860  0.65828300  0.52089297  1
  Ta  Ta16  1  0.66373930  0.65887616  0.31640852  1
  Ta  Ta17  1  0.16340254  0.66775141  0.81395371  1
  Nb  Nb18  1  0.00603475  0.01613299  0.35896237  1
  Nb  Nb19  1  0.50720279  0.99781832  0.85712661  1
  Nb  Nb20  1  0.99401819  0.98444632  0.64171768  1
  Nb  Nb21  1  0.49987427  0.00391148  0.14559468  1
  Nb  Nb22  1  0.83866727  0.34719967  0.69148084  1
  Nb  Nb23  1  0.33897021  0.34267479  0.19452702  1
  Nb  Nb24  1  0.33826190  0.34702849  0.97253525  1
  Nb  Nb25  1  0.83354693  0.32467266  0.98176001  1
  Nb  Nb26  1  0.33421862  0.34352588  0.48254366  1
  Nb  Nb27  1  0.84055514  0.34310210  0.47566667  1
  Nb  Nb28  1  0.15951300  0.65029085  0.30637797  1
  Nb  Nb29  1  0.66108282  0.67042602  0.80484996  1
  Si  Si30  1  0.14225542  0.99785002  0.24983493  1
  Si  Si31  1  0.35698772  0.72075512  0.25125920  1
  Si  Si32  1  0.99495671  0.27961371  0.24925977  1
  Si  Si33  1  0.50460116  0.29016452  0.25151003  1
  Si  Si34  1  0.64355201  0.28704142  0.74917800  1
  Si  Si35  1  0.00338066  0.71888105  0.75042118  1
  Si  Si36  1  0.49452926  0.70943924  0.74876624  1
  Si  Si37  1  0.85701062  0.00079552  0.74989248  1
  Si  Si38  1  0.47922626  0.33367455  0.58177928  1
  Si  Si39  1  0.97447350  0.32798602  0.58422855  1
  Si  Si40  1  0.18995657  0.04550926  0.58382199  1
  Si  Si41  1  0.33373449  0.62897350  0.58371610  1
  Si  Si42  1  0.82913147  0.61424264  0.58294739  1
  Si  Si43  1  0.47476318  0.62070426  0.08396824  1
  Si  Si44  1  0.97932309  0.62542540  0.08180090  1
  Si  Si45  1  0.83364500  0.03912698  0.08356119  1
  Si  Si46  1  0.69033681  0.33576342  0.08374465  1
  Si  Si47  1  0.30911388  0.67428080  0.91606071  1
  Si  Si48  1  0.02062272  0.37521325  0.91604089  1
  Si  Si49  1  0.52810739  0.38178552  0.91605369  1
  Si  Si50  1  0.16547169  0.95550101  0.91645328  1
  Si  Si51  1  0.67045123  0.95244980  0.91696656  1
  Si  Si52  1  0.80867915  0.95165348  0.41674390  1
  Si  Si53  1  0.17103536  0.38885252  0.41741891  1
  Si  Si54  1  0.66655287  0.37559353  0.41742181  1
  Si  Si55  1  0.02703946  0.67228332  0.41641697  1
  Si  Si56  1  0.52207256  0.66527528  0.41844162  1
  S  S57  1  0.64407188  0.00073425  0.25094593  1
  S  S58  1  0.85571962  0.71207585  0.25004310  1
  S  S59  1  0.14390510  0.28777125  0.75048757  1
  S  S60  1  0.35602750  0.99935489  0.75000864  1
  S  S61  1  0.69106846  0.04574179  0.58333001  1
  S  S62  1  0.33161694  0.04457164  0.08320116  1
  S  S63  1  0.19044274  0.33469524  0.08345582  1
  S  S64  1  0.80889755  0.66517232  0.91649613  1
  S  S65  1  0.30835418  0.95273654  0.41625214  1
  O  O66  1  0.09718725  0.03216952  0.30626665  1
  O  O67  1  0.60390904  0.03032109  0.30256724  1
  O  O68  1  0.41988323  0.80617025  0.30667676  1
  O  O69  1  0.90953793  0.78715854  0.30190498  1
  O  O70  1  0.48576696  0.16269984  0.30639062  1
  O  O71  1  0.98184821  0.16198905  0.30657582  1
  O  O72  1  0.10399683  0.17857613  0.80345252  1
  O  O73  1  0.59560991  0.16234863  0.80644817  1
  O  O74  1  0.48194293  0.80158624  0.80685310  1
  O  O75  1  0.98708498  0.80956005  0.80699890  1
  O  O76  1  0.40931677  0.03066581  0.80244457  1
  O  O77  1  0.91897951  0.03153416  0.80695894  1
  O  O78  1  0.39530931  0.97211063  0.69722673  1
  O  O79  1  0.90515895  0.97358441  0.69364714  1
  O  O80  1  0.09180068  0.21281652  0.69820351  1
  O  O81  1  0.58179136  0.19277160  0.69328510  1
  O  O82  1  0.01689199  0.83660227  0.69337515  1
  O  O83  1  0.51127767  0.83413780  0.69320519  1
  O  O84  1  0.40551696  0.83591499  0.19313321  1
  O  O85  1  0.89608374  0.81914993  0.19683039  1
  O  O86  1  0.01144505  0.18899224  0.19302264  1
  O  O87  1  0.51507278  0.19502976  0.19300673  1
  O  O88  1  0.08234241  0.97153246  0.19284084  1
  O  O89  1  0.59041281  0.97246181  0.19747113  1
  O  O90  1  0.43165978  0.36382406  0.63948578  1
  O  O91  1  0.92855211  0.36005403  0.64019996  1
  O  O92  1  0.25057434  0.13904038  0.64129303  1
  O  O93  1  0.74256576  0.12290364  0.63597331  1
  O  O94  1  0.31756163  0.49941305  0.63972810  1
  O  O95  1  0.81749338  0.49720087  0.64036785  1
  O  O96  1  0.42716444  0.49456990  0.13951369  1
  O  O97  1  0.93242718  0.50003099  0.13931598  1
  O  O98  1  0.31862788  0.12266125  0.13584044  1
  O  O99  1  0.81770667  0.13636430  0.13966875  1
  O  O100  1  0.24359342  0.36073438  0.13555248  1
  O  O101  1  0.74958065  0.36008739  0.14134941  1
  O  O102  1  0.22825782  0.30145901  0.03108294  1
  O  O103  1  0.73491888  0.30060175  0.02690707  1
  O  O104  1  0.41327944  0.52466278  0.02727725  1
  O  O105  1  0.91657507  0.53022892  0.02659189  1
  O  O106  1  0.34699385  0.15316174  0.03094403  1
  O  O107  1  0.85095217  0.16762404  0.02747587  1
  O  O108  1  0.23578191  0.16970778  0.52671145  1
  O  O109  1  0.72723643  0.15379891  0.53103778  1
  O  O110  1  0.35118424  0.53536552  0.52753698  1
  O  O111  1  0.84670424  0.52389046  0.52650508  1
  O  O112  1  0.41540208  0.30063927  0.52648364  1
  O  O113  1  0.91476272  0.29878430  0.52656399  1
  O  O114  1  0.26371852  0.69459741  0.97502455  1
  O  O115  1  0.77252755  0.69747788  0.96913201  1
  O  O116  1  0.08352429  0.46965102  0.97294526  1
  O  O117  1  0.58442155  0.46990411  0.97415976  1
  O  O118  1  0.15160272  0.83216763  0.97343695  1
  O  O119  1  0.65370761  0.83180548  0.97397487  1
  O  O120  1  0.27286488  0.84775015  0.46901797  1
  O  O121  1  0.76367601  0.83224040  0.47360893  1
  O  O122  1  0.15384429  0.47626307  0.47383346  1
  O  O123  1  0.64978330  0.46749571  0.47296769  1
  O  O124  1  0.08504948  0.69993800  0.47374592  1
  O  O125  1  0.58424190  0.69909881  0.47352759  1
  O  O126  1  0.07007998  0.63767064  0.35943045  1
  O  O127  1  0.56904377  0.63759589  0.35977470  1
  O  O128  1  0.25779745  0.87681491  0.36363589  1
  O  O129  1  0.74937975  0.86149122  0.35818254  1
  O  O130  1  0.18299133  0.50249814  0.35921082  1
  O  O131  1  0.68266008  0.50092733  0.35988007  1
  O  O132  1  0.06977394  0.50206621  0.86002886  1
  O  O133  1  0.56835506  0.50247652  0.85954363  1
  O  O134  1  0.18374641  0.86431342  0.86021865  1
  O  O135  1  0.68306144  0.86347296  0.85937960  1
  O  O136  1  0.24903232  0.63577141  0.85890055  1
  O  O137  1  0.75745425  0.63778321  0.86393848  1
  O  O138  1  0.01044997  0.83515263  0.40704029  1
  O  O139  1  0.51268678  0.83566223  0.40412990  1
  O  O140  1  0.39827228  0.97263337  0.40850504  1
  O  O141  1  0.90453837  0.97181975  0.40698600  1
  O  O142  1  0.08324204  0.19317351  0.41032469  1
  O  O143  1  0.58155358  0.18836529  0.40346118  1
  O  O144  1  0.01346406  0.18917009  0.90502736  1
  O  O145  1  0.50935357  0.18452849  0.90792515  1
  O  O146  1  0.08195637  0.97594710  0.90438659  1
  O  O147  1  0.58313591  0.97394493  0.91050294  1
  O  O148  1  0.40539992  0.83809864  0.90870127  1
  O  O149  1  0.89835265  0.82387028  0.90867896  1
  O  O150  1  0.48720758  0.16332081  0.59556266  1
  O  O151  1  0.98927257  0.16364978  0.59267006  1
  O  O152  1  0.09528629  0.02843048  0.59289178  1
  O  O153  1  0.60178729  0.02621068  0.59155636  1
  O  O154  1  0.41891108  0.81357258  0.59627335  1
  O  O155  1  0.91713245  0.80707778  0.58964459  1
  O  O156  1  0.48705593  0.81380543  0.09233042  1
  O  O157  1  0.98823628  0.81212295  0.09546554  1
  O  O158  1  0.41141084  0.02662965  0.08953340  1
  O  O159  1  0.91896033  0.02421400  0.09613578  1
  O  O160  1  0.10220591  0.17890432  0.09138613  1
  O  O161  1  0.59360168  0.16221424  0.09310276  1
  O  O162  1  0.34453171  0.15509779  0.74299590  1
  O  O163  1  0.84474060  0.16874817  0.74103388  1
  O  O164  1  0.23224527  0.30620873  0.74478531  1
  O  O165  1  0.73822434  0.30341203  0.74121447  1
  O  O166  1  0.41050743  0.51256932  0.74262192  1
  O  O167  1  0.91705757  0.52566349  0.74408959  1
  O  O168  1  0.34547486  0.52458301  0.24095517  1
  O  O169  1  0.84485490  0.53411524  0.24206681  1
  O  O170  1  0.41622918  0.30622675  0.24153191  1
  O  O171  1  0.91071781  0.30841667  0.24193558  1
  O  O172  1  0.23878102  0.17022802  0.23759313  1
  O  O173  1  0.73136367  0.15836901  0.24349021  1
  O  O174  1  0.31867926  0.49756691  0.92492687  1
  O  O175  1  0.82211636  0.51352052  0.92319134  1
  O  O176  1  0.42824314  0.35684121  0.92645352  1
  O  O177  1  0.92706542  0.36176868  0.92384103  1
  O  O178  1  0.25131382  0.14475303  0.92816858  1
  O  O179  1  0.75233103  0.15068250  0.92448678  1
  O  O180  1  0.32214070  0.13072750  0.42237734  1
  O  O181  1  0.81903497  0.14348896  0.42486079  1
  O  O182  1  0.25253742  0.35380079  0.42369231  1
  O  O183  1  0.75093719  0.35422874  0.42516361  1
  O  O184  1  0.42665587  0.49247794  0.42325552  1
  O  O185  1  0.92941160  0.49874916  0.42327231  1
  O  O186  1  0.18010090  0.48892157  0.07539971  1
  O  O187  1  0.68069507  0.50335439  0.07192437  1
  O  O188  1  0.07437603  0.64254850  0.07308442  1
  O  O189  1  0.56933574  0.64014073  0.07489290  1
  O  O190  1  0.25573570  0.86864826  0.07530593  1
  O  O191  1  0.74989204  0.85412942  0.07135886  1
  O  O192  1  0.18165744  0.85923808  0.57177346  1
  O  O193  1  0.67847049  0.87027658  0.57543321  1
  O  O194  1  0.24976942  0.64549088  0.57127756  1
  O  O195  1  0.74815046  0.64476304  0.57291098  1
  O  O196  1  0.06930054  0.49992128  0.57488942  1
  O  O197  1  0.57205466  0.50551710  0.57299890  1
  O  O198  1  0.15657240  0.83535990  0.26163460  1
  O  O199  1  0.65373676  0.84596326  0.25761456  1
  O  O200  1  0.26257255  0.69582123  0.26044323  1
  O  O201  1  0.76865078  0.69403500  0.25693779  1
  O  O202  1  0.08081307  0.47046405  0.25728257  1
  O  O203  1  0.58673540  0.48294203  0.25979878  1
  O  O204  1  0.15487872  0.46372032  0.75946931  1
  O  O205  1  0.65531600  0.47637476  0.76228695  1
  O  O206  1  0.08669054  0.69169935  0.76089265  1
  O  O207  1  0.58092471  0.69182214  0.75750189  1
  O  O208  1  0.26849063  0.84285433  0.75786148  1
  O  O209  1  0.76351972  0.82977878  0.76154807  1
