# generated using pymatgen
data_MgCr4(WO6)2
_symmetry_space_group_name_H-M   'P 1'
_cell_length_a   4.75549542
_cell_length_b   4.78100330
_cell_length_c   9.20462000
_cell_angle_alpha   89.99998802
_cell_angle_beta   89.99998795
_cell_angle_gamma   89.22590908
_symmetry_Int_Tables_number   1
_chemical_formula_structural   MgCr4(WO6)2
_chemical_formula_sum   'Mg1 Cr4 W2 O12'
_cell_volume   209.25750225
_cell_formula_units_Z   1
loop_
 _symmetry_equiv_pos_site_id
 _symmetry_equiv_pos_as_xyz
  1  'x, y, z'
loop_
 _atom_site_type_symbol
 _atom_site_label
 _atom_site_symmetry_multiplicity
 _atom_site_fract_x
 _atom_site_fract_y
 _atom_site_fract_z
 _atom_site_occupancy
  Mg  Mg0  1  0.50000000  0.00000100  0.81514300  1
  Cr  Cr1  1  0.00000000  0.00000000  0.34188400  1
  Cr  Cr2  1  0.50000000  0.49999800  0.17153000  1
  Cr  Cr3  1  0.50000100  0.50000100  0.83904200  1
  Cr  Cr4  1  0.00000000  0.00000200  0.66443300  1
  W  W5  1  0.00000000  0.99999800  0.01493800  1
  W  W6  1  0.50000000  0.50000100  0.49944600  1
  O  O7  1  0.32240500  0.26445600  0.99439400  1
  O  O8  1  0.19046300  0.78379700  0.50751500  1
  O  O9  1  0.80953800  0.21620600  0.50751500  1
  O  O10  1  0.67759400  0.73554200  0.99439400  1
  O  O11  1  0.67025400  0.72275300  0.67609900  1
  O  O12  1  0.32974600  0.27725100  0.67609800  1
  O  O13  1  0.68419800  0.69949800  0.33723300  1
  O  O14  1  0.18253600  0.79375400  0.17320000  1
  O  O15  1  0.81746300  0.20624200  0.17320000  1
  O  O16  1  0.82739400  0.21821300  0.83835100  1
  O  O17  1  0.31580300  0.30050000  0.33723400  1
  O  O18  1  0.17260700  0.78178800  0.83835000  1
