# generated using pymatgen
data_NaCaSc(SO4)3
_symmetry_space_group_name_H-M   'P 1'
_cell_length_a   8.97235322
_cell_length_b   8.97235292
_cell_length_c   23.84157068
_cell_angle_alpha   90.00000000
_cell_angle_beta   90.00000000
_cell_angle_gamma   120.00000112
_symmetry_Int_Tables_number   1
_chemical_formula_structural   NaCaSc(SO4)3
_chemical_formula_sum   'Na6 Ca6 Sc6 S18 O72'
_cell_volume   1662.18056550
_cell_formula_units_Z   6
loop_
 _symmetry_equiv_pos_site_id
 _symmetry_equiv_pos_as_xyz
  1  'x, y, z'
loop_
 _atom_site_type_symbol
 _atom_site_label
 _atom_site_symmetry_multiplicity
 _atom_site_fract_x
 _atom_site_fract_y
 _atom_site_fract_z
 _atom_site_occupancy
  Na  Na0  1  0.00000000  -0.00000000  0.49913781  1
  Na  Na1  1  0.00000000  -0.00000000  0.99913781  1
  Na  Na2  1  0.66666700  0.33333300  0.83247081  1
  Na  Na3  1  0.66666700  0.33333300  0.33247081  1
  Na  Na4  1  0.33333300  0.66666700  0.16580481  1
  Na  Na5  1  0.33333300  0.66666700  0.66580481  1
  Ca  Ca6  1  0.00000000  -0.00000000  0.35134762  1
  Ca  Ca7  1  0.00000000  -0.00000000  0.85134762  1
  Ca  Ca8  1  0.66666700  0.33333300  0.68468062  1
  Ca  Ca9  1  0.66666700  0.33333300  0.18468062  1
  Ca  Ca10  1  0.33333300  0.66666700  0.01801462  1
  Ca  Ca11  1  0.33333300  0.66666700  0.51801462  1
  Sc  Sc12  1  0.00000000  -0.00000000  0.65051957  1
  Sc  Sc13  1  0.00000000  -0.00000000  0.15051957  1
  Sc  Sc14  1  0.66666700  0.33333300  0.98385257  1
  Sc  Sc15  1  0.66666700  0.33333300  0.48385257  1
  Sc  Sc16  1  0.33333300  0.66666700  0.31718657  1
  Sc  Sc17  1  0.33333300  0.66666700  0.81718657  1
  S  S18  1  0.29080360  0.99104245  0.25031325  1
  S  S19  1  0.70023885  0.70919640  0.25031325  1
  S  S20  1  0.00895755  0.29976115  0.25031325  1
  S  S21  1  0.29080360  0.29976115  0.75031325  1
  S  S22  1  0.00895755  0.70919640  0.75031325  1
  S  S23  1  0.70023885  0.99104245  0.75031325  1
  S  S24  1  0.95747060  0.32437545  0.58364625  1
  S  S25  1  0.36690585  0.04252940  0.58364625  1
  S  S26  1  0.67562455  0.63309415  0.58364625  1
  S  S27  1  0.95747060  0.63309415  0.08364625  1
  S  S28  1  0.67562455  0.04252940  0.08364625  1
  S  S29  1  0.36690585  0.32437545  0.08364625  1
  S  S30  1  0.62413660  0.65770945  0.91698025  1
  S  S31  1  0.03357185  0.37586340  0.91698025  1
  S  S32  1  0.34229055  0.96642815  0.91698025  1
  S  S33  1  0.62413660  0.96642815  0.41698025  1
  S  S34  1  0.34229055  0.37586340  0.41698025  1
  S  S35  1  0.03357185  0.65770945  0.41698025  1
  O  O36  1  0.21192961  0.01209322  0.30077247  1
  O  O37  1  0.80016361  0.78807039  0.30077247  1
  O  O38  1  0.98790678  0.19983639  0.30077247  1
  O  O39  1  0.21192961  0.19983639  0.80077247  1
  O  O40  1  0.98790678  0.78807039  0.80077247  1
  O  O41  1  0.80016361  0.01209322  0.80077247  1
  O  O42  1  0.78940616  0.97295318  0.69930497  1
  O  O43  1  0.18354701  0.21059384  0.69930497  1
  O  O44  1  0.02704682  0.81645299  0.69930497  1
  O  O45  1  0.78940616  0.81645299  0.19930497  1
  O  O46  1  0.02704682  0.21059384  0.19930497  1
  O  O47  1  0.18354701  0.97295318  0.19930497  1
  O  O48  1  0.87859661  0.34542622  0.63410547  1
  O  O49  1  0.46683061  0.12140339  0.63410547  1
  O  O50  1  0.65457378  0.53316939  0.63410547  1
  O  O51  1  0.87859661  0.53316939  0.13410547  1
  O  O52  1  0.65457378  0.12140339  0.13410547  1
  O  O53  1  0.46683061  0.34542622  0.13410547  1
  O  O54  1  0.45607316  0.30628618  0.03263797  1
  O  O55  1  0.85021401  0.54392684  0.03263797  1
  O  O56  1  0.69371382  0.14978599  0.03263797  1
  O  O57  1  0.45607316  0.14978599  0.53263797  1
  O  O58  1  0.69371382  0.54392684  0.53263797  1
  O  O59  1  0.85021401  0.30628618  0.53263797  1
  O  O60  1  0.54526261  0.67876022  0.96743947  1
  O  O61  1  0.13349661  0.45473739  0.96743947  1
  O  O62  1  0.32123978  0.86650339  0.96743947  1
  O  O63  1  0.54526261  0.86650339  0.46743947  1
  O  O64  1  0.32123978  0.45473739  0.46743947  1
  O  O65  1  0.13349661  0.67876022  0.46743947  1
  O  O66  1  0.12273916  0.63962018  0.36597197  1
  O  O67  1  0.51688001  0.87726084  0.36597197  1
  O  O68  1  0.36037982  0.48311999  0.36597197  1
  O  O69  1  0.12273916  0.48311999  0.86597197  1
  O  O70  1  0.36037982  0.87726084  0.86597197  1
  O  O71  1  0.51688001  0.63962018  0.86597197  1
  O  O72  1  0.00898844  0.80711417  0.41080034  1
  O  O73  1  0.79812572  0.99101156  0.41080034  1
  O  O74  1  0.19288583  0.20187428  0.41080034  1
  O  O75  1  0.00898844  0.20187428  0.91080034  1
  O  O76  1  0.19288583  0.99101156  0.91080034  1
  O  O77  1  0.79812572  0.80711417  0.91080034  1
  O  O78  1  0.96957932  0.16325358  0.58847398  1
  O  O79  1  0.19367425  0.03042068  0.58847398  1
  O  O80  1  0.83674642  0.80632575  0.58847398  1
  O  O81  1  0.96957932  0.80632575  0.08847398  1
  O  O82  1  0.83674642  0.03042068  0.08847398  1
  O  O83  1  0.19367425  0.16325358  0.08847398  1
  O  O84  1  0.67565544  0.14044717  0.74413334  1
  O  O85  1  0.46479272  0.32434456  0.74413334  1
  O  O86  1  0.85955283  0.53520728  0.74413334  1
  O  O87  1  0.67565544  0.53520728  0.24413334  1
  O  O88  1  0.85955283  0.32434456  0.24413334  1
  O  O89  1  0.46479272  0.14044717  0.24413334  1
  O  O90  1  0.63624632  0.49658658  0.92180698  1
  O  O91  1  0.86034125  0.36375368  0.92180698  1
  O  O92  1  0.50341342  0.13965875  0.92180698  1
  O  O93  1  0.63624632  0.13965875  0.42180698  1
  O  O94  1  0.50341342  0.36375368  0.42180698  1
  O  O95  1  0.86034125  0.49658658  0.42180698  1
  O  O96  1  0.34232144  0.47378117  0.07746734  1
  O  O97  1  0.13145872  0.65767856  0.07746734  1
  O  O98  1  0.52621883  0.86854128  0.07746734  1
  O  O99  1  0.34232144  0.86854128  0.57746734  1
  O  O100  1  0.52621883  0.65767856  0.57746734  1
  O  O101  1  0.13145872  0.47378117  0.57746734  1
  O  O102  1  0.30291232  0.82992058  0.25514098  1
  O  O103  1  0.52700725  0.69708768  0.25514098  1
  O  O104  1  0.17007942  0.47299275  0.25514098  1
  O  O105  1  0.30291232  0.47299275  0.75514098  1
  O  O106  1  0.17007942  0.69708768  0.75514098  1
  O  O107  1  0.52700725  0.82992058  0.75514098  1
