# generated using pymatgen
data_Na18Ca8Nb16Si21(S5O48)3
_symmetry_space_group_name_H-M   'P 1'
_cell_length_a   18.16268171
_cell_length_b   9.13461701
_cell_length_c   23.05235013
_cell_angle_alpha   89.79049091
_cell_angle_beta   90.95863835
_cell_angle_gamma   120.28428737
_symmetry_Int_Tables_number   1
_chemical_formula_structural   Na18Ca8Nb16Si21(S5O48)3
_chemical_formula_sum   'Na18 Ca8 Nb16 Si21 S15 O144'
_cell_volume   3302.15500535
_cell_formula_units_Z   1
loop_
 _symmetry_equiv_pos_site_id
 _symmetry_equiv_pos_as_xyz
  1  'x, y, z'
loop_
 _atom_site_type_symbol
 _atom_site_label
 _atom_site_symmetry_multiplicity
 _atom_site_fract_x
 _atom_site_fract_y
 _atom_site_fract_z
 _atom_site_occupancy
  Na  Na0  1  0.32397240  0.01590743  0.23722391  1
  Na  Na1  1  0.82038623  0.00989606  0.23858361  1
  Na  Na2  1  0.99596988  0.63866835  0.23906920  1
  Na  Na3  1  0.33223341  0.63343747  0.74331562  1
  Na  Na4  1  0.82054959  0.62559586  0.73973943  1
  Na  Na5  1  0.49320796  0.35040130  0.73786177  1
  Na  Na6  1  0.98763573  0.97667781  0.49186668  1
  Na  Na7  1  0.48802688  0.98377086  0.49512063  1
  Na  Na8  1  0.98837185  0.99436980  0.98928917  1
  Na  Na9  1  0.48951613  0.99897133  0.98995668  1
  Na  Na10  1  0.32548813  0.33903992  0.82280393  1
  Na  Na11  1  0.81775331  0.31272351  0.82688674  1
  Na  Na12  1  0.32159093  0.32509321  0.32988749  1
  Na  Na13  1  0.80693056  0.30250442  0.33310132  1
  Na  Na14  1  0.16782524  0.67134779  0.16010782  1
  Na  Na15  1  0.65263236  0.66142992  0.16241213  1
  Na  Na16  1  0.15757329  0.64844140  0.66511156  1
  Na  Na17  1  0.66149694  0.66265402  0.66446203  1
  Ca  Ca18  1  0.99981419  0.99979928  0.36066640  1
  Ca  Ca19  1  0.50081080  0.99722257  0.36073470  1
  Ca  Ca20  1  -0.00004023  0.00222266  0.86009601  1
  Ca  Ca21  1  0.49841868  0.99512064  0.85902971  1
  Ca  Ca22  1  0.33435898  0.34117071  0.67762709  1
  Ca  Ca23  1  0.83449952  0.33548079  0.67944560  1
  Ca  Ca24  1  0.33479362  0.33385796  0.17953400  1
  Ca  Ca25  1  0.82976276  0.32515353  0.17710985  1
  Nb  Nb26  1  0.00168344  0.01314007  0.64303371  1
  Nb  Nb27  1  0.50461158  0.99764818  0.64588925  1
  Nb  Nb28  1  0.00316514  0.99234893  0.14090170  1
  Nb  Nb29  1  0.50257904  0.99078806  0.14220893  1
  Nb  Nb30  1  0.34625474  0.34551549  0.97858743  1
  Nb  Nb31  1  0.84467687  0.34447723  0.97964494  1
  Nb  Nb32  1  0.34623147  0.34480258  0.48214610  1
  Nb  Nb33  1  0.84478719  0.34376848  0.48015266  1
  Nb  Nb34  1  0.16898745  0.66826903  0.01964745  1
  Nb  Nb35  1  0.66982510  0.66885937  0.01893833  1
  Nb  Nb36  1  0.16946892  0.67343861  0.52058859  1
  Nb  Nb37  1  0.66909056  0.67062085  0.52101663  1
  Nb  Nb38  1  0.16420634  0.68295714  0.31669784  1
  Nb  Nb39  1  0.65866288  0.68017253  0.31599136  1
  Nb  Nb40  1  0.16158408  0.64002160  0.81460241  1
  Nb  Nb41  1  0.65988968  0.64404448  0.81262625  1
  Si  Si42  1  0.14832769  0.00657144  0.25321427  1
  Si  Si43  1  0.64759042  0.00639203  0.25339027  1
  Si  Si44  1  0.14642367  0.28719088  0.75333781  1
  Si  Si45  1  0.64834541  0.28712672  0.75341590  1
  Si  Si46  1  0.50257290  0.70934672  0.75312892  1
  Si  Si47  1  0.48822477  0.33050497  0.58683364  1
  Si  Si48  1  0.98613225  0.34122975  0.58451469  1
  Si  Si49  1  0.33660007  0.63444119  0.58479647  1
  Si  Si50  1  0.83608466  0.63064916  0.58560550  1
  Si  Si51  1  0.48623002  0.62934511  0.08406162  1
  Si  Si52  1  0.98618268  0.62901352  0.08673567  1
  Si  Si53  1  0.33489521  0.04031794  0.08587128  1
  Si  Si54  1  0.83487948  0.03780103  0.08536028  1
  Si  Si55  1  0.30860194  0.65051532  0.92028077  1
  Si  Si56  1  0.80855454  0.65193524  0.91839954  1
  Si  Si57  1  0.02070140  0.37730713  0.91985836  1
  Si  Si58  1  0.52183344  0.37707932  0.91845031  1
  Si  Si59  1  0.31011288  0.97240325  0.42085341  1
  Si  Si60  1  0.80787337  0.96748315  0.41977146  1
  Si  Si61  1  0.01967650  0.66265346  0.41924073  1
  Si  Si62  1  0.51949771  0.66476024  0.42107241  1
  S  S63  1  0.35132439  0.71372862  0.24892146  1
  S  S64  1  0.85180202  0.71316826  0.24748533  1
  S  S65  1  0.00647950  0.29834744  0.24932938  1
  S  S66  1  0.50723627  0.29723020  0.25016524  1
  S  S67  1  0.00702742  0.71726752  0.75029438  1
  S  S68  1  0.34924261  0.98625123  0.74845749  1
  S  S69  1  0.85307815  0.99003623  0.74778939  1
  S  S70  1  0.18110958  0.03307437  0.58138421  1
  S  S71  1  0.68325070  0.03442855  0.58054449  1
  S  S72  1  0.18164386  0.33125315  0.08207735  1
  S  S73  1  0.68040415  0.33033218  0.08121547  1
  S  S74  1  0.17477649  0.95680273  0.91813480  1
  S  S75  1  0.67540649  0.95892690  0.91910797  1
  S  S76  1  0.17442333  0.39476001  0.41819686  1
  S  S77  1  0.67418415  0.39458228  0.41820661  1
  O  O78  1  0.09492146  0.99725019  0.30709085  1
  O  O79  1  0.60182726  0.01192631  0.30943290  1
  O  O80  1  0.39806826  0.79272224  0.30141619  1
  O  O81  1  0.90076104  0.79427382  0.30011330  1
  O  O82  1  0.49446006  0.19601657  0.30213681  1
  O  O83  1  0.99288691  0.19680197  0.30130607  1
  O  O84  1  0.09931813  0.19016050  0.80915777  1
  O  O85  1  0.59894019  0.19551839  0.80941004  1
  O  O86  1  0.47332417  0.78284428  0.80385175  1
  O  O87  1  0.99432624  0.79243144  0.80214388  1
  O  O88  1  0.39799510  0.01437493  0.80196968  1
  O  O89  1  0.90001570  0.00485048  0.80052875  1
  O  O90  1  0.39385215  0.96273064  0.69683951  1
  O  O91  1  0.90014579  0.97553762  0.69462855  1
  O  O92  1  0.08537105  0.18481964  0.69312561  1
  O  O93  1  0.58747702  0.19023480  0.69308109  1
  O  O94  1  0.01395502  0.81948609  0.69709736  1
  O  O95  1  0.51130551  0.83095061  0.69304875  1
  O  O96  1  0.39636801  0.82274983  0.19571941  1
  O  O97  1  0.89771900  0.82356122  0.19471931  1
  O  O98  1  0.01215148  0.21061088  0.19632107  1
  O  O99  1  0.51455824  0.21044592  0.19717685  1
  O  O100  1  0.08658549  0.98339399  0.19264533  1
  O  O101  1  0.58716318  0.98839706  0.19310625  1
  O  O102  1  0.45835484  0.37113506  0.64545405  1
  O  O103  1  0.95386548  0.38213065  0.64122846  1
  O  O104  1  0.22923845  0.09333553  0.63559950  1
  O  O105  1  0.73074002  0.09520995  0.63505383  1
  O  O106  1  0.31112226  0.54300914  0.64565119  1
  O  O107  1  0.81211051  0.53993770  0.64665083  1
  O  O108  1  0.45383316  0.52629002  0.14168183  1
  O  O109  1  0.95636907  0.54114849  0.14784426  1
  O  O110  1  0.31067143  0.08265847  0.14685888  1
  O  O111  1  0.81359327  0.08267058  0.14693121  1
  O  O112  1  0.22884537  0.36329365  0.13672705  1
  O  O113  1  0.72803268  0.36536484  0.13589396  1
  O  O114  1  0.22150734  0.30380007  0.03205845  1
  O  O115  1  0.72195337  0.30355838  0.03179144  1
  O  O116  1  0.41958365  0.53212884  0.02714036  1
  O  O117  1  0.91723928  0.52354564  0.03224224  1
  O  O118  1  0.34605956  0.17672309  0.03290258  1
  O  O119  1  0.84563633  0.17409405  0.03278904  1
  O  O120  1  0.22321305  0.14162356  0.53114504  1
  O  O121  1  0.72722297  0.14205478  0.53041208  1
  O  O122  1  0.34542880  0.51598094  0.53172740  1
  O  O123  1  0.84666568  0.51543377  0.53214247  1
  O  O124  1  0.41829436  0.30740009  0.53117082  1
  O  O125  1  0.91946181  0.30593004  0.52702824  1
  O  O126  1  0.24909506  0.65368926  0.97277041  1
  O  O127  1  0.75188664  0.65979808  0.97203330  1
  O  O128  1  0.07609345  0.50195725  0.97338801  1
  O  O129  1  0.57844393  0.50617263  0.97083321  1
  O  O130  1  0.17199227  0.85975396  0.97163598  1
  O  O131  1  0.67373119  0.86385210  0.97254107  1
  O  O132  1  0.25166221  0.84710548  0.47234599  1
  O  O133  1  0.75127398  0.84439360  0.47227900  1
  O  O134  1  0.17164829  0.48536279  0.47046537  1
  O  O135  1  0.67201497  0.48490793  0.47087905  1
  O  O136  1  0.07783649  0.65155510  0.47099782  1
  O  O137  1  0.57783426  0.65282307  0.47249634  1
  O  O138  1  0.06623501  0.64253765  0.35751605  1
  O  O139  1  0.56524259  0.64387014  0.35930595  1
  O  O140  1  0.24998727  0.86579883  0.35919113  1
  O  O141  1  0.74879357  0.86171331  0.35848146  1
  O  O142  1  0.18050769  0.49730988  0.36434283  1
  O  O143  1  0.68060271  0.49538834  0.36461404  1
  O  O144  1  0.06726312  0.49105102  0.85953418  1
  O  O145  1  0.56564553  0.48658133  0.85684359  1
  O  O146  1  0.18128692  0.87015107  0.86534897  1
  O  O147  1  0.68258755  0.87381346  0.86649302  1
  O  O148  1  0.24990188  0.63711117  0.85929308  1
  O  O149  1  0.75214813  0.64185037  0.85808086  1
  O  O150  1  0.01116357  0.82478832  0.42377744  1
  O  O151  1  0.51085940  0.82630251  0.42591977  1
  O  O152  1  0.40208596  0.99685497  0.41947465  1
  O  O153  1  0.90053633  0.99372827  0.41913786  1
  O  O154  1  0.09736361  0.22933570  0.41660770  1
  O  O155  1  0.59735093  0.22812360  0.41743913  1
  O  O156  1  0.01154219  0.19793393  0.92484349  1
  O  O157  1  0.51235694  0.19807484  0.92480450  1
  O  O158  1  0.09782671  0.96896540  0.91825302  1
  O  O159  1  0.59932862  0.97345283  0.91953780  1
  O  O160  1  0.39967163  0.81235734  0.92329086  1
  O  O161  1  0.90218803  0.80856105  0.92072363  1
  O  O162  1  0.49165965  0.15443520  0.58943664  1
  O  O163  1  0.98948391  0.16050826  0.59045996  1
  O  O164  1  0.09421003  0.01538937  0.58616772  1
  O  O165  1  0.59724900  0.01955400  0.58384587  1
  O  O166  1  0.42523023  0.82052911  0.58918724  1
  O  O167  1  0.92505588  0.81930931  0.59205492  1
  O  O168  1  0.49016873  0.81845674  0.09110339  1
  O  O169  1  0.99031434  0.81870556  0.09028794  1
  O  O170  1  0.42397290  0.02960727  0.09418487  1
  O  O171  1  0.92469986  0.02868938  0.09279190  1
  O  O172  1  0.09357227  0.17417473  0.08773952  1
  O  O173  1  0.59307362  0.17318255  0.08672795  1
  O  O174  1  0.33501859  0.12841546  0.73865522  1
  O  O175  1  0.83792693  0.13160090  0.74093667  1
  O  O176  1  0.24402684  0.34078802  0.74738202  1
  O  O177  1  0.74603992  0.33595588  0.74942726  1
  O  O178  1  0.43168148  0.51180354  0.74472983  1
  O  O179  1  0.93480097  0.54283403  0.74449959  1
  O  O180  1  0.33527897  0.54055135  0.24212528  1
  O  O181  1  0.84296454  0.54543396  0.24102625  1
  O  O182  1  0.43504672  0.32727564  0.24438555  1
  O  O183  1  0.93506232  0.33274071  0.24408963  1
  O  O184  1  0.24630505  0.15099958  0.25031792  1
  O  O185  1  0.74616165  0.15109652  0.24863698  1
  O  O186  1  0.30678278  0.46770907  0.92801288  1
  O  O187  1  0.80754206  0.46918201  0.92916460  1
  O  O188  1  0.42659063  0.36700861  0.92313270  1
  O  O189  1  0.92618063  0.36892387  0.92399031  1
  O  O190  1  0.25305953  0.12726903  0.92218286  1
  O  O191  1  0.75453066  0.13048566  0.92296786  1
  O  O192  1  0.30647304  0.14863328  0.42751264  1
  O  O193  1  0.80543456  0.14612124  0.42607023  1
  O  O194  1  0.25294290  0.38261435  0.42029004  1
  O  O195  1  0.75295142  0.38170420  0.42085006  1
  O  O196  1  0.42542961  0.48401617  0.42411736  1
  O  O197  1  0.92486899  0.48305230  0.42232217  1
  O  O198  1  0.16429130  0.47508505  0.07444785  1
  O  O199  1  0.66324451  0.47384830  0.07260279  1
  O  O200  1  0.08233290  0.66964041  0.07279274  1
  O  O201  1  0.58343364  0.67495103  0.07031989  1
  O  O202  1  0.25913135  0.84634264  0.06750182  1
  O  O203  1  0.75972622  0.84478896  0.06761419  1
  O  O204  1  0.16389973  0.85377844  0.57292183  1
  O  O205  1  0.66652673  0.85523895  0.57299008  1
  O  O206  1  0.25930126  0.67101960  0.56483655  1
  O  O207  1  0.75987372  0.66980361  0.56605288  1
  O  O208  1  0.08312559  0.49115296  0.56981193  1
  O  O209  1  0.58294212  0.49128015  0.57053993  1
  O  O210  1  0.14864582  0.81165736  0.25556116  1
  O  O211  1  0.65065365  0.81577163  0.25598404  1
  O  O212  1  0.26607852  0.71051161  0.24940214  1
  O  O213  1  0.76664535  0.70339322  0.24841240  1
  O  O214  1  0.08872659  0.46922126  0.25371322  1
  O  O215  1  0.59014941  0.46776859  0.25501973  1
  O  O216  1  0.14812095  0.48277482  0.75678715  1
  O  O217  1  0.65028079  0.48373803  0.75450603  1
  O  O218  1  0.09002581  0.71398662  0.75499834  1
  O  O219  1  0.59782509  0.71780591  0.76096614  1
  O  O220  1  0.26422969  0.82071775  0.75163318  1
  O  O221  1  0.76985644  0.82270441  0.74683686  1
