# generated using pymatgen
data_Na6Ta3In5(PO4)12
_symmetry_space_group_name_H-M   'P 1'
_cell_length_a   17.83549844
_cell_length_b   8.92352325
_cell_length_c   22.74714090
_cell_angle_alpha   90.03376255
_cell_angle_beta   90.01902205
_cell_angle_gamma   120.01731853
_symmetry_Int_Tables_number   1
_chemical_formula_structural   Na6Ta3In5(PO4)12
_chemical_formula_sum   'Na18 Ta9 In15 P36 O144'
_cell_volume   3134.75103106
_cell_formula_units_Z   3
loop_
 _symmetry_equiv_pos_site_id
 _symmetry_equiv_pos_as_xyz
  1  'x, y, z'
loop_
 _atom_site_type_symbol
 _atom_site_label
 _atom_site_symmetry_multiplicity
 _atom_site_fract_x
 _atom_site_fract_y
 _atom_site_fract_z
 _atom_site_occupancy
  Na  Na0  1  0.68294455  0.37161243  0.24921208  1
  Na  Na1  1  0.00146996  0.63204007  0.24964144  1
  Na  Na2  1  0.00085381  0.37051101  0.74600810  1
  Na  Na3  1  0.50094757  0.37054946  0.74622828  1
  Na  Na4  1  0.18296742  0.99430083  0.74602309  1
  Na  Na5  1  0.68302096  0.99444873  0.74638213  1
  Na  Na6  1  0.00023068  0.99958990  0.50685582  1
  Na  Na7  1  0.49978638  0.99980704  0.50711441  1
  Na  Na8  1  0.99873407  0.99758463  0.00788072  1
  Na  Na9  1  0.50148155  0.00294380  0.00766778  1
  Na  Na10  1  0.33295254  0.34629567  0.83735658  1
  Na  Na11  1  0.83249828  0.34558310  0.83822840  1
  Na  Na12  1  0.33311722  0.33375184  0.34203350  1
  Na  Na13  1  0.83283137  0.31789228  0.33824606  1
  Na  Na14  1  0.17236401  0.66350299  0.17221259  1
  Na  Na15  1  0.66962724  0.68848502  0.17153026  1
  Na  Na16  1  0.17563352  0.66535957  0.66521308  1
  Na  Na17  1  0.67556248  0.66519733  0.66555509  1
  Ta  Ta18  1  0.00123978  0.00476652  0.35549789  1
  Ta  Ta19  1  0.49766991  0.99582441  0.35516308  1
  Ta  Ta20  1  0.99878861  0.99778561  0.85707976  1
  Ta  Ta21  1  0.49898560  0.99765062  0.85662936  1
  Ta  Ta22  1  0.33362981  0.33523946  0.18660267  1
  Ta  Ta23  1  0.16774177  0.66863759  0.02038086  1
  Ta  Ta24  1  0.66535721  0.66346226  0.01942871  1
  Ta  Ta25  1  0.16612990  0.66679254  0.51790630  1
  Ta  Ta26  1  0.66629973  0.66767887  0.51779420  1
  In  In27  1  0.99825548  0.99648862  0.64571926  1
  In  In28  1  0.49839934  0.99647659  0.64571993  1
  In  In29  1  0.99783455  0.00095975  0.14762086  1
  In  In30  1  0.50078122  0.99986534  0.14742454  1
  In  In31  1  0.33288212  0.34122823  0.68077608  1
  In  In32  1  0.83293989  0.34112196  0.68081162  1
  In  In33  1  0.83253341  0.32247906  0.18338040  1
  In  In34  1  0.33333663  0.33186957  0.98161696  1
  In  In35  1  0.83345994  0.33267034  0.98351088  1
  In  In36  1  0.33323116  0.33278806  0.48351665  1
  In  In37  1  0.83343873  0.33443351  0.48240487  1
  In  In38  1  0.17044410  0.66657420  0.31664505  1
  In  In39  1  0.66624107  0.67295629  0.31729062  1
  In  In40  1  0.16956463  0.66633425  0.81859438  1
  In  In41  1  0.66985862  0.66678263  0.81876768  1
  P  P42  1  0.14626047  0.00376165  0.24977615  1
  P  P43  1  0.64526604  0.99984901  0.25060587  1
  P  P44  1  0.35516873  0.70739804  0.24881946  1
  P  P45  1  0.85409477  0.70882972  0.25095387  1
  P  P46  1  0.00000869  0.29263166  0.25083923  1
  P  P47  1  0.49742724  0.28778085  0.25017547  1
  P  P48  1  0.14472388  0.28897237  0.75154064  1
  P  P49  1  0.64483549  0.28928729  0.75142339  1
  P  P50  1  0.99862743  0.70798439  0.75206527  1
  P  P51  1  0.49868588  0.70773669  0.75195018  1
  P  P52  1  0.35427088  0.99953464  0.75099844  1
  P  P53  1  0.85431931  0.99950553  0.75106424  1
  P  P54  1  0.48390328  0.33618383  0.58347596  1
  P  P55  1  0.98353916  0.33630527  0.58336406  1
  P  P56  1  0.18441469  0.03277856  0.58363043  1
  P  P57  1  0.68479110  0.03367678  0.58337107  1
  P  P58  1  0.33175623  0.63092798  0.58106913  1
  P  P59  1  0.83172889  0.63055813  0.58093550  1
  P  P60  1  0.47991657  0.62367476  0.08208437  1
  P  P61  1  0.98285082  0.63148737  0.08357994  1
  P  P62  1  0.33205191  0.04074179  0.08258939  1
  P  P63  1  0.83241304  0.03351348  0.08076240  1
  P  P64  1  0.18841863  0.33741850  0.08241897  1
  P  P65  1  0.68415493  0.33297101  0.08324754  1
  P  P66  1  0.31469219  0.66831045  0.91722075  1
  P  P67  1  0.81394477  0.66643669  0.91710450  1
  P  P68  1  0.02060415  0.37307259  0.91570854  1
  P  P69  1  0.51938596  0.37114639  0.91429516  1
  P  P70  1  0.16599768  0.95958572  0.91516324  1
  P  P71  1  0.66585761  0.96026575  0.91533393  1
  P  P72  1  0.31341386  0.96037746  0.41542482  1
  P  P73  1  0.81478353  0.96126859  0.41570762  1
  P  P74  1  0.16661949  0.37176925  0.41590305  1
  P  P75  1  0.66546752  0.37166296  0.41340514  1
  P  P76  1  0.02023323  0.66845038  0.41328211  1
  P  P77  1  0.51896280  0.66694595  0.41548317  1
  O  O78  1  0.10116339  0.02877047  0.30559337  1
  O  O79  1  0.59193793  0.01504486  0.30477992  1
  O  O80  1  0.41207999  0.79837434  0.30488524  1
  O  O81  1  0.91437883  0.81399390  0.30526024  1
  O  O82  1  0.48350735  0.16796100  0.30500691  1
  O  O83  1  0.99522540  0.17936648  0.30632109  1
  O  O84  1  0.09417691  0.17153181  0.80707650  1
  O  O85  1  0.59422387  0.17169572  0.80687425  1
  O  O86  1  0.49183135  0.80731793  0.80785344  1
  O  O87  1  0.99193919  0.80786760  0.80802077  1
  O  O88  1  0.41172085  0.01255332  0.80665255  1
  O  O89  1  0.91188086  0.01273448  0.80678619  1
  O  O90  1  0.39435360  0.97664002  0.69571036  1
  O  O91  1  0.89430197  0.97632731  0.69577177  1
  O  O92  1  0.08954812  0.20911977  0.69704981  1
  O  O93  1  0.58950013  0.20930937  0.69697726  1
  O  O94  1  0.01589337  0.81956669  0.69777949  1
  O  O95  1  0.51583509  0.81942704  0.69773752  1
  O  O96  1  0.39431018  0.81219789  0.19400008  1
  O  O97  1  0.89265586  0.80939604  0.19497154  1
  O  O98  1  0.01171688  0.21434177  0.19512344  1
  O  O99  1  0.51538559  0.21301742  0.19577289  1
  O  O100  1  0.08957985  0.96814683  0.19602099  1
  O  O101  1  0.59587343  0.97982403  0.19428280  1
  O  O102  1  0.45154205  0.37180189  0.64263197  1
  O  O103  1  0.95137396  0.37160078  0.64269466  1
  O  O104  1  0.23474215  0.09808426  0.64279573  1
  O  O105  1  0.73484090  0.09856906  0.64263555  1
  O  O106  1  0.31153602  0.52524344  0.63839038  1
  O  O107  1  0.81162839  0.52505970  0.63825432  1
  O  O108  1  0.43210616  0.50378820  0.13736286  1
  O  O109  1  0.95020586  0.52955462  0.14192472  1
  O  O110  1  0.31965544  0.13699228  0.13737499  1
  O  O111  1  0.81193976  0.09968648  0.13745864  1
  O  O112  1  0.24892533  0.36269180  0.13754262  1
  O  O113  1  0.73485273  0.36893468  0.14179949  1
  O  O114  1  0.22700284  0.30999267  0.02734887  1
  O  O115  1  0.72781639  0.30775074  0.03034138  1
  O  O116  1  0.42774396  0.54522847  0.02705363  1
  O  O117  1  0.92658443  0.54433564  0.03064479  1
  O  O118  1  0.34557516  0.14362668  0.02711234  1
  O  O119  1  0.84613878  0.14194907  0.02651415  1
  O  O120  1  0.22929681  0.14791494  0.53160220  1
  O  O121  1  0.72971628  0.14884894  0.53133024  1
  O  O122  1  0.34516514  0.54700104  0.52757269  1
  O  O123  1  0.84532941  0.54718934  0.52731074  1
  O  O124  1  0.42614752  0.31101413  0.53151772  1
  O  O125  1  0.92573635  0.31153596  0.53147226  1
  O  O126  1  0.26714147  0.69373946  0.97113277  1
  O  O127  1  0.76452193  0.69030775  0.96988395  1
  O  O128  1  0.08371961  0.47364456  0.96833470  1
  O  O129  1  0.58056526  0.47131946  0.96705806  1
  O  O130  1  0.15637437  0.83702812  0.96782853  1
  O  O131  1  0.65322044  0.83514941  0.96764422  1
  O  O132  1  0.26590045  0.83950252  0.46890802  1
  O  O133  1  0.76658508  0.84028414  0.46914654  1
  O  O134  1  0.15407630  0.46820008  0.46928332  1
  O  O135  1  0.65337447  0.47167612  0.46591885  1
  O  O136  1  0.08192527  0.69222704  0.46613232  1
  O  O137  1  0.57982113  0.69432424  0.46912446  1
  O  O138  1  0.05705753  0.64537544  0.35564456  1
  O  O139  1  0.55629455  0.63871992  0.35978049  1
  O  O140  1  0.26253116  0.88718894  0.35925301  1
  O  O141  1  0.76417630  0.88620594  0.35965323  1
  O  O142  1  0.17942695  0.47205993  0.35972942  1
  O  O143  1  0.67728554  0.46775737  0.35564851  1
  O  O144  1  0.05640710  0.46904858  0.85777225  1
  O  O145  1  0.55556441  0.46756892  0.85650522  1
  O  O146  1  0.17710147  0.88735237  0.85707989  1
  O  O147  1  0.67725134  0.88823315  0.85711001  1
  O  O148  1  0.26402735  0.64049484  0.86090942  1
  O  O149  1  0.76428686  0.63888258  0.86023851  1
  O  O150  1  0.01705865  0.84230684  0.40886290  1
  O  O151  1  0.51520225  0.84052953  0.40969220  1
  O  O152  1  0.40315735  0.96489922  0.40951310  1
  O  O153  1  0.90547802  0.96952768  0.41000471  1
  O  O154  1  0.07976167  0.19115531  0.41111859  1
  O  O155  1  0.57825211  0.19042103  0.40833398  1
  O  O156  1  0.01667367  0.19213075  0.91133550  1
  O  O157  1  0.51611654  0.19102300  0.91078606  1
  O  O158  1  0.07911759  0.96609121  0.91192008  1
  O  O159  1  0.57917160  0.96793692  0.91142827  1
  O  O160  1  0.40443932  0.84207485  0.91205349  1
  O  O161  1  0.90384135  0.84092381  0.91196630  1
  O  O162  1  0.50051179  0.18431548  0.58631583  1
  O  O163  1  0.00058656  0.18493268  0.58625804  1
  O  O164  1  0.09190483  0.00007525  0.58665404  1
  O  O165  1  0.59214913  0.00039387  0.58644996  1
  O  O166  1  0.40829581  0.81519035  0.58550213  1
  O  O167  1  0.90815626  0.81494164  0.58545530  1
  O  O168  1  0.49518944  0.80569762  0.08933903  1
  O  O169  1  0.00182992  0.81826402  0.08660828  1
  O  O170  1  0.40688136  0.00793261  0.09044801  1
  O  O171  1  0.90869266  0.00107554  0.08509828  1
  O  O172  1  0.09730851  0.18793881  0.09060916  1
  O  O173  1  0.59103951  0.18126280  0.08572708  1
  O  O174  1  0.35174979  0.17147956  0.75127180  1
  O  O175  1  0.85172038  0.17128208  0.75129525  1
  O  O176  1  0.23191163  0.29171457  0.75042156  1
  O  O177  1  0.73193152  0.29173632  0.75037401  1
  O  O178  1  0.41677805  0.52755979  0.75047223  1
  O  O179  1  0.91684931  0.52771289  0.75053699  1
  O  O180  1  0.35089240  0.52557407  0.24214774  1
  O  O181  1  0.85218149  0.53232699  0.25146746  1
  O  O182  1  0.41312250  0.30090750  0.24230625  1
  O  O183  1  0.91596966  0.30372906  0.25185899  1
  O  O184  1  0.23692631  0.17347254  0.24164967  1
  O  O185  1  0.73196143  0.17491626  0.25205421  1
  O  O186  1  0.33117553  0.51815042  0.92351726  1
  O  O187  1  0.83118449  0.51749073  0.92409672  1
  O  O188  1  0.42818136  0.34023385  0.92134113  1
  O  O189  1  0.92980057  0.34352244  0.92311551  1
  O  O190  1  0.24176433  0.14202788  0.92197876  1
  O  O191  1  0.74179920  0.14249258  0.92251534  1
  O  O192  1  0.33126263  0.14454833  0.42299139  1
  O  O193  1  0.83102234  0.14432602  0.42323611  1
  O  O194  1  0.24151419  0.33776758  0.42293549  1
  O  O195  1  0.74090481  0.33974763  0.42151705  1
  O  O196  1  0.42740020  0.51660619  0.42292291  1
  O  O197  1  0.92919514  0.51643359  0.42125355  1
  O  O198  1  0.18506613  0.51122236  0.07607132  1
  O  O199  1  0.67609520  0.50098133  0.07114507  1
  O  O200  1  0.07460159  0.64331458  0.07096202  1
  O  O201  1  0.57036207  0.63281904  0.07598418  1
  O  O202  1  0.24546899  0.86032731  0.07613176  1
  O  O203  1  0.74757693  0.84889454  0.07017937  1
  O  O204  1  0.17669021  0.84990464  0.57182757  1
  O  O205  1  0.67722774  0.85046459  0.57183538  1
  O  O206  1  0.24842998  0.64867875  0.57068623  1
  O  O207  1  0.74806333  0.64726059  0.57036457  1
  O  O208  1  0.07488973  0.50492744  0.57162198  1
  O  O209  1  0.57549925  0.50396547  0.57151977  1
  O  O210  1  0.15811210  0.84589288  0.25633878  1
  O  O211  1  0.65771212  0.84361849  0.25598309  1
  O  O212  1  0.26326039  0.67500977  0.25492423  1
  O  O213  1  0.76091214  0.67461103  0.25637977  1
  O  O214  1  0.07788579  0.47850780  0.25554910  1
  O  O215  1  0.57686222  0.46779125  0.25771143  1
  O  O216  1  0.15321075  0.46838960  0.75712424  1
  O  O217  1  0.65329715  0.46860918  0.75705079  1
  O  O218  1  0.07965953  0.68692694  0.75755696  1
  O  O219  1  0.57973875  0.68691036  0.75753047  1
  O  O220  1  0.26117053  0.84621823  0.75578674  1
  O  O221  1  0.76122631  0.84621891  0.75581680  1
