# generated using pymatgen
data_Na5TiIn3Si3(SO8)3
_symmetry_space_group_name_H-M   'P 1'
_cell_length_a   9.09048159
_cell_length_b   9.08369259
_cell_length_c   22.82999273
_cell_angle_alpha   90.74308867
_cell_angle_beta   90.09996354
_cell_angle_gamma   119.96935176
_symmetry_Int_Tables_number   1
_chemical_formula_structural   Na5TiIn3Si3(SO8)3
_chemical_formula_sum   'Na15 Ti3 In9 Si9 S9 O72'
_cell_volume   1632.91534379
_cell_formula_units_Z   3
loop_
 _symmetry_equiv_pos_site_id
 _symmetry_equiv_pos_as_xyz
  1  'x, y, z'
loop_
 _atom_site_type_symbol
 _atom_site_label
 _atom_site_symmetry_multiplicity
 _atom_site_fract_x
 _atom_site_fract_y
 _atom_site_fract_z
 _atom_site_occupancy
  Na  Na0  1  0.64601234  0.00713931  0.25568921  1
  Na  Na1  1  0.00022932  0.62133356  0.24704803  1
  Na  Na2  1  0.63191656  0.63640609  0.74469640  1
  Na  Na3  1  0.36546851  0.01196567  0.75779476  1
  Na  Na4  1  0.66544262  0.95310130  0.58441677  1
  Na  Na5  1  0.98106959  0.68399561  0.92099394  1
  Na  Na6  1  0.69414585  0.02173124  0.91330522  1
  Na  Na7  1  0.96249160  0.30203312  0.41064270  1
  Na  Na8  1  0.70328738  0.68625650  0.42413917  1
  Na  Na9  1  0.00438020  0.98147611  0.50135924  1
  Na  Na10  1  0.01249148  0.99121009  0.99810595  1
  Na  Na11  1  0.64865346  0.31891467  0.83168138  1
  Na  Na12  1  0.66331968  0.31800239  0.33398932  1
  Na  Na13  1  0.30591298  0.63634056  0.16028681  1
  Na  Na14  1  0.32617980  0.63577373  0.66788852  1
  Ti  Ti15  1  0.66090417  0.35046188  0.97825702  1
  Ti  Ti16  1  0.68001108  0.34843647  0.48046631  1
  Ti  Ti17  1  0.36329999  0.67822929  0.81483088  1
  In  In18  1  0.99677612  0.00074920  0.35096130  1
  In  In19  1  0.00772578  0.01175643  0.84974566  1
  In  In20  1  0.99447758  0.99865840  0.65127281  1
  In  In21  1  0.00170228  0.00166037  0.14223320  1
  In  In22  1  0.65939800  0.33487459  0.68507852  1
  In  In23  1  0.68282763  0.33872764  0.17849890  1
  In  In24  1  0.33052449  0.67718910  0.01670990  1
  In  In25  1  0.33875917  0.67375563  0.51633300  1
  In  In26  1  0.32089099  0.66228730  0.32042628  1
  Si  Si27  1  0.00470670  0.29591121  0.24947362  1
  Si  Si28  1  0.29027045  0.29861188  0.74999558  1
  Si  Si29  1  0.70355762  0.00348181  0.75080312  1
  Si  Si30  1  0.66724789  0.62976744  0.58425556  1
  Si  Si31  1  0.96637827  0.63134001  0.08296390  1
  Si  Si32  1  0.62679571  0.66888058  0.91861933  1
  Si  Si33  1  0.33558604  0.96470072  0.91637379  1
  Si  Si34  1  0.62874936  0.96928227  0.41728978  1
  Si  Si35  1  0.03628900  0.66956752  0.41780582  1
  S  S36  1  0.29773212  0.00368644  0.24886571  1
  S  S37  1  0.69842480  0.69884111  0.24970450  1
  S  S38  1  0.00704477  0.70161251  0.75138017  1
  S  S39  1  0.95800600  0.33677002  0.58096572  1
  S  S40  1  0.37446530  0.04424209  0.58138192  1
  S  S41  1  0.66545787  0.03973037  0.08176035  1
  S  S42  1  0.38045834  0.33497758  0.08156931  1
  S  S43  1  0.03808939  0.37756081  0.91759188  1
  S  S44  1  0.34083269  0.36964905  0.41813644  1
  O  O45  1  0.22181561  0.02455468  0.30318117  1
  O  O46  1  0.80303390  0.76940980  0.30434972  1
  O  O47  1  0.97085863  0.18799303  0.31014148  1
  O  O48  1  0.21905676  0.16768244  0.80309052  1
  O  O49  1  0.97025131  0.77359536  0.80434785  1
  O  O50  1  0.80752112  0.02664215  0.81071160  1
  O  O51  1  0.76802629  0.94910911  0.69189647  1
  O  O52  1  0.18125342  0.21904785  0.68968983  1
  O  O53  1  0.03819106  0.81023487  0.69956479  1
  O  O54  1  0.78400888  0.80686889  0.19932038  1
  O  O55  1  0.02282559  0.19715530  0.19300250  1
  O  O56  1  0.18832731  0.97183591  0.19730596  1
  O  O57  1  0.87755651  0.35404014  0.63413208  1
  O  O58  1  0.47000851  0.11335128  0.63730764  1
  O  O59  1  0.65160124  0.53059306  0.64389283  1
  O  O60  1  0.89112675  0.54000410  0.14589423  1
  O  O61  1  0.64280354  0.10927994  0.13900700  1
  O  O62  1  0.47452324  0.34981124  0.13646508  1
  O  O63  1  0.47168558  0.31868623  0.02952201  1
  O  O64  1  0.83036517  0.51346145  0.02674412  1
  O  O65  1  0.67401078  0.14382284  0.03189710  1
  O  O66  1  0.47030870  0.14927150  0.53135221  1
  O  O67  1  0.67871169  0.51626837  0.52650869  1
  O  O68  1  0.85207981  0.31998162  0.52747757  1
  O  O69  1  0.54067550  0.70219993  0.97393914  1
  O  O70  1  0.13599527  0.44671689  0.97203470  1
  O  O71  1  0.28411209  0.84037367  0.97116687  1
  O  O72  1  0.55538795  0.84286849  0.47253291  1
  O  O73  1  0.30553228  0.44439853  0.46977253  1
  O  O74  1  0.14984109  0.68961495  0.47392724  1
  O  O75  1  0.09166847  0.61026257  0.35794987  1
  O  O76  1  0.52171850  0.88783840  0.35584483  1
  O  O77  1  0.37649676  0.47715559  0.36574976  1
  O  O78  1  0.12114839  0.48293032  0.86653534  1
  O  O79  1  0.36982881  0.86738446  0.85865781  1
  O  O80  1  0.51109449  0.64143139  0.85828770  1
  O  O81  1  0.00190590  0.82791024  0.41112683  1
  O  O82  1  0.82365978  0.00069227  0.41370349  1
  O  O83  1  0.19043473  0.19973426  0.41077140  1
  O  O84  1  0.00359693  0.20015822  0.91303214  1
  O  O85  1  0.16924621  0.98403577  0.90907768  1
  O  O86  1  0.81737705  0.82932104  0.91180155  1
  O  O87  1  0.96293461  0.17585386  0.58065460  1
  O  O88  1  0.20574054  0.02982565  0.58312903  1
  O  O89  1  0.83932097  0.82072265  0.58259223  1
  O  O90  1  0.97396154  0.81698562  0.08196536  1
  O  O91  1  0.82504645  0.03297775  0.08276727  1
  O  O92  1  0.21218999  0.17845262  0.08122207  1
  O  O93  1  0.66658247  0.16046133  0.74411060  1
  O  O94  1  0.48924859  0.33715323  0.74736555  1
  O  O95  1  0.85523796  0.53185680  0.74407543  1
  O  O96  1  0.67565247  0.52598018  0.24429304  1
  O  O97  1  0.82656243  0.31001149  0.24729289  1
  O  O98  1  0.46939019  0.15602848  0.24367652  1
  O  O99  1  0.64602720  0.49453838  0.92561979  1
  O  O100  1  0.86597471  0.36610392  0.92208886  1
  O  O101  1  0.51941202  0.14927017  0.92713987  1
  O  O102  1  0.65033610  0.16073773  0.42878618  1
  O  O103  1  0.49530808  0.35506708  0.42556856  1
  O  O104  1  0.83956940  0.49609106  0.42841017  1
  O  O105  1  0.36400671  0.48751575  0.07815123  1
  O  O106  1  0.14758731  0.64069733  0.07889262  1
  O  O107  1  0.51755834  0.86588376  0.08007503  1
  O  O108  1  0.35876187  0.87287610  0.57803002  1
  O  O109  1  0.49916541  0.65321514  0.57921914  1
  O  O110  1  0.12910012  0.48555204  0.57713804  1
  O  O111  1  0.31919545  0.85070827  0.25237249  1
  O  O112  1  0.53311220  0.69255020  0.25530379  1
  O  O113  1  0.16881890  0.49117038  0.25259880  1
  O  O114  1  0.31014280  0.49110466  0.76149202  1
  O  O115  1  0.16137045  0.68934266  0.75876970  1
  O  O116  1  0.50932118  0.82655890  0.75869777  1
