# generated using pymatgen
data_MgTiV2CrO10
_symmetry_space_group_name_H-M   'P 1'
_cell_length_a   6.50589400
_cell_length_b   6.50589400
_cell_length_c   5.48192700
_cell_angle_alpha   90.00000000
_cell_angle_beta   90.00000000
_cell_angle_gamma   90.00000000
_symmetry_Int_Tables_number   1
_chemical_formula_structural   MgTiV2CrO10
_chemical_formula_sum   'Mg1 Ti1 V2 Cr1 O10'
_cell_volume   232.03164240
_cell_formula_units_Z   1
loop_
 _symmetry_equiv_pos_site_id
 _symmetry_equiv_pos_as_xyz
  1  'x, y, z'
loop_
 _atom_site_type_symbol
 _atom_site_label
 _atom_site_symmetry_multiplicity
 _atom_site_fract_x
 _atom_site_fract_y
 _atom_site_fract_z
 _atom_site_occupancy
  Mg  Mg0  1  0.25000000  0.75000000  0.00000000  1
  Ti  Ti1  1  0.75000000  0.25000000  0.50000000  1
  V  V2  1  0.25000000  0.25000000  0.62343000  1
  V  V3  1  0.75000000  0.75000000  0.37657000  1
  Cr  Cr4  1  0.25000000  0.75000000  0.50000000  1
  O  O5  1  0.04580600  0.75000000  0.27853300  1
  O  O6  1  0.25000000  0.25000000  0.32651300  1
  O  O7  1  0.25000000  0.54580600  0.72146700  1
  O  O8  1  0.25000000  0.95419400  0.72146700  1
  O  O9  1  0.45419400  0.75000000  0.27853300  1
  O  O10  1  0.52401800  0.25000000  0.70048100  1
  O  O11  1  0.75000000  0.02401800  0.29951900  1
  O  O12  1  0.75000000  0.47598200  0.29951900  1
  O  O13  1  0.75000000  0.75000000  0.67348700  1
  O  O14  1  0.97598200  0.25000000  0.70048100  1
