# generated using pymatgen
data_RbMgMoO3
_symmetry_space_group_name_H-M   'P 1'
_cell_length_a   4.55459411
_cell_length_b   4.50072129
_cell_length_c   4.50072129
_cell_angle_alpha   82.96079370
_cell_angle_beta   97.54413634
_cell_angle_gamma   97.54413634
_symmetry_Int_Tables_number   1
_chemical_formula_structural   RbMgMoO3
_chemical_formula_sum   'Rb1 Mg1 Mo1 O3'
_cell_volume   90.14772736
_cell_formula_units_Z   1
loop_
 _symmetry_equiv_pos_site_id
 _symmetry_equiv_pos_as_xyz
  1  'x, y, z'
loop_
 _atom_site_type_symbol
 _atom_site_label
 _atom_site_symmetry_multiplicity
 _atom_site_fract_x
 _atom_site_fract_y
 _atom_site_fract_z
 _atom_site_occupancy
  Rb  Rb0  1  0.41886302  0.58258055  0.58258055  1
  Mg  Mg1  1  0.74425868  0.26388365  0.26388365  1
  Mo  Mo2  1  0.04504202  0.96002076  0.96002076  1
  O  O3  1  0.52169831  0.99363252  0.99363252  1
  O  O4  1  0.01006899  0.47679702  0.98975249  1
  O  O5  1  0.01006899  0.98975249  0.47679702  1
