# generated using pymatgen
data_TiGeP2SO12
_symmetry_space_group_name_H-M   'P 1'
_cell_length_a   8.44734117
_cell_length_b   8.46862898
_cell_length_c   21.85287238
_cell_angle_alpha   90.04452097
_cell_angle_beta   89.97511373
_cell_angle_gamma   119.89903924
_symmetry_Int_Tables_number   1
_chemical_formula_structural   TiGeP2SO12
_chemical_formula_sum   'Ti6 Ge6 P12 S6 O72'
_cell_volume   1355.23029153
_cell_formula_units_Z   6
loop_
 _symmetry_equiv_pos_site_id
 _symmetry_equiv_pos_as_xyz
  1  'x, y, z'
loop_
 _atom_site_type_symbol
 _atom_site_label
 _atom_site_symmetry_multiplicity
 _atom_site_fract_x
 _atom_site_fract_y
 _atom_site_fract_z
 _atom_site_occupancy
  Ti  Ti0  1  0.99884772  0.00518478  0.35681154  1
  Ti  Ti1  1  0.99018407  0.00729460  0.64321925  1
  Ti  Ti2  1  0.01586317  0.00442262  0.13943425  1
  Ti  Ti3  1  0.66360692  0.33611174  0.69159926  1
  Ti  Ti4  1  0.68141592  0.33882701  0.47550266  1
  Ti  Ti5  1  0.32372645  0.67180149  0.30663854  1
  Ge  Ge6  1  0.00254964  0.99980670  0.85659502  1
  Ge  Ge7  1  0.67141809  0.34013363  0.18632323  1
  Ge  Ge8  1  0.65564758  0.33694906  0.97593497  1
  Ge  Ge9  1  0.33424805  0.67094242  0.02022699  1
  Ge  Ge10  1  0.33712978  0.67034223  0.52246080  1
  Ge  Ge11  1  0.34878847  0.67271034  0.81334206  1
  P  P12  1  0.29607535  0.01514677  0.24821602  1
  P  P13  1  0.99093600  0.28164839  0.24724063  1
  P  P14  1  0.27845579  0.28804618  0.75379989  1
  P  P15  1  0.71380622  0.99801211  0.75354008  1
  P  P16  1  0.96157174  0.34656250  0.58325595  1
  P  P17  1  0.66006953  0.61749397  0.58266979  1
  P  P18  1  0.95100736  0.60912976  0.08032812  1
  P  P19  1  0.39124545  0.34750645  0.08132063  1
  P  P20  1  0.62266770  0.67076347  0.91718988  1
  P  P21  1  0.33410380  0.95223404  0.91681268  1
  P  P22  1  0.61193109  0.94491087  0.41758233  1
  P  P23  1  0.05645617  0.67424044  0.41780810  1
  S  S24  1  0.71408574  0.70855657  0.24833412  1
  S  S25  1  0.00841015  0.71557322  0.75273068  1
  S  S26  1  0.37848758  0.04121689  0.58315194  1
  S  S27  1  0.66148246  0.04666092  0.08110739  1
  S  S28  1  0.04298840  0.37794915  0.91702570  1
  S  S29  1  0.33350151  0.38340064  0.41723827  1
  O  O30  1  0.20730660  0.04392724  0.30501221  1
  O  O31  1  0.82709918  0.78840645  0.30375997  1
  O  O32  1  0.95716582  0.16308598  0.30517207  1
  O  O33  1  0.20271516  0.16514664  0.81117466  1
  O  O34  1  0.96591792  0.79002901  0.80849214  1
  O  O35  1  0.83612483  0.03671779  0.81022231  1
  O  O36  1  0.79823973  0.96026349  0.69629230  1
  O  O37  1  0.15904699  0.19994923  0.69696936  1
  O  O38  1  0.04263727  0.82776428  0.69845107  1
  O  O39  1  0.79256780  0.81966619  0.19361006  1
  O  O40  1  0.02228525  0.19180494  0.19101027  1
  O  O41  1  0.17304901  0.97297697  0.19114734  1
  O  O42  1  0.87160654  0.37518490  0.63957951  1
  O  O43  1  0.49352132  0.12270322  0.63811858  1
  O  O44  1  0.62629682  0.49637306  0.63980566  1
  O  O45  1  0.87349264  0.48886602  0.13840597  1
  O  O46  1  0.62086198  0.12298199  0.13646594  1
  O  O47  1  0.51059682  0.38489908  0.13887428  1
  O  O48  1  0.46326099  0.29349068  0.02495752  1
  O  O49  1  0.82769776  0.52560984  0.02384933  1
  O  O50  1  0.70052694  0.16265340  0.02636176  1
  O  O51  1  0.45695227  0.15231093  0.52817118  1
  O  O52  1  0.69165413  0.52914226  0.52587556  1
  O  O53  1  0.84033889  0.30491175  0.52577507  1
  O  O54  1  0.53932478  0.71082337  0.97399200  1
  O  O55  1  0.16118327  0.45545263  0.97197327  1
  O  O56  1  0.28999427  0.82843791  0.97388476  1
  O  O57  1  0.53737020  0.82643365  0.47573679  1
  O  O58  1  0.29402636  0.45847674  0.47323725  1
  O  O59  1  0.17417509  0.70946869  0.47522915  1
  O  O60  1  0.13666731  0.63343571  0.36071425  1
  O  O61  1  0.49438196  0.85694810  0.36086097  1
  O  O62  1  0.36564763  0.49439336  0.36284005  1
  O  O63  1  0.11981700  0.49474033  0.86242952  1
  O  O64  1  0.37317183  0.86840946  0.85981357  1
  O  O65  1  0.49642753  0.62218203  0.86066750  1
  O  O66  1  0.03613148  0.84153404  0.40807405  1
  O  O67  1  0.80298312  0.96714325  0.40833026  1
  O  O68  1  0.16769562  0.20151842  0.41118644  1
  O  O69  1  0.02735137  0.19641502  0.91060034  1
  O  O70  1  0.16366133  0.97226072  0.90850051  1
  O  O71  1  0.81099607  0.84146066  0.90795054  1
  O  O72  1  0.98197853  0.17586354  0.59103790  1
  O  O73  1  0.19547227  0.01723823  0.59193898  1
  O  O74  1  0.83175636  0.80409605  0.59306325  1
  O  O75  1  0.96588946  0.79631934  0.09071814  1
  O  O76  1  0.82141600  0.02420424  0.08903490  1
  O  O77  1  0.20042735  0.17701438  0.09042060  1
  O  O78  1  0.69472690  0.16648421  0.74239479  1
  O  O79  1  0.46947729  0.31000417  0.74300610  1
  O  O80  1  0.84451273  0.53274738  0.74583298  1
  O  O81  1  0.70084224  0.52689446  0.24265761  1
  O  O82  1  0.82201096  0.30307779  0.23935863  1
  O  O83  1  0.48282470  0.18390849  0.23812228  1
  O  O84  1  0.64211316  0.49974024  0.92429205  1
  O  O85  1  0.85968376  0.35765883  0.92475558  1
  O  O86  1  0.50893361  0.13937216  0.92583091  1
  O  O87  1  0.62664154  0.13159499  0.42658183  1
  O  O88  1  0.49326297  0.36052750  0.42527316  1
  O  O89  1  0.86655129  0.50300853  0.42491800  1
  O  O90  1  0.37163433  0.51607404  0.07176381  1
  O  O91  1  0.14167267  0.63085681  0.07174221  1
  O  O92  1  0.49400846  0.86598145  0.07458795  1
  O  O93  1  0.36531530  0.85980043  0.57763669  1
  O  O94  1  0.49011503  0.63728089  0.57516750  1
  O  O95  1  0.14923830  0.51489977  0.57395027  1
  O  O96  1  0.31631016  0.84428954  0.25599870  1
  O  O97  1  0.52979096  0.68303640  0.25667320  1
  O  O98  1  0.16291775  0.46879506  0.25746891  1
  O  O99  1  0.29062077  0.47424447  0.76300786  1
  O  O100  1  0.17199982  0.69720166  0.76180188  1
  O  O101  1  0.52517860  0.82580655  0.75994726  1
