# generated using pymatgen
data_Na3Mg3In(SO4)6
_symmetry_space_group_name_H-M   'P 1'
_cell_length_a   8.76717279
_cell_length_b   8.76959932
_cell_length_c   22.76520864
_cell_angle_alpha   89.99950200
_cell_angle_beta   90.02990699
_cell_angle_gamma   120.07394265
_symmetry_Int_Tables_number   1
_chemical_formula_structural   Na3Mg3In(SO4)6
_chemical_formula_sum   'Na9 Mg9 In3 S18 O72'
_cell_volume   1514.66793931
_cell_formula_units_Z   3
loop_
 _symmetry_equiv_pos_site_id
 _symmetry_equiv_pos_as_xyz
  1  'x, y, z'
loop_
 _atom_site_type_symbol
 _atom_site_label
 _atom_site_symmetry_multiplicity
 _atom_site_fract_x
 _atom_site_fract_y
 _atom_site_fract_z
 _atom_site_occupancy
  Na  Na0  1  0.63556716  0.99861958  0.24896826  1
  Na  Na1  1  0.36396031  0.36300397  0.24866840  1
  Na  Na2  1  0.02907068  0.69683967  0.58680825  1
  Na  Na3  1  0.99888695  0.01127526  0.49932633  1
  Na  Na4  1  0.99989836  0.99907162  0.99834080  1
  Na  Na5  1  0.66579767  0.33236380  0.83023493  1
  Na  Na6  1  0.67961033  0.34520532  0.33561954  1
  Na  Na7  1  0.32030517  0.66541969  0.15926328  1
  Na  Na8  1  0.34555966  0.66546048  0.66878183  1
  Mg  Mg9  1  0.99979648  0.99698685  0.35282413  1
  Mg  Mg10  1  0.00007026  0.00063696  0.84997365  1
  Mg  Mg11  1  0.99938454  0.00661549  0.65316666  1
  Mg  Mg12  1  0.00009398  0.99703963  0.14714115  1
  Mg  Mg13  1  0.66336858  0.32999616  0.68720622  1
  Mg  Mg14  1  0.67392017  0.33985374  0.17917726  1
  Mg  Mg15  1  0.33313344  0.66680178  0.01715003  1
  Mg  Mg16  1  0.33985706  0.66591115  0.51631307  1
  Mg  Mg17  1  0.32605395  0.66579806  0.31944517  1
  In  In18  1  0.66711542  0.33373055  0.98408578  1
  In  In19  1  0.66338213  0.33003447  0.48332511  1
  In  In20  1  0.33355840  0.66676975  0.81542966  1
  S  S21  1  0.29083356  0.99792095  0.25003789  1
  S  S22  1  0.70914895  0.70692051  0.25044832  1
  S  S23  1  0.99986688  0.29219624  0.25027227  1
  S  S24  1  0.29372866  0.29024340  0.74987461  1
  S  S25  1  0.99652193  0.70586822  0.74841545  1
  S  S26  1  0.70987533  0.00357286  0.74978323  1
  S  S27  1  0.96286488  0.33141005  0.58443329  1
  S  S28  1  0.36866235  0.03601887  0.58484337  1
  S  S29  1  0.66591708  0.63010501  0.58513918  1
  S  S30  1  0.96682991  0.63312391  0.08448965  1
  S  S31  1  0.66631313  0.03312158  0.08605010  1
  S  S32  1  0.36679124  0.33373607  0.08598648  1
  S  S33  1  0.63110613  0.67068742  0.91779745  1
  S  S34  1  0.03972369  0.36889360  0.91768048  1
  S  S35  1  0.32923682  0.96030009  0.91772426  1
  S  S36  1  0.62805638  0.95808136  0.41497326  1
  S  S37  1  0.32996232  0.37183619  0.41496441  1
  S  S38  1  0.04132719  0.66997154  0.41766837  1
  O  O39  1  0.21143195  0.02928108  0.30262514  1
  O  O40  1  0.81397538  0.78746598  0.30375080  1
  O  O41  1  0.96829940  0.18037968  0.30284818  1
  O  O42  1  0.21022323  0.18921758  0.80334855  1
  O  O43  1  0.97953851  0.79372163  0.80082417  1
  O  O44  1  0.81097545  0.02142823  0.80330089  1
  O  O45  1  0.79043694  0.97843247  0.69646544  1
  O  O46  1  0.18850591  0.20922728  0.69650257  1
  O  O47  1  0.02016078  0.80763858  0.69346190  1
  O  O48  1  0.78890999  0.81808778  0.19831709  1
  O  O49  1  0.03124526  0.21175560  0.19796609  1
  O  O50  1  0.18617643  0.97417932  0.19717082  1
  O  O51  1  0.87502063  0.36347670  0.63410206  1
  O  O52  1  0.48260778  0.12457121  0.63501746  1
  O  O53  1  0.64107148  0.51618277  0.63550637  1
  O  O54  1  0.88061099  0.52065007  0.13619938  1
  O  O55  1  0.64149351  0.11678491  0.13964879  1
  O  O56  1  0.47509461  0.35809002  0.13961581  1
  O  O57  1  0.44698212  0.30302517  0.03286632  1
  O  O58  1  0.85930484  0.55762321  0.03015168  1
  O  O59  1  0.69715001  0.14402828  0.03290477  1
  O  O60  1  0.43874045  0.13866012  0.52902300  1
  O  O61  1  0.70625270  0.55891806  0.53011481  1
  O  O62  1  0.85865053  0.29903105  0.52865072  1
  O  O63  1  0.54260481  0.68916119  0.96981959  1
  O  O64  1  0.14672622  0.45762777  0.96971058  1
  O  O65  1  0.31102227  0.85351074  0.96972138  1
  O  O66  1  0.54010945  0.85368030  0.46745673  1
  O  O67  1  0.31277951  0.45933105  0.46747489  1
  O  O68  1  0.13942458  0.68708713  0.47255755  1
  O  O69  1  0.12602303  0.64588046  0.36541153  1
  O  O70  1  0.52625176  0.87931287  0.36014582  1
  O  O71  1  0.35394395  0.47406059  0.36019603  1
  O  O72  1  0.11315586  0.47445303  0.86298537  1
  O  O73  1  0.36115421  0.88702600  0.86297458  1
  O  O74  1  0.52574166  0.63869926  0.86307667  1
  O  O75  1  0.02215238  0.82759654  0.41171319  1
  O  O76  1  0.80588314  0.97855365  0.41067655  1
  O  O77  1  0.17221358  0.19418120  0.41046374  1
  O  O78  1  0.02281895  0.19374168  0.91160075  1
  O  O79  1  0.17087350  0.97706823  0.91152690  1
  O  O80  1  0.80670128  0.82898225  0.91165528  1
  O  O81  1  0.98554101  0.17726162  0.59165630  1
  O  O82  1  0.18778056  0.01056546  0.59112399  1
  O  O83  1  0.82740607  0.80712227  0.59157247  1
  O  O84  1  0.98528152  0.80904356  0.09125872  1
  O  O85  1  0.82417238  0.01502849  0.09201736  1
  O  O86  1  0.19042055  0.17589228  0.09178123  1
  O  O87  1  0.68936089  0.16080308  0.74422751  1
  O  O88  1  0.47186466  0.31131381  0.74450671  1
  O  O89  1  0.83914251  0.52787756  0.74373926  1
  O  O90  1  0.68182680  0.52506613  0.24380514  1
  O  O91  1  0.83898563  0.30873292  0.24312947  1
  O  O92  1  0.47300536  0.16016566  0.24431450  1
  O  O93  1  0.65003079  0.50960032  0.92198842  1
  O  O94  1  0.85921345  0.34908758  0.92183290  1
  O  O95  1  0.49039818  0.14076624  0.92203224  1
  O  O96  1  0.64530070  0.13817657  0.41862411  1
  O  O97  1  0.49301200  0.35500215  0.41879009  1
  O  O98  1  0.86049030  0.50708378  0.42004239  1
  O  O99  1  0.35391185  0.49466087  0.07895972  1
  O  O100  1  0.14155574  0.64735386  0.07778763  1
  O  O101  1  0.50523668  0.85905597  0.07896781  1
  O  O102  1  0.34844342  0.85681914  0.57788154  1
  O  O103  1  0.50800393  0.64657572  0.57678419  1
  O  O104  1  0.13771844  0.49667222  0.57704907  1
  O  O105  1  0.31808306  0.84351225  0.25676780  1
  O  O106  1  0.52733196  0.68688012  0.25632744  1
  O  O107  1  0.16065660  0.46972307  0.25747498  1
  O  O108  1  0.31239413  0.47148223  0.75277056  1
  O  O109  1  0.15937372  0.68845985  0.75204178  1
  O  O110  1  0.52842799  0.84089563  0.75269613  1
