# generated using pymatgen
data_Na2NbGaSi(PO6)2
_symmetry_space_group_name_H-M   'P 1'
_cell_length_a   8.80403201
_cell_length_b   8.80403172
_cell_length_c   22.52041457
_cell_angle_alpha   89.61393976
_cell_angle_beta   90.38606024
_cell_angle_gamma   119.71079390
_symmetry_Int_Tables_number   1
_chemical_formula_structural   Na2NbGaSi(PO6)2
_chemical_formula_sum   'Na12 Nb6 Ga6 Si6 P12 O72'
_cell_volume   1516.05624340
_cell_formula_units_Z   6
loop_
 _symmetry_equiv_pos_site_id
 _symmetry_equiv_pos_as_xyz
  1  'x, y, z'
loop_
 _atom_site_type_symbol
 _atom_site_label
 _atom_site_symmetry_multiplicity
 _atom_site_fract_x
 _atom_site_fract_y
 _atom_site_fract_z
 _atom_site_occupancy
  Na  Na0  1  0.99208501  0.62920105  0.24794338  1
  Na  Na1  1  0.37079895  0.00791499  0.74794338  1
  Na  Na2  1  0.65876451  0.96487294  0.58291369  1
  Na  Na3  1  0.03512706  0.34123549  0.08291369  1
  Na  Na4  1  0.97387297  0.67428794  0.91640791  1
  Na  Na5  1  0.32571206  0.02612703  0.41640791  1
  Na  Na6  1  0.00032593  0.99794720  0.49573979  1
  Na  Na7  1  0.00205280  0.99967407  0.99573979  1
  Na  Na8  1  0.66802118  0.33086224  0.82912422  1
  Na  Na9  1  0.66913776  0.33197882  0.32912422  1
  Na  Na10  1  0.34348409  0.67330065  0.16232470  1
  Na  Na11  1  0.32669935  0.65651591  0.66232470  1
  Nb  Nb12  1  0.00326296  0.00032768  0.64609468  1
  Nb  Nb13  1  0.99967232  0.99673704  0.14609468  1
  Nb  Nb14  1  0.66149632  0.33043581  0.97920192  1
  Nb  Nb15  1  0.66956419  0.33850368  0.47920192  1
  Nb  Nb16  1  0.32758936  0.65865946  0.31238189  1
  Nb  Nb17  1  0.34134054  0.67241064  0.81238189  1
  Ga  Ga18  1  0.99057684  0.99721036  0.35223708  1
  Ga  Ga19  1  0.00278964  0.00942316  0.85223708  1
  Ga  Ga20  1  0.66958372  0.32920903  0.68474025  1
  Ga  Ga21  1  0.67079097  0.33041628  0.18474025  1
  Ga  Ga22  1  0.33162311  0.67537525  0.01857916  1
  Ga  Ga23  1  0.32462475  0.66837689  0.51857916  1
  Si  Si24  1  0.98938897  0.27982067  0.25151901  1
  Si  Si25  1  0.72017933  0.01061103  0.75151901  1
  Si  Si26  1  0.37735498  0.03906418  0.58411008  1
  Si  Si27  1  0.96093582  0.62264502  0.08411008  1
  Si  Si28  1  0.32675174  0.95737293  0.91714148  1
  Si  Si29  1  0.04262707  0.67324826  0.41714148  1
  P  P30  1  0.29722345  0.01085301  0.25187568  1
  P  P31  1  0.71091469  0.70880092  0.25131134  1
  P  P32  1  0.29119908  0.28908531  0.75131134  1
  P  P33  1  0.98914699  0.70277655  0.75187568  1
  P  P34  1  0.96229715  0.34290353  0.58470978  1
  P  P35  1  0.66039314  0.61706754  0.58530713  1
  P  P36  1  0.65709647  0.03770285  0.08470978  1
  P  P37  1  0.38293246  0.33960686  0.08530713  1
  P  P38  1  0.62263971  0.67261575  0.91941022  1
  P  P39  1  0.04851773  0.37297990  0.91828305  1
  P  P40  1  0.62702010  0.95148227  0.41828305  1
  P  P41  1  0.32738425  0.37736029  0.41941022  1
  O  O42  1  0.21313270  0.03085263  0.30784351  1
  O  O43  1  0.82991925  0.78897604  0.30497063  1
  O  O44  1  0.96903515  0.16523606  0.30882223  1
  O  O45  1  0.21102396  0.17008075  0.80497063  1
  O  O46  1  0.96914737  0.78686730  0.80784351  1
  O  O47  1  0.83476394  0.03096485  0.80882223  1
  O  O48  1  0.79978625  0.96994800  0.69054257  1
  O  O49  1  0.17141092  0.20044278  0.69495894  1
  O  O50  1  0.03331136  0.83009481  0.69642547  1
  O  O51  1  0.79955722  0.82858908  0.19495894  1
  O  O52  1  0.03005200  0.20021375  0.19054257  1
  O  O53  1  0.16990519  0.96668864  0.19642547  1
  O  O54  1  0.87651692  0.36799205  0.63949053  1
  O  O55  1  0.49774941  0.12647820  0.64241372  1
  O  O56  1  0.63750940  0.50650116  0.64006108  1
  O  O57  1  0.87352180  0.50225059  0.14241372  1
  O  O58  1  0.63200795  0.12348308  0.13949053  1
  O  O59  1  0.49349884  0.36249060  0.14006108  1
  O  O60  1  0.46515834  0.30298583  0.02875476  1
  O  O61  1  0.83581220  0.53289835  0.02420850  1
  O  O62  1  0.69765217  0.16234945  0.02905498  1
  O  O63  1  0.46710165  0.16418780  0.52420850  1
  O  O64  1  0.69701417  0.53484166  0.52875476  1
  O  O65  1  0.83765055  0.30234783  0.52905498  1
  O  O66  1  0.53491683  0.69459067  0.97342219  1
  O  O67  1  0.15386156  0.45406644  0.97508819  1
  O  O68  1  0.28968258  0.82984757  0.97286631  1
  O  O69  1  0.54593356  0.84613844  0.47508819  1
  O  O70  1  0.30540933  0.46508317  0.47342219  1
  O  O71  1  0.17015243  0.71031742  0.47286631  1
  O  O72  1  0.13368850  0.63693387  0.35726655  1
  O  O73  1  0.50341332  0.86824981  0.36304460  1
  O  O74  1  0.36369724  0.49501294  0.36215382  1
  O  O75  1  0.13175019  0.49658668  0.86304460  1
  O  O76  1  0.36306613  0.86631150  0.85726655  1
  O  O77  1  0.50498706  0.63630276  0.86215382  1
  O  O78  1  0.02915759  0.84876413  0.40753798  1
  O  O79  1  0.80922142  0.97648999  0.41103528  1
  O  O80  1  0.17407889  0.19225787  0.41130419  1
  O  O81  1  0.02351001  0.19077858  0.91103528  1
  O  O82  1  0.15123587  0.97084241  0.90753798  1
  O  O83  1  0.80774213  0.82592111  0.91130419  1
  O  O84  1  0.96784577  0.16621194  0.58951469  1
  O  O85  1  0.18282577  0.02327136  0.59001676  1
  O  O86  1  0.82847093  0.80506400  0.58990074  1
  O  O87  1  0.97672864  0.81717423  0.09001676  1
  O  O88  1  0.83378806  0.03215423  0.08951469  1
  O  O89  1  0.19493600  0.17152907  0.08990074  1
  O  O90  1  0.68010024  0.17103023  0.74473045  1
  O  O91  1  0.47250923  0.30874908  0.74279440  1
  O  O92  1  0.83073253  0.52355768  0.74179980  1
  O  O93  1  0.69125092  0.52749077  0.24279440  1
  O  O94  1  0.82896977  0.31989976  0.24473045  1
  O  O95  1  0.47644232  0.16926747  0.24179980  1
  O  O96  1  0.64200343  0.50296417  0.92298275  1
  O  O97  1  0.86406904  0.36457161  0.92325589  1
  O  O98  1  0.50600444  0.14912832  0.92314350  1
  O  O99  1  0.63542839  0.13593096  0.42325589  1
  O  O100  1  0.49703583  0.35799657  0.42298275  1
  O  O101  1  0.85087168  0.49399556  0.42314350  1
  O  O102  1  0.35429424  0.49546914  0.07617648  1
  O  O103  1  0.15008434  0.63445864  0.07723802  1
  O  O104  1  0.50350296  0.85568636  0.07652318  1
  O  O105  1  0.36554136  0.84991566  0.57723802  1
  O  O106  1  0.50453086  0.64570576  0.57617648  1
  O  O107  1  0.14431364  0.49649704  0.57652318  1
  O  O108  1  0.30740642  0.83639240  0.25616848  1
  O  O109  1  0.52972221  0.69774008  0.25643940  1
  O  O110  1  0.17063101  0.48135040  0.25669299  1
  O  O111  1  0.30225992  0.47027779  0.75643940  1
  O  O112  1  0.16360760  0.69259358  0.75616848  1
  O  O113  1  0.51864960  0.82936899  0.75669299  1
