# generated using pymatgen
data_Na3ScTi3(PO4)6
_symmetry_space_group_name_H-M   'P 1'
_cell_length_a   8.72855377
_cell_length_b   8.73384377
_cell_length_c   22.40118948
_cell_angle_alpha   90.00781195
_cell_angle_beta   89.97807928
_cell_angle_gamma   120.28527472
_symmetry_Int_Tables_number   1
_chemical_formula_structural   Na3ScTi3(PO4)6
_chemical_formula_sum   'Na9 Sc3 Ti9 P18 O72'
_cell_volume   1474.66633990
_cell_formula_units_Z   3
loop_
 _symmetry_equiv_pos_site_id
 _symmetry_equiv_pos_as_xyz
  1  'x, y, z'
loop_
 _atom_site_type_symbol
 _atom_site_label
 _atom_site_symmetry_multiplicity
 _atom_site_fract_x
 _atom_site_fract_y
 _atom_site_fract_z
 _atom_site_occupancy
  Na  Na0  1  0.36449454  0.36198650  0.24903410  1
  Na  Na1  1  0.63420911  0.63280344  0.74970927  1
  Na  Na2  1  0.96804729  0.29950599  0.41604545  1
  Na  Na3  1  0.00045163  0.99331532  0.50055252  1
  Na  Na4  1  0.99990319  0.99993129  0.00063033  1
  Na  Na5  1  0.66711389  0.32658726  0.83475230  1
  Na  Na6  1  0.66732031  0.33375786  0.33188277  1
  Na  Na7  1  0.33240995  0.67300035  0.16496447  1
  Na  Na8  1  0.32637539  0.66704554  0.66573906  1
  Sc  Sc9  1  0.99908851  0.99308814  0.35346727  1
  Sc  Sc10  1  0.66784237  0.32745917  0.68570708  1
  Sc  Sc11  1  0.67283342  0.33268918  0.18380335  1
  Ti  Ti12  1  0.00037122  0.00140103  0.85507049  1
  Ti  Ti13  1  0.00200218  0.00209606  0.64578283  1
  Ti  Ti14  1  0.99829596  0.99733157  0.14573909  1
  Ti  Ti15  1  0.66662435  0.33378809  0.98160244  1
  Ti  Ti16  1  0.66001972  0.33415501  0.48230221  1
  Ti  Ti17  1  0.33418697  0.66663792  0.01990568  1
  Ti  Ti18  1  0.33371088  0.66743009  0.52063952  1
  Ti  Ti19  1  0.33479059  0.67404579  0.31268802  1
  Ti  Ti20  1  0.32729238  0.66765826  0.81560944  1
  P  P21  1  0.28815426  0.99634900  0.24965435  1
  P  P22  1  0.70929456  0.71120636  0.24984963  1
  P  P23  1  0.99897593  0.29004003  0.25113943  1
  P  P24  1  0.28372579  0.28722355  0.75109295  1
  P  P25  1  0.00589610  0.71737431  0.75081320  1
  P  P26  1  0.71363683  0.00004410  0.75128113  1
  P  P27  1  0.95846067  0.33296582  0.58220980  1
  P  P28  1  0.37382870  0.04031308  0.58300610  1
  P  P29  1  0.66635289  0.62576673  0.58381735  1
  P  P30  1  0.95992298  0.62606579  0.08202626  1
  P  P31  1  0.66680308  0.04130099  0.08215067  1
  P  P32  1  0.37433251  0.33365330  0.08299527  1
  P  P33  1  0.62097644  0.66541349  0.91643678  1
  P  P34  1  0.04373855  0.37804395  0.91732795  1
  P  P35  1  0.33381665  0.95567115  0.91723121  1
  P  P36  1  0.61757940  0.95493603  0.41801361  1
  P  P37  1  0.33942670  0.38314283  0.41710352  1
  P  P38  1  0.04606264  0.66649092  0.41811091  1
  O  O39  1  0.20928925  0.03276579  0.30498894  1
  O  O40  1  0.81943595  0.79127984  0.30569433  1
  O  O41  1  0.97425013  0.18468679  0.30861669  1
  O  O42  1  0.19289919  0.16988844  0.80636939  1
  O  O43  1  0.97396175  0.80600686  0.80589806  1
  O  O44  1  0.83020436  0.02272693  0.80665290  1
  O  O45  1  0.79922246  0.96538503  0.69525203  1
  O  O46  1  0.16839168  0.19872238  0.69455839  1
  O  O47  1  0.03210918  0.83232425  0.69428047  1
  O  O48  1  0.79910347  0.82971766  0.19384964  1
  O  O49  1  0.03460373  0.20109980  0.19604665  1
  O  O50  1  0.16916020  0.96755939  0.19372312  1
  O  O51  1  0.88052423  0.36851536  0.63766641  1
  O  O52  1  0.48661919  0.11812823  0.63853946  1
  O  O53  1  0.63197827  0.51679471  0.64075117  1
  O  O54  1  0.88442082  0.51497000  0.13793737  1
  O  O55  1  0.62984310  0.11563689  0.13796456  1
  O  O56  1  0.48181940  0.36865733  0.14018511  1
  O  O57  1  0.46793753  0.30476612  0.02811907  1
  O  O58  1  0.83808946  0.53398482  0.02674545  1
  O  O59  1  0.69647889  0.16279286  0.02687199  1
  O  O60  1  0.46583178  0.16193800  0.52740154  1
  O  O61  1  0.69505374  0.53190977  0.52866455  1
  O  O62  1  0.84182232  0.30293729  0.52548062  1
  O  O63  1  0.53228773  0.69589288  0.97111025  1
  O  O64  1  0.16271594  0.46615872  0.97201012  1
  O  O65  1  0.30318218  0.83673375  0.97185655  1
  O  O66  1  0.52681454  0.83754056  0.47281163  1
  O  O67  1  0.30837359  0.47346062  0.47153123  1
  O  O68  1  0.16266571  0.68877476  0.47303552  1
  O  O69  1  0.13230906  0.63207459  0.36206816  1
  O  O70  1  0.50196964  0.86596861  0.36149588  1
  O  O71  1  0.36624967  0.49414356  0.35952907  1
  O  O72  1  0.13426654  0.49667986  0.86111030  1
  O  O73  1  0.36221437  0.86565494  0.86103944  1
  O  O74  1  0.50704618  0.63717321  0.85918427  1
  O  O75  1  0.02663851  0.82888150  0.41398434  1
  O  O76  1  0.80439054  0.98084549  0.41357121  1
  O  O77  1  0.17070419  0.20056467  0.41332191  1
  O  O78  1  0.02597131  0.19363791  0.90876570  1
  O  O79  1  0.16739015  0.97362602  0.90845412  1
  O  O80  1  0.80722582  0.83266117  0.90875494  1
  O  O81  1  0.97652617  0.16544595  0.58983578  1
  O  O82  1  0.18877240  0.02333888  0.58921171  1
  O  O83  1  0.83482559  0.81127487  0.58953463  1
  O  O84  1  0.97712792  0.81144955  0.08893259  1
  O  O85  1  0.83459986  0.02361999  0.08937700  1
  O  O86  1  0.18800948  0.16549286  0.08930815  1
  O  O87  1  0.69402398  0.16284229  0.74681386  1
  O  O88  1  0.47092289  0.31326810  0.74624642  1
  O  O89  1  0.83686376  0.53511808  0.74588706  1
  O  O90  1  0.67779478  0.52238290  0.24352203  1
  O  O91  1  0.83894938  0.31402330  0.24467301  1
  O  O92  1  0.47164416  0.16208121  0.24301306  1
  O  O93  1  0.64010459  0.49952632  0.92407813  1
  O  O94  1  0.85910253  0.35947190  0.92385977  1
  O  O95  1  0.50052730  0.14088574  0.92396799  1
  O  O96  1  0.63882847  0.14256937  0.42412841  1
  O  O97  1  0.50604428  0.36478951  0.42484086  1
  O  O98  1  0.86190095  0.49330659  0.42446647  1
  O  O99  1  0.35313444  0.49807849  0.07240131  1
  O  O100  1  0.14617060  0.64818857  0.07205638  1
  O  O101  1  0.50226767  0.85423607  0.07203334  1
  O  O102  1  0.35206453  0.85480273  0.57319866  1
  O  O103  1  0.50231932  0.64659299  0.57321517  1
  O  O104  1  0.14596347  0.49729639  0.57317890  1
  O  O105  1  0.30409603  0.82778975  0.25701767  1
  O  O106  1  0.52065203  0.69171575  0.25619954  1
  O  O107  1  0.17421944  0.47541162  0.25677313  1
  O  O108  1  0.30543052  0.47517899  0.75746347  1
  O  O109  1  0.17197248  0.69852354  0.75788459  1
  O  O110  1  0.52933967  0.82728205  0.75776755  1
