# generated using pymatgen
data_Na10Ca3Sn5(PO4)12
_symmetry_space_group_name_H-M   'P 1'
_cell_length_a   18.13891400
_cell_length_b   9.08100674
_cell_length_c   22.75350562
_cell_angle_alpha   89.99114200
_cell_angle_beta   90.02702502
_cell_angle_gamma   120.12754110
_symmetry_Int_Tables_number   1
_chemical_formula_structural   Na10Ca3Sn5(PO4)12
_chemical_formula_sum   'Na30 Ca9 Sn15 P36 O144'
_cell_volume   3241.63857860
_cell_formula_units_Z   3
loop_
 _symmetry_equiv_pos_site_id
 _symmetry_equiv_pos_as_xyz
  1  'x, y, z'
loop_
 _atom_site_type_symbol
 _atom_site_label
 _atom_site_symmetry_multiplicity
 _atom_site_fract_x
 _atom_site_fract_y
 _atom_site_fract_z
 _atom_site_occupancy
  Na  Na0  1  0.32157419  0.01215924  0.24993409  1
  Na  Na1  1  0.68584958  0.35712991  0.24942380  1
  Na  Na2  1  0.31762889  0.62461898  0.75093197  1
  Na  Na3  1  0.81761199  0.62431090  0.75056961  1
  Na  Na4  1  0.15550834  0.34452235  0.57912559  1
  Na  Na5  1  0.65580459  0.34630805  0.57869995  1
  Na  Na6  1  0.01599012  0.68940022  0.57977799  1
  Na  Na7  1  0.51666429  0.68801508  0.57962879  1
  Na  Na8  1  0.32613270  0.96391266  0.57893976  1
  Na  Na9  1  0.82816061  0.96770986  0.57951212  1
  Na  Na10  1  0.15533906  0.96598236  0.07888671  1
  Na  Na11  1  0.65632664  0.96750403  0.07998114  1
  Na  Na12  1  0.32697380  0.68784318  0.07987490  1
  Na  Na13  1  0.82755195  0.68956442  0.07909445  1
  Na  Na14  1  0.01611392  0.34490240  0.07916228  1
  Na  Na15  1  0.51709624  0.34495196  0.08034625  1
  Na  Na16  1  0.66346759  0.02481535  0.41052565  1
  Na  Na17  1  0.34986037  0.67578853  0.40971136  1
  Na  Na18  1  0.00029838  0.99846047  0.49328431  1
  Na  Na19  1  0.49951843  0.01597969  0.49130486  1
  Na  Na20  1  0.00006596  0.00035394  0.99482513  1
  Na  Na21  1  0.50017092  0.99973659  0.99509763  1
  Na  Na22  1  0.33366297  0.31929779  0.83343336  1
  Na  Na23  1  0.83368737  0.31949867  0.83348807  1
  Na  Na24  1  0.33417192  0.33763516  0.32815915  1
  Na  Na25  1  0.84569672  0.34316281  0.32921502  1
  Na  Na26  1  0.16120762  0.65225936  0.16824380  1
  Na  Na27  1  0.66589945  0.67982430  0.16774446  1
  Na  Na28  1  0.16039222  0.66785417  0.66919096  1
  Na  Na29  1  0.66050471  0.66681214  0.66938982  1
  Ca  Ca30  1  0.49988191  0.00547399  0.35137263  1
  Ca  Ca31  1  0.33366190  0.32541287  0.69122779  1
  Ca  Ca32  1  0.83359090  0.32538881  0.69167743  1
  Ca  Ca33  1  0.33078253  0.33828855  0.18723361  1
  Ca  Ca34  1  0.83971327  0.33509283  0.18933843  1
  Ca  Ca35  1  0.16659486  0.66741720  0.00811516  1
  Ca  Ca36  1  0.66651600  0.66641501  0.00856349  1
  Ca  Ca37  1  0.16049359  0.65851112  0.51033380  1
  Ca  Ca38  1  0.67096596  0.67074647  0.51200081  1
  Sn  Sn39  1  0.00061771  0.99849187  0.35101468  1
  Sn  Sn40  1  0.00157703  0.00320719  0.85307497  1
  Sn  Sn41  1  0.50156042  0.00321711  0.85305053  1
  Sn  Sn42  1  0.00155491  0.00299515  0.65282352  1
  Sn  Sn43  1  0.50144718  0.00248919  0.65218122  1
  Sn  Sn44  1  0.99984509  0.00005964  0.15235006  1
  Sn  Sn45  1  0.50022565  0.99760067  0.15306165  1
  Sn  Sn46  1  0.33312458  0.33435952  0.97965223  1
  Sn  Sn47  1  0.83368571  0.33405658  0.97977744  1
  Sn  Sn48  1  0.33173438  0.32417349  0.48110425  1
  Sn  Sn49  1  0.83731042  0.34098755  0.48043804  1
  Sn  Sn50  1  0.16323875  0.66174328  0.31706813  1
  Sn  Sn51  1  0.66577082  0.66782082  0.31763602  1
  Sn  Sn52  1  0.16427483  0.66730499  0.81951559  1
  Sn  Sn53  1  0.66427596  0.66719141  0.81960120  1
  P  P54  1  0.14322273  0.98608524  0.25203700  1
  P  P55  1  0.64712624  0.98744201  0.25224205  1
  P  P56  1  0.34478659  0.70489296  0.25322981  1
  P  P57  1  0.85027153  0.71277845  0.25247820  1
  P  P58  1  0.00634777  0.29601463  0.25285860  1
  P  P59  1  0.50604605  0.30628534  0.24915425  1
  P  P60  1  0.14310530  0.30155455  0.75243385  1
  P  P61  1  0.64297320  0.30116584  0.75244341  1
  P  P62  1  0.00697934  0.71772870  0.75209187  1
  P  P63  1  0.50694663  0.71786731  0.75191996  1
  P  P64  1  0.35104232  0.98629246  0.75319179  1
  P  P65  1  0.85095012  0.98616962  0.75330146  1
  P  P66  1  0.47940907  0.32510303  0.58434480  1
  P  P67  1  0.97857648  0.32437667  0.58441242  1
  P  P68  1  0.18256873  0.04063096  0.58419504  1
  P  P69  1  0.68351872  0.04335544  0.58259008  1
  P  P70  1  0.33724926  0.63293078  0.58493595  1
  P  P71  1  0.83861106  0.63474496  0.58730567  1
  P  P72  1  0.47911646  0.63270452  0.08314361  1
  P  P73  1  0.97996561  0.63505901  0.08288721  1
  P  P74  1  0.33723839  0.04032561  0.08551473  1
  P  P75  1  0.83719599  0.04148112  0.08300210  1
  P  P76  1  0.18207807  0.32453142  0.08219724  1
  P  P77  1  0.68393015  0.32516406  0.08581540  1
  P  P78  1  0.31957707  0.66452843  0.91549747  1
  P  P79  1  0.81954474  0.66420893  0.91557927  1
  P  P80  1  0.01276745  0.36175478  0.91709524  1
  P  P81  1  0.51276362  0.36158886  0.91730067  1
  P  P82  1  0.16804611  0.97432189  0.91700964  1
  P  P83  1  0.66794745  0.97409576  0.91707431  1
  P  P84  1  0.31262485  0.96902936  0.41828991  1
  P  P85  1  0.82009354  0.97438666  0.41736494  1
  P  P86  1  0.16697072  0.36136033  0.41748155  1
  P  P87  1  0.67319166  0.37081555  0.41863652  1
  P  P88  1  0.01384934  0.66719455  0.41678017  1
  P  P89  1  0.51363745  0.65498156  0.41952468  1
  O  O90  1  0.09629277  0.00658757  0.30470138  1
  O  O91  1  0.60584881  0.00536765  0.30733686  1
  O  O92  1  0.39340309  0.78802377  0.30895647  1
  O  O93  1  0.90754730  0.80796376  0.30501184  1
  O  O94  1  0.49437694  0.19442911  0.30079016  1
  O  O95  1  0.99883185  0.18265700  0.30520962  1
  O  O96  1  0.09510253  0.18519558  0.80407998  1
  O  O97  1  0.59501844  0.18524589  0.80418322  1
  O  O98  1  0.49599114  0.81581365  0.80298608  1
  O  O99  1  0.99598106  0.81570919  0.80312633  1
  O  O100  1  0.40833091  0.00124981  0.80497371  1
  O  O101  1  0.90836351  0.00146375  0.80503587  1
  O  O102  1  0.38943393  0.95551083  0.69420917  1
  O  O103  1  0.88942623  0.95598143  0.69433079  1
  O  O104  1  0.09319041  0.22456353  0.69274812  1
  O  O105  1  0.59313723  0.22397683  0.69276499  1
  O  O106  1  0.01986393  0.81835228  0.69231608  1
  O  O107  1  0.51993494  0.81852215  0.69199979  1
  O  O108  1  0.38887436  0.82158228  0.19580355  1
  O  O109  1  0.88971990  0.81412628  0.19335943  1
  O  O110  1  0.01730945  0.21849453  0.19314429  1
  O  O111  1  0.52254153  0.22718811  0.19046775  1
  O  O112  1  0.09281350  0.96615634  0.19298470  1
  O  O113  1  0.59209327  0.96192643  0.19385823  1
  O  O114  1  0.44052482  0.35855041  0.63768656  1
  O  O115  1  0.93923252  0.35685280  0.63756788  1
  O  O116  1  0.23824649  0.12025387  0.63747894  1
  O  O117  1  0.73993374  0.12723379  0.63502546  1
  O  O118  1  0.32406220  0.52908951  0.64029223  1
  O  O119  1  0.82491427  0.53280881  0.64329690  1
  O  O120  1  0.44053418  0.52256871  0.13625489  1
  O  O121  1  0.94204967  0.52676309  0.13683689  1
  O  O122  1  0.32252723  0.10998365  0.14204489  1
  O  O123  1  0.82080338  0.11879427  0.13638099  1
  O  O124  1  0.23589629  0.35643991  0.13605932  1
  O  O125  1  0.73445522  0.35444888  0.14215894  1
  O  O126  1  0.22344668  0.28897715  0.02667600  1
  O  O127  1  0.72773106  0.29155289  0.03122457  1
  O  O128  1  0.42029290  0.55255574  0.02689314  1
  O  O129  1  0.92056273  0.55310761  0.02726868  1
  O  O130  1  0.35385949  0.16282982  0.03130388  1
  O  O131  1  0.85555985  0.15884341  0.02697297  1
  O  O132  1  0.22271003  0.15713195  0.52808197  1
  O  O133  1  0.72315062  0.15228462  0.52439423  1
  O  O134  1  0.35237016  0.54807720  0.52843709  1
  O  O135  1  0.85499607  0.54822045  0.53239980  1
  O  O136  1  0.42028204  0.28611215  0.52844203  1
  O  O137  1  0.92126212  0.28966095  0.52776638  1
  O  O138  1  0.28600943  0.69298808  0.97255591  1
  O  O139  1  0.78591749  0.69279072  0.97256888  1
  O  O140  1  0.05845941  0.42433747  0.97510748  1
  O  O141  1  0.55856488  0.42390016  0.97532627  1
  O  O142  1  0.15319101  0.88271158  0.97493275  1
  O  O143  1  0.65317515  0.88197779  0.97492747  1
  O  O144  1  0.27340812  0.87269158  0.47506591  1
  O  O145  1  0.79068080  0.88593269  0.47633378  1
  O  O146  1  0.15129940  0.42032924  0.47614170  1
  O  O147  1  0.66581097  0.44661756  0.47572550  1
  O  O148  1  0.05724874  0.69612102  0.47602694  1
  O  O149  1  0.56161394  0.67903766  0.47675189  1
  O  O150  1  0.06142923  0.64028524  0.36459851  1
  O  O151  1  0.56078636  0.63307741  0.36523266  1
  O  O152  1  0.25680286  0.87731383  0.36184425  1
  O  O153  1  0.75439877  0.87874437  0.36653694  1
  O  O154  1  0.18383638  0.49065864  0.36627403  1
  O  O155  1  0.68169839  0.48052394  0.36209533  1
  O  O156  1  0.06025628  0.48241225  0.86387597  1
  O  O157  1  0.56003837  0.48249181  0.86406732  1
  O  O158  1  0.18079967  0.87930863  0.86373183  1
  O  O159  1  0.68090958  0.87963467  0.86367956  1
  O  O160  1  0.26147179  0.64031101  0.86023371  1
  O  O161  1  0.76146991  0.63989612  0.86028959  1
  O  O162  1  0.00125969  0.82400395  0.40712217  1
  O  O163  1  0.50186908  0.81098913  0.41319922  1
  O  O164  1  0.40034119  0.98412628  0.41402346  1
  O  O165  1  0.91047161  0.00025433  0.40612570  1
  O  O166  1  0.09021300  0.17935375  0.40670388  1
  O  O167  1  0.59846693  0.18752377  0.41442434  1
  O  O168  1  0.00142611  0.18042961  0.90755754  1
  O  O169  1  0.50138267  0.18034966  0.90760353  1
  O  O170  1  0.08904090  0.99788849  0.90739150  1
  O  O171  1  0.58886710  0.99747768  0.90747465  1
  O  O172  1  0.41089982  0.82272891  0.90704244  1
  O  O173  1  0.91089735  0.82230357  0.90704287  1
  O  O174  1  0.48336710  0.15372231  0.58918006  1
  O  O175  1  0.98272842  0.15357014  0.58902342  1
  O  O176  1  0.09324349  0.03387634  0.58845975  1
  O  O177  1  0.59397383  0.03582717  0.58735598  1
  O  O178  1  0.42304914  0.81365446  0.58808654  1
  O  O179  1  0.92406854  0.81523294  0.58933088  1
  O  O180  1  0.48318091  0.81246789  0.08832538  1
  O  O181  1  0.98407022  0.81460218  0.08797926  1
  O  O182  1  0.42294800  0.03113086  0.08832814  1
  O  O183  1  0.92298332  0.03285419  0.08817898  1
  O  O184  1  0.09215762  0.15286927  0.08716598  1
  O  O185  1  0.59371492  0.15330588  0.08839337  1
  O  O186  1  0.34007470  0.14019279  0.75230658  1
  O  O187  1  0.83978487  0.13985661  0.75237006  1
  O  O188  1  0.23338585  0.32984346  0.75124015  1
  O  O189  1  0.73323125  0.32920985  0.75142692  1
  O  O190  1  0.42485379  0.54528635  0.75045797  1
  O  O191  1  0.92505030  0.54489918  0.75076272  1
  O  O192  1  0.33012770  0.52640470  0.24801885  1
  O  O193  1  0.83627007  0.53245444  0.25153255  1
  O  O194  1  0.42735758  0.32495737  0.24415560  1
  O  O195  1  0.92882695  0.31725316  0.25326300  1
  O  O196  1  0.23407664  0.13607882  0.25148433  1
  O  O197  1  0.73383334  0.15046675  0.24643799  1
  O  O198  1  0.32656421  0.49952063  0.91736080  1
  O  O199  1  0.82638275  0.49898806  0.91770912  1
  O  O200  1  0.42257126  0.34491258  0.91860236  1
  O  O201  1  0.92276815  0.34584703  0.91811478  1
  O  O202  1  0.25069994  0.15376084  0.91822615  1
  O  O203  1  0.75016395  0.15426125  0.91846919  1
  O  O204  1  0.31908794  0.14803525  0.41858512  1
  O  O205  1  0.82269176  0.15073872  0.41900205  1
  O  O206  1  0.25364866  0.36040227  0.41957519  1
  O  O207  1  0.75713278  0.35671384  0.41823516  1
  O  O208  1  0.42182581  0.49207239  0.42043042  1
  O  O209  1  0.92463640  0.50031678  0.41808824  1
  O  O210  1  0.16677759  0.47555896  0.07487861  1
  O  O211  1  0.66956649  0.47687089  0.07680257  1
  O  O212  1  0.07070807  0.66586026  0.07532360  1
  O  O213  1  0.57041316  0.66536526  0.07553070  1
  O  O214  1  0.26142374  0.85932174  0.07635114  1
  O  O215  1  0.76207986  0.85916161  0.07559699  1
  O  O216  1  0.16648615  0.85814944  0.57765259  1
  O  O217  1  0.66747396  0.86052784  0.57764487  1
  O  O218  1  0.26110239  0.66177720  0.57737371  1
  O  O219  1  0.76276269  0.66422708  0.58004025  1
  O  O220  1  0.06987097  0.47509670  0.57807582  1
  O  O221  1  0.57059564  0.47512814  0.57704140  1
  O  O222  1  0.14748907  0.81819222  0.25613354  1
  O  O223  1  0.65458250  0.82263768  0.25421205  1
  O  O224  1  0.25778774  0.70777108  0.25349466  1
  O  O225  1  0.76100011  0.69903783  0.25737527  1
  O  O226  1  0.09065031  0.47178411  0.25708163  1
  O  O227  1  0.59272284  0.48161844  0.25339243  1
  O  O228  1  0.14984257  0.48074071  0.75699452  1
  O  O229  1  0.64984656  0.48056860  0.75701837  1
  O  O230  1  0.08876793  0.70379492  0.75748277  1
  O  O231  1  0.58866252  0.70372976  0.75742285  1
  O  O232  1  0.26333882  0.81423422  0.75731913  1
  O  O233  1  0.76330723  0.81412526  0.75739245  1
