# generated using pymatgen
data_Na4ZrZn3SiS5O24
_symmetry_space_group_name_H-M   'P 1'
_cell_length_a   8.92909873
_cell_length_b   8.93004928
_cell_length_c   22.78566701
_cell_angle_alpha   89.99613412
_cell_angle_beta   90.69790609
_cell_angle_gamma   120.01465748
_symmetry_Int_Tables_number   1
_chemical_formula_structural   Na4ZrZn3SiS5O24
_chemical_formula_sum   'Na12 Zr3 Zn9 Si3 S15 O72'
_cell_volume   1573.06605420
_cell_formula_units_Z   3
loop_
 _symmetry_equiv_pos_site_id
 _symmetry_equiv_pos_as_xyz
  1  'x, y, z'
loop_
 _atom_site_type_symbol
 _atom_site_label
 _atom_site_symmetry_multiplicity
 _atom_site_fract_x
 _atom_site_fract_y
 _atom_site_fract_z
 _atom_site_occupancy
  Na  Na0  1  0.36427826  0.36484238  0.24948650  1
  Na  Na1  1  0.31154498  0.34218239  0.58767729  1
  Na  Na2  1  0.02720406  0.70028385  0.58288327  1
  Na  Na3  1  0.98715084  0.67839504  0.91676572  1
  Na  Na4  1  0.70247856  0.03045191  0.91098437  1
  Na  Na5  1  0.30947350  0.28719454  0.91779903  1
  Na  Na6  1  0.97608043  0.98705701  0.49831594  1
  Na  Na7  1  0.01400031  0.01138757  0.00279675  1
  Na  Na8  1  0.66634242  0.32452902  0.82456955  1
  Na  Na9  1  0.67905003  0.32921530  0.32756878  1
  Na  Na10  1  0.33135465  0.67698925  0.16518339  1
  Na  Na11  1  0.36046217  0.67753489  0.66170007  1
  Zr  Zr12  1  0.66705373  0.32523441  0.98531514  1
  Zr  Zr13  1  0.67075232  0.34437133  0.48028321  1
  Zr  Zr14  1  0.32451648  0.66975846  0.81432786  1
  Zn  Zn15  1  0.99465578  0.99635962  0.34637469  1
  Zn  Zn16  1  0.01373218  0.01587464  0.84866463  1
  Zn  Zn17  1  0.97329093  0.98389991  0.65035534  1
  Zn  Zn18  1  0.99635011  0.99498778  0.15324974  1
  Zn  Zn19  1  0.66125233  0.34183924  0.68137080  1
  Zn  Zn20  1  0.67610562  0.33395879  0.18287266  1
  Zn  Zn21  1  0.30800687  0.65914837  0.01500086  1
  Zn  Zn22  1  0.36134592  0.67766987  0.51377898  1
  Zn  Zn23  1  0.33312561  0.67851224  0.31718036  1
  Si  Si24  1  0.66482086  0.63468668  0.58627959  1
  Si  Si25  1  0.04088987  0.36939133  0.91887362  1
  Si  Si26  1  0.32881777  0.95903085  0.91868380  1
  S  S27  1  0.29269485  -0.00031348  0.25002538  1
  S  S28  1  0.70428840  0.70448315  0.24989649  1
  S  S29  1  0.00025498  0.29336968  0.25025438  1
  S  S30  1  0.29723264  0.29230427  0.74824575  1
  S  S31  1  0.99385347  0.70450089  0.74946942  1
  S  S32  1  0.70669928  0.00472514  0.75001113  1
  S  S33  1  0.95997954  0.33275128  0.58504819  1
  S  S34  1  0.37598941  0.03952446  0.58460693  1
  S  S35  1  0.96307853  0.63346703  0.08683250  1
  S  S36  1  0.66714027  0.03090945  0.08694500  1
  S  S37  1  0.36861850  0.33526255  0.08653604  1
  S  S38  1  0.62483968  0.66733487  0.91856656  1
  S  S39  1  0.63092311  0.95979224  0.41492652  1
  S  S40  1  0.32445291  0.36725266  0.41496454  1
  S  S41  1  0.04732086  0.67218728  0.41703007  1
  O  O42  1  0.21403308  0.03051311  0.30250696  1
  O  O43  1  0.80922774  0.78355418  0.30349516  1
  O  O44  1  0.97506670  0.18948380  0.30357211  1
  O  O45  1  0.21659789  0.19673504  0.80281666  1
  O  O46  1  0.97880904  0.78648050  0.80368131  1
  O  O47  1  0.80278909  0.02154556  0.80576859  1
  O  O48  1  0.78826786  0.98053356  0.69849887  1
  O  O49  1  0.19134811  0.21136937  0.69486271  1
  O  O50  1  0.01947222  0.80758079  0.69622969  1
  O  O51  1  0.78302284  0.80804132  0.19707553  1
  O  O52  1  0.02974305  0.21365399  0.19762915  1
  O  O53  1  0.18804480  0.97423470  0.19622066  1
  O  O54  1  0.87795026  0.35516571  0.63688086  1
  O  O55  1  0.48224588  0.11258470  0.63740175  1
  O  O56  1  0.62235819  0.50382559  0.64015467  1
  O  O57  1  0.87107887  0.52245088  0.13652125  1
  O  O58  1  0.64556289  0.12247549  0.13646224  1
  O  O59  1  0.47503350  0.35153260  0.13922258  1
  O  O60  1  0.45822363  0.31545553  0.03200617  1
  O  O61  1  0.86009854  0.54890794  0.03022084  1
  O  O62  1  0.68818282  0.13856972  0.03062508  1
  O  O63  1  0.46488401  0.14925266  0.53167713  1
  O  O64  1  0.69609153  0.53380512  0.52835094  1
  O  O65  1  0.84915958  0.30459073  0.53097207  1
  O  O66  1  0.55122317  0.69878907  0.97019864  1
  O  O67  1  0.17084778  0.44438329  0.97377722  1
  O  O68  1  0.29825381  0.84248564  0.97494641  1
  O  O69  1  0.55359987  0.86071995  0.46871456  1
  O  O70  1  0.30599421  0.44748491  0.46917751  1
  O  O71  1  0.14333059  0.68895590  0.47264841  1
  O  O72  1  0.12546348  0.64322066  0.36531764  1
  O  O73  1  0.52287378  0.88216387  0.36219299  1
  O  O74  1  0.35581746  0.47375150  0.36206684  1
  O  O75  1  0.12912468  0.49849629  0.86140014  1
  O  O76  1  0.38037172  0.87866299  0.86141005  1
  O  O77  1  0.51285704  0.63148111  0.86473285  1
  O  O78  1  0.02122664  0.82243067  0.41130067  1
  O  O79  1  0.80550036  0.98049100  0.40981834  1
  O  O80  1  0.17313208  0.19182806  0.40927049  1
  O  O81  1  0.99880110  0.17228196  0.90912025  1
  O  O82  1  0.15897429  0.97795686  0.90870745  1
  O  O83  1  0.79958068  0.81510256  0.90890892  1
  O  O84  1  0.98966425  0.18368933  0.58814463  1
  O  O85  1  0.20715918  0.03623436  0.58746160  1
  O  O86  1  0.84842214  0.81709340  0.58711716  1
  O  O87  1  0.97417718  0.80427153  0.08939205  1
  O  O88  1  0.82913012  0.02431963  0.08978616  1
  O  O89  1  0.19777143  0.17576718  0.08786539  1
  O  O90  1  0.68543555  0.15828808  0.74452343  1
  O  O91  1  0.47010294  0.30820267  0.74594922  1
  O  O92  1  0.84419832  0.52730440  0.74563370  1
  O  O93  1  0.68031987  0.52499818  0.24483345  1
  O  O94  1  0.84553547  0.31444413  0.24363356  1
  O  O95  1  0.46714210  0.16158850  0.24485725  1
  O  O96  1  0.64014767  0.50694044  0.92405642  1
  O  O97  1  0.85268615  0.36521094  0.92493273  1
  O  O98  1  0.50077821  0.15731376  0.92379998  1
  O  O99  1  0.64810640  0.13662027  0.42182144  1
  O  O100  1  0.48579029  0.34883139  0.42198195  1
  O  O101  1  0.86815008  0.50812080  0.42116962  1
  O  O102  1  0.35846418  0.49360714  0.08077888  1
  O  O103  1  0.13396293  0.64722365  0.08295837  1
  O  O104  1  0.51307028  0.86022118  0.07937928  1
  O  O105  1  0.33982792  0.85959565  0.57616570  1
  O  O106  1  0.48668601  0.64114333  0.57717534  1
  O  O107  1  0.12937638  0.49453755  0.57741652  1
  O  O108  1  0.31357491  0.84522347  0.25614564  1
  O  O109  1  0.52517870  0.67994460  0.25503997  1
  O  O110  1  0.16205436  0.46767449  0.25638273  1
  O  O111  1  0.31762405  0.47108437  0.75342707  1
  O  O112  1  0.15758946  0.69040327  0.75315009  1
  O  O113  1  0.53073861  0.84200234  0.75342449  1
