# generated using pymatgen
data_Na6ZnSi2Sn3(PO6)4
_symmetry_space_group_name_H-M   'P 1'
_cell_length_a   15.54868994
_cell_length_b   9.02928337
_cell_length_c   9.09172066
_cell_angle_alpha   89.60615639
_cell_angle_beta   124.89959068
_cell_angle_gamma   90.06323088
_symmetry_Int_Tables_number   1
_chemical_formula_structural   Na6ZnSi2Sn3(PO6)4
_chemical_formula_sum   'Na12 Zn2 Si4 Sn6 P8 O48'
_cell_volume   1046.83147597
_cell_formula_units_Z   2
loop_
 _symmetry_equiv_pos_site_id
 _symmetry_equiv_pos_as_xyz
  1  'x, y, z'
loop_
 _atom_site_type_symbol
 _atom_site_label
 _atom_site_symmetry_multiplicity
 _atom_site_fract_x
 _atom_site_fract_y
 _atom_site_fract_z
 _atom_site_occupancy
  Na  Na0  1  0.25135679  0.74950731  0.00100087  1
  Na  Na1  1  0.74364367  0.74439531  0.48043962  1
  Na  Na2  1  0.75135679  0.24950731  0.00100087  1
  Na  Na3  1  0.24364367  0.24439531  0.48043962  1
  Na  Na4  1  0.50790740  0.09385638  0.76297815  1
  Na  Na5  1  0.49891899  0.88239171  0.23382208  1
  Na  Na6  1  0.00790740  0.59385638  0.76297815  1
  Na  Na7  1  0.99891899  0.38239171  0.23382208  1
  Na  Na8  1  0.79928162  0.92356921  0.21143944  1
  Na  Na9  1  0.18482728  0.08160008  0.80277194  1
  Na  Na10  1  0.29928162  0.42356921  0.21143944  1
  Na  Na11  1  0.68482728  0.58160008  0.80277194  1
  Zn  Zn12  1  0.10426923  0.24120446  0.05470157  1
  Zn  Zn13  1  0.60426923  0.74120446  0.05470157  1
  Si  Si14  1  0.65036272  0.89937911  0.74888304  1
  Si  Si15  1  0.35266958  0.10012182  0.25464392  1
  Si  Si16  1  0.15036272  0.39937911  0.74888304  1
  Si  Si17  1  0.85266958  0.60012182  0.25464392  1
  Sn  Sn18  1  0.10421101  0.75171161  0.55926960  1
  Sn  Sn19  1  0.89793717  0.75374917  0.93997634  1
  Sn  Sn20  1  0.89716469  0.25118261  0.44410524  1
  Sn  Sn21  1  0.60421101  0.25171161  0.55926960  1
  Sn  Sn22  1  0.39793717  0.25374917  0.93997634  1
  Sn  Sn23  1  0.39716469  0.75118261  0.44410524  1
  P  P24  1  0.99617809  0.95516968  0.74489486  1
  P  P25  1  0.00154153  0.04542890  0.25636607  1
  P  P26  1  0.49617809  0.45516968  0.74489486  1
  P  P27  1  0.50154153  0.54542890  0.25636607  1
  P  P28  1  0.35556137  0.89697850  0.76096351  1
  P  P29  1  0.64807027  0.10958640  0.24773298  1
  P  P30  1  0.85556137  0.39697850  0.76096351  1
  P  P31  1  0.14807027  0.60958640  0.24773298  1
  O  O32  1  0.15689793  0.58201370  0.74110608  1
  O  O33  1  0.85065454  0.57209158  0.75462384  1
  O  O34  1  0.85138802  0.41665218  0.25772164  1
  O  O35  1  0.15371060  0.44045414  0.25025285  1
  O  O36  1  0.65689793  0.08201370  0.74110608  1
  O  O37  1  0.35065454  0.07209158  0.75462384  1
  O  O38  1  0.35138802  0.91665218  0.25772164  1
  O  O39  1  0.65371060  0.94045414  0.25025285  1
  O  O40  1  0.42532090  0.54070144  0.56350444  1
  O  O41  1  0.55775194  0.55531848  0.90490872  1
  O  O42  1  0.56888925  0.45614724  0.43429975  1
  O  O43  1  0.43781696  0.43970069  0.09349586  1
  O  O44  1  0.92532090  0.04070144  0.56350444  1
  O  O45  1  0.05775194  0.05531848  0.90490872  1
  O  O46  1  0.06888925  0.95614724  0.43429975  1
  O  O47  1  0.93781696  0.93970069  0.09349586  1
  O  O48  1  0.25405656  0.84276232  0.74304445  1
  O  O49  1  0.74698473  0.81618728  0.75437397  1
  O  O50  1  0.74359636  0.17471820  0.25496307  1
  O  O51  1  0.25705374  0.18138835  0.24270910  1
  O  O52  1  0.75405656  0.34276232  0.74304445  1
  O  O53  1  0.24698473  0.31618728  0.75437397  1
  O  O54  1  0.24359636  0.67471820  0.25496307  1
  O  O55  1  0.75705374  0.68138835  0.24270910  1
  O  O56  1  0.35470737  0.85685847  0.59389207  1
  O  O57  1  0.64872729  0.86727919  0.92152567  1
  O  O58  1  0.64761208  0.15913225  0.40858806  1
  O  O59  1  0.35680175  0.12993256  0.07731477  1
  O  O60  1  0.85470737  0.35685847  0.59389207  1
  O  O61  1  0.14872729  0.36727919  0.92152567  1
  O  O62  1  0.14761208  0.65913225  0.40858806  1
  O  O63  1  0.85680175  0.62993256  0.07731477  1
  O  O64  1  0.45132402  0.84092817  0.93689965  1
  O  O65  1  0.54596214  0.82607485  0.56577631  1
  O  O66  1  0.54913358  0.16894115  0.06560358  1
  O  O67  1  0.46029474  0.16481058  0.43678119  1
  O  O68  1  0.95132402  0.34092817  0.93689965  1
  O  O69  1  0.04596214  0.32607485  0.56577631  1
  O  O70  1  0.04913358  0.66894115  0.06560358  1
  O  O71  1  0.96029474  0.66481058  0.43678119  1
  O  O72  1  0.08097049  0.86041404  0.74211107  1
  O  O73  1  0.92418888  0.84003889  0.75370029  1
  O  O74  1  0.91217969  0.13084514  0.25508222  1
  O  O75  1  0.07007500  0.15677688  0.24373214  1
  O  O76  1  0.58097049  0.36041404  0.74211107  1
  O  O77  1  0.42418888  0.34003889  0.75370029  1
  O  O78  1  0.41217969  0.63084514  0.25508222  1
  O  O79  1  0.57007500  0.65677688  0.24373214  1
