# generated using pymatgen
data_Na6Mg4Ti4Si3(S3O16)3
_symmetry_space_group_name_H-M   'P 1'
_cell_length_a   17.53847203
_cell_length_b   8.71480785
_cell_length_c   22.44678031
_cell_angle_alpha   89.94145680
_cell_angle_beta   90.13965557
_cell_angle_gamma   119.92235795
_symmetry_Int_Tables_number   1
_chemical_formula_structural   Na6Mg4Ti4Si3(S3O16)3
_chemical_formula_sum   'Na18 Mg12 Ti12 Si9 S27 O144'
_cell_volume   2973.52918834
_cell_formula_units_Z   3
loop_
 _symmetry_equiv_pos_site_id
 _symmetry_equiv_pos_as_xyz
  1  'x, y, z'
loop_
 _atom_site_type_symbol
 _atom_site_label
 _atom_site_symmetry_multiplicity
 _atom_site_fract_x
 _atom_site_fract_y
 _atom_site_fract_z
 _atom_site_occupancy
  Na  Na0  1  0.99825547  0.63406195  0.25152582  1
  Na  Na1  1  0.49896256  0.62624061  0.24432511  1
  Na  Na2  1  0.00070527  0.37058846  0.74419739  1
  Na  Na3  1  0.49911417  0.36582233  0.75105157  1
  Na  Na4  1  0.67287781  0.31987200  0.91219383  1
  Na  Na5  1  0.17081959  0.02974151  0.41542230  1
  Na  Na6  1  0.99247210  0.00131036  0.50231322  1
  Na  Na7  1  0.50078927  0.00261823  0.50038631  1
  Na  Na8  1  0.99844885  0.99388356  0.99426359  1
  Na  Na9  1  0.49272697  0.98371013  0.99762811  1
  Na  Na10  1  0.31506717  0.31305911  0.83231441  1
  Na  Na11  1  0.83620132  0.35222910  0.83591338  1
  Na  Na12  1  0.33315815  0.31806205  0.33795751  1
  Na  Na13  1  0.82193113  0.32759675  0.33885616  1
  Na  Na14  1  0.17598337  0.66009777  0.16332630  1
  Na  Na15  1  0.66664273  0.66274730  0.16363148  1
  Na  Na16  1  0.16573782  0.66078530  0.67023602  1
  Na  Na17  1  0.67856944  0.69481975  0.66541241  1
  Mg  Mg18  1  0.99510265  0.99856294  0.35284029  1
  Mg  Mg19  1  0.49551776  0.99156329  0.85205224  1
  Mg  Mg20  1  0.32340017  0.32616335  0.68700698  1
  Mg  Mg21  1  0.83488417  0.32821789  0.68079145  1
  Mg  Mg22  1  0.33311434  0.33901067  0.18069926  1
  Mg  Mg23  1  0.82901043  0.32809481  0.18381934  1
  Mg  Mg24  1  0.83795709  0.34005612  0.98168012  1
  Mg  Mg25  1  0.33764868  0.33658060  0.48239407  1
  Mg  Mg26  1  0.17113238  0.66940674  0.31574560  1
  Mg  Mg27  1  0.67251140  0.66494517  0.31576551  1
  Mg  Mg28  1  0.17112568  0.67509137  0.81193390  1
  Mg  Mg29  1  0.67374676  0.67563376  0.81488278  1
  Ti  Ti30  1  0.50079653  0.01624584  0.36287062  1
  Ti  Ti31  1  0.00939873  0.99504559  0.85893017  1
  Ti  Ti32  1  0.00299274  0.02458986  0.64731994  1
  Ti  Ti33  1  0.50540459  0.99847506  0.64546625  1
  Ti  Ti34  1  0.00571388  0.01239150  0.14416984  1
  Ti  Ti35  1  0.49731373  0.98585303  0.14282493  1
  Ti  Ti36  1  0.32387635  0.33659554  0.98437572  1
  Ti  Ti37  1  0.82388038  0.31314253  0.48627669  1
  Ti  Ti38  1  0.16392933  0.66426455  0.01596863  1
  Ti  Ti39  1  0.67025501  0.67370102  0.01623427  1
  Ti  Ti40  1  0.17019986  0.66684148  0.51916708  1
  Ti  Ti41  1  0.66625174  0.65980946  0.51889084  1
  Si  Si42  1  0.14871070  0.29637608  0.75363170  1
  Si  Si43  1  0.98041160  0.34067479  0.58468016  1
  Si  Si44  1  0.68752308  0.03333297  0.58683388  1
  Si  Si45  1  0.48136676  0.61452265  0.08539091  1
  Si  Si46  1  0.18874825  0.34420689  0.08658996  1
  Si  Si47  1  0.81423966  0.66627715  0.91368523  1
  Si  Si48  1  0.17415317  0.96166446  0.91477942  1
  Si  Si49  1  0.30977234  0.96044778  0.41491375  1
  Si  Si50  1  0.67451846  0.38446893  0.41494806  1
  S  S51  1  0.14647251  0.00292450  0.25041548  1
  S  S52  1  0.64406006  0.00218316  0.25035590  1
  S  S53  1  0.35636455  0.71364905  0.25118142  1
  S  S54  1  0.85448455  0.71140893  0.24778455  1
  S  S55  1  0.99911998  0.29068247  0.24950007  1
  S  S56  1  0.49914427  0.28515868  0.25027431  1
  S  S57  1  0.64665555  0.29037110  0.75059549  1
  S  S58  1  0.99694719  0.71243445  0.74951643  1
  S  S59  1  0.50133670  0.70945423  0.74967822  1
  S  S60  1  0.35710246  0.99916904  0.74763970  1
  S  S61  1  0.85481036  0.99893070  0.75103252  1
  S  S62  1  0.48004800  0.33328864  0.58623253  1
  S  S63  1  0.18507804  0.03734014  0.58215450  1
  S  S64  1  0.33431998  0.62657208  0.58374456  1
  S  S65  1  0.83310045  0.62432031  0.58296880  1
  S  S66  1  0.98058792  0.62783828  0.08646461  1
  S  S67  1  0.33290602  0.04068375  0.08398039  1
  S  S68  1  0.83383621  0.04136521  0.08436581  1
  S  S69  1  0.68537649  0.33208068  0.08356869  1
  S  S70  1  0.31226669  0.66803764  0.91640480  1
  S  S71  1  0.02068436  0.37536692  0.91507686  1
  S  S72  1  0.51888862  0.37581845  0.91527470  1
  S  S73  1  0.66554573  0.95816665  0.91627434  1
  S  S74  1  0.81207168  0.95697472  0.41647538  1
  S  S75  1  0.16573348  0.37384511  0.41635225  1
  S  S76  1  0.01919411  0.66263855  0.41497829  1
  S  S77  1  0.52190424  0.66710798  0.41412153  1
  O  O78  1  0.10480206  0.02051729  0.30526845  1
  O  O79  1  0.60119762  0.02218390  0.30353487  1
  O  O80  1  0.41294059  0.80678342  0.30292128  1
  O  O81  1  0.90886638  0.79009164  0.30169193  1
  O  O82  1  0.49371190  0.18183542  0.30497800  1
  O  O83  1  0.98816517  0.18542248  0.30284625  1
  O  O84  1  0.09019233  0.16380443  0.80912429  1
  O  O85  1  0.60502543  0.18918005  0.80565676  1
  O  O86  1  0.48982523  0.79224787  0.80293175  1
  O  O87  1  0.98771241  0.79620668  0.80514378  1
  O  O88  1  0.41106971  0.02784687  0.80177711  1
  O  O89  1  0.90865863  0.01592856  0.80342457  1
  O  O90  1  0.40475228  0.98094578  0.69479756  1
  O  O91  1  0.89716038  0.97889128  0.69497413  1
  O  O92  1  0.08239905  0.18964483  0.69330463  1
  O  O93  1  0.58716313  0.18995099  0.69810752  1
  O  O94  1  0.00378305  0.81807168  0.69603597  1
  O  O95  1  0.51095649  0.81999225  0.69528903  1
  O  O96  1  0.40152442  0.82011316  0.19559404  1
  O  O97  1  0.90188500  0.82048403  0.19456988  1
  O  O98  1  0.00856508  0.20071859  0.19521374  1
  O  O99  1  0.50805054  0.19547211  0.19693762  1
  O  O100  1  0.08705780  0.98460304  0.19791385  1
  O  O101  1  0.58784023  0.97769726  0.19588152  1
  O  O102  1  0.44195386  0.35906544  0.64087569  1
  O  O103  1  0.95006360  0.37959160  0.64688374  1
  O  O104  1  0.24089711  0.11903121  0.63426290  1
  O  O105  1  0.74301493  0.11086985  0.64509656  1
  O  O106  1  0.32286024  0.52096600  0.63683866  1
  O  O107  1  0.81549287  0.51846517  0.63675822  1
  O  O108  1  0.44962061  0.52008784  0.14863841  1
  O  O109  1  0.94257809  0.52626615  0.14184083  1
  O  O110  1  0.31879496  0.11477838  0.13813836  1
  O  O111  1  0.82151625  0.12200387  0.13813407  1
  O  O112  1  0.24321839  0.37526681  0.14540828  1
  O  O113  1  0.73974014  0.35882240  0.13646866  1
  O  O114  1  0.22941769  0.29990856  0.02680451  1
  O  O115  1  0.72082782  0.29751561  0.02942029  1
  O  O116  1  0.41387408  0.52180357  0.02940297  1
  O  O117  1  0.92603313  0.54578679  0.03427286  1
  O  O118  1  0.34876450  0.15116207  0.03076834  1
  O  O119  1  0.84827377  0.14766827  0.03092687  1
  O  O120  1  0.22156257  0.14210745  0.52737381  1
  O  O121  1  0.72814303  0.15851698  0.52670129  1
  O  O122  1  0.34877083  0.55162439  0.52945437  1
  O  O123  1  0.84423707  0.53845369  0.52930984  1
  O  O124  1  0.42666383  0.30691756  0.53316206  1
  O  O125  1  0.91316483  0.30798091  0.52840100  1
  O  O126  1  0.26778878  0.68641947  0.97073887  1
  O  O127  1  0.76126378  0.69438536  0.97370911  1
  O  O128  1  0.07797818  0.46626113  0.96925982  1
  O  O129  1  0.57992595  0.46901365  0.96692207  1
  O  O130  1  0.15788062  0.83438271  0.97491711  1
  O  O131  1  0.65196150  0.84601294  0.97064334  1
  O  O132  1  0.26228252  0.82979043  0.47385185  1
  O  O133  1  0.76668580  0.84688380  0.46976510  1
  O  O134  1  0.15295487  0.45914770  0.47004887  1
  O  O135  1  0.65554765  0.47602318  0.47400914  1
  O  O136  1  0.08022135  0.69225152  0.46598622  1
  O  O137  1  0.57838838  0.69293350  0.46709337  1
  O  O138  1  0.05500360  0.63644610  0.35843459  1
  O  O139  1  0.56003910  0.64426446  0.35870526  1
  O  O140  1  0.24740189  0.87818488  0.35838547  1
  O  O141  1  0.76093686  0.88381513  0.36173433  1
  O  O142  1  0.17451013  0.47386876  0.36191511  1
  O  O143  1  0.68778740  0.49126469  0.35576253  1
  O  O144  1  0.05947083  0.47805468  0.86104703  1
  O  O145  1  0.55497085  0.47422870  0.85920540  1
  O  O146  1  0.18845805  0.87758786  0.85723510  1
  O  O147  1  0.67361221  0.87430271  0.86247846  1
  O  O148  1  0.26176552  0.64059342  0.86247136  1
  O  O149  1  0.74536223  0.61335996  0.86010086  1
  O  O150  1  0.01508098  0.83047372  0.41192677  1
  O  O151  1  0.51553976  0.83270992  0.41014089  1
  O  O152  1  0.40831059  0.97204915  0.40881179  1
  O  O153  1  0.89990605  0.97234470  0.41356456  1
  O  O154  1  0.08718685  0.19138854  0.41330435  1
  O  O155  1  0.58332002  0.18243470  0.41040952  1
  O  O156  1  0.01481819  0.19973669  0.91380002  1
  O  O157  1  0.51537444  0.20028761  0.91290665  1
  O  O158  1  0.08424160  0.98052146  0.91317019  1
  O  O159  1  0.58710050  0.98321558  0.91377391  1
  O  O160  1  0.40090842  0.82817013  0.91426066  1
  O  O161  1  0.90899589  0.84985223  0.90842008  1
  O  O162  1  0.49100430  0.17239652  0.59200460  1
  O  O163  1  0.98835261  0.15628811  0.58875006  1
  O  O164  1  0.09450256  0.01090941  0.59037968  1
  O  O165  1  0.58693428  0.01350288  0.59369406  1
  O  O166  1  0.41269357  0.81041293  0.59074239  1
  O  O167  1  0.91240414  0.80177071  0.58746770  1
  O  O168  1  0.49040045  0.82026369  0.09307105  1
  O  O169  1  0.99057022  0.80998188  0.09246396  1
  O  O170  1  0.41429322  0.02123410  0.09013304  1
  O  O171  1  0.91259025  0.01652895  0.09193485  1
  O  O172  1  0.08752261  0.16161068  0.09397044  1
  O  O173  1  0.59433978  0.17402382  0.09277021  1
  O  O174  1  0.35248279  0.16387204  0.74041329  1
  O  O175  1  0.84994332  0.16415636  0.74772364  1
  O  O176  1  0.24121980  0.30537012  0.74913267  1
  O  O177  1  0.73419333  0.31404844  0.74400565  1
  O  O178  1  0.42457491  0.53091897  0.74205483  1
  O  O179  1  0.91729522  0.53371122  0.74733121  1
  O  O180  1  0.35085144  0.53869769  0.24838406  1
  O  O181  1  0.84630090  0.53239201  0.24187183  1
  O  O182  1  0.41820544  0.29831900  0.24885041  1
  O  O183  1  0.92095953  0.31372310  0.24283790  1
  O  O184  1  0.23445618  0.15518304  0.24395157  1
  O  O185  1  0.73186871  0.15877391  0.24357977  1
  O  O186  1  0.32300250  0.50833464  0.92395126  1
  O  O187  1  0.82347933  0.49372073  0.92599950  1
  O  O188  1  0.43158138  0.35366839  0.92525562  1
  O  O189  1  0.93331007  0.35407797  0.92483224  1
  O  O190  1  0.25921316  0.15892746  0.92857019  1
  O  O191  1  0.74490362  0.13327787  0.92431431  1
  O  O192  1  0.32335834  0.15493034  0.42520593  1
  O  O193  1  0.82277899  0.13735790  0.42358616  1
  O  O194  1  0.24507854  0.35671003  0.42369418  1
  O  O195  1  0.75812086  0.35553546  0.42712567  1
  O  O196  1  0.43336262  0.51524887  0.42264543  1
  O  O197  1  0.93146554  0.50909718  0.42404306  1
  O  O198  1  0.17042359  0.50617972  0.07162522  1
  O  O199  1  0.67418630  0.49023092  0.07724822  1
  O  O200  1  0.07047864  0.65175518  0.07984124  1
  O  O201  1  0.58091479  0.65556254  0.06988707  1
  O  O202  1  0.25684315  0.85838545  0.07602626  1
  O  O203  1  0.75440187  0.86103425  0.07849835  1
  O  O204  1  0.17470353  0.85582202  0.57559242  1
  O  O205  1  0.66998476  0.83505009  0.56986658  1
  O  O206  1  0.25421608  0.64618144  0.57810462  1
  O  O207  1  0.75473756  0.65177488  0.57434195  1
  O  O208  1  0.07966260  0.50386859  0.56717682  1
  O  O209  1  0.57044160  0.49100302  0.57926481  1
  O  O210  1  0.14661971  0.83191998  0.24961630  1
  O  O211  1  0.64936849  0.83691554  0.25335261  1
  O  O212  1  0.26912361  0.69762526  0.25274129  1
  O  O213  1  0.76799673  0.69932971  0.25013236  1
  O  O214  1  0.07893735  0.46940674  0.25202673  1
  O  O215  1  0.57706475  0.46633497  0.25295356  1
  O  O216  1  0.14743003  0.47978903  0.75375007  1
  O  O217  1  0.64641203  0.46127801  0.74984078  1
  O  O218  1  0.07636948  0.69490277  0.75270157  1
  O  O219  1  0.58192806  0.69395027  0.75240181  1
  O  O220  1  0.27051030  0.84166582  0.74974353  1
  O  O221  1  0.76608227  0.84112447  0.75275983  1
