# generated using pymatgen
data_Rb4Mg(FeO2)4
_symmetry_space_group_name_H-M   'P 1'
_cell_length_a   6.03576314
_cell_length_b   6.17520353
_cell_length_c   8.15719184
_cell_angle_alpha   91.04601341
_cell_angle_beta   89.28361576
_cell_angle_gamma   90.38411977
_symmetry_Int_Tables_number   1
_chemical_formula_structural   Rb4Mg(FeO2)4
_chemical_formula_sum   'Rb4 Mg1 Fe4 O8'
_cell_volume   303.95458857
_cell_formula_units_Z   1
loop_
 _symmetry_equiv_pos_site_id
 _symmetry_equiv_pos_as_xyz
  1  'x, y, z'
loop_
 _atom_site_type_symbol
 _atom_site_label
 _atom_site_symmetry_multiplicity
 _atom_site_fract_x
 _atom_site_fract_y
 _atom_site_fract_z
 _atom_site_occupancy
  Rb  Rb0  1  0.20462816  0.20665829  0.48601190  1
  Rb  Rb1  1  0.23444563  0.67130488  0.76187425  1
  Rb  Rb2  1  0.66860432  0.23577501  0.22502071  1
  Rb  Rb3  1  0.85121828  0.71515610  0.07536257  1
  Mg  Mg4  1  0.65546530  0.00627376  0.78750064  1
  Fe  Fe5  1  0.20456666  0.19492800  0.98660135  1
  Fe  Fe6  1  0.30133626  0.69598792  0.25156676  1
  Fe  Fe7  1  0.71541036  0.38921141  0.74243676  1
  Fe  Fe8  1  0.78688347  0.80617247  0.49600562  1
  O  O9  1  0.08333640  0.76713022  0.42326186  1
  O  O10  1  0.32050117  0.90358857  0.08261027  1
  O  O11  1  0.20851030  0.42331704  0.16777362  1
  O  O12  1  0.41574991  0.22318715  0.79473522  1
  O  O13  1  0.58906728  0.66961044  0.34987464  1
  O  O14  1  0.72584696  0.70317515  0.72463683  1
  O  O15  1  0.73674083  0.10052879  0.55373385  1
  O  O16  1  0.88112371  0.20455980  0.89568013  1
