# generated using pymatgen
data_MnPO4
_symmetry_space_group_name_H-M   'P 1'
_cell_length_a   4.79468793
_cell_length_b   5.92839492
_cell_length_c   9.66627291
_cell_angle_alpha   90.00056125
_cell_angle_beta   89.99981212
_cell_angle_gamma   90.00007900
_symmetry_Int_Tables_number   1
_chemical_formula_structural   MnPO4
_chemical_formula_sum   'Mn4 P4 O16'
_cell_volume   274.76190869
_cell_formula_units_Z   4
loop_
 _symmetry_equiv_pos_site_id
 _symmetry_equiv_pos_as_xyz
  1  'x, y, z'
loop_
 _atom_site_type_symbol
 _atom_site_label
 _atom_site_symmetry_multiplicity
 _atom_site_fract_x
 _atom_site_fract_y
 _atom_site_fract_z
 _atom_site_occupancy
  Mn  Mn0  1  0.42095170  0.74999964  0.21447975  1
  Mn  Mn1  1  0.07904518  0.75000506  0.71447503  1
  Mn  Mn2  1  0.92095456  0.24999934  0.28551983  1
  Mn  Mn3  1  0.57903936  0.24999671  0.78552331  1
  P  P4  1  0.40146753  0.24999922  0.09793315  1
  P  P5  1  0.09853545  0.25001002  0.59792269  1
  P  P6  1  0.90146771  0.75000115  0.40206530  1
  P  P7  1  0.59853125  0.74999148  0.90207796  1
  O  O8  1  0.71610241  0.24999821  0.12188735  1
  O  O9  1  0.78391432  0.25000081  0.62188242  1
  O  O10  1  0.21610187  0.75000118  0.37811490  1
  O  O11  1  0.28391226  0.74999875  0.87811755  1
  O  O12  1  0.14936365  0.25000150  0.44220542  1
  O  O13  1  0.35063764  0.24999820  0.94219476  1
  O  O14  1  0.85063683  0.75000147  0.55780739  1
  O  O15  1  0.64936068  0.74999616  0.05779415  1
  O  O16  1  0.25561488  0.04772940  0.16827389  1
  O  O17  1  0.24438304  0.04774517  0.66827189  1
  O  O18  1  0.25561456  0.45227087  0.16827276  1
  O  O19  1  0.24437618  0.45227318  0.66826658  1
  O  O20  1  0.74437487  0.54772996  0.83173051  1
  O  O21  1  0.75561613  0.54772771  0.33172698  1
  O  O22  1  0.75561563  0.95226986  0.33172725  1
  O  O23  1  0.74438033  0.95225595  0.83172819  1
