# generated using pymatgen
data_Hg3(SCl)2
_symmetry_space_group_name_H-M   'P 1'
_cell_length_a   7.85482318
_cell_length_b   7.85482208
_cell_length_c   7.85482303
_cell_angle_alpha   109.47123112
_cell_angle_beta   109.47122826
_cell_angle_gamma   109.47121210
_symmetry_Int_Tables_number   1
_chemical_formula_structural   Hg3(SCl)2
_chemical_formula_sum   'Hg6 S4 Cl4'
_cell_volume   373.06733780
_cell_formula_units_Z   2
loop_
 _symmetry_equiv_pos_site_id
 _symmetry_equiv_pos_as_xyz
  1  'x, y, z'
loop_
 _atom_site_type_symbol
 _atom_site_label
 _atom_site_symmetry_multiplicity
 _atom_site_fract_x
 _atom_site_fract_y
 _atom_site_fract_z
 _atom_site_occupancy
  Hg  Hg0  1  0.75000000  0.94863991  0.19863991  1
  Hg  Hg1  1  0.30136009  0.25000000  0.55136009  1
  Hg  Hg2  1  0.55136009  0.30136009  0.25000000  1
  Hg  Hg3  1  0.19863991  0.75000000  0.94863991  1
  Hg  Hg4  1  0.94863991  0.19863991  0.75000000  1
  Hg  Hg5  1  0.25000000  0.55136009  0.30136009  1
  S  S6  1  0.00000000  0.97069366  0.50000000  1
  S  S7  1  0.50000000  0.00000000  0.97069366  1
  S  S8  1  0.97069366  0.50000000  0.00000000  1
  S  S9  1  0.52930634  0.52930634  0.52930634  1
  Cl  Cl10  1  -0.00000000  0.48061771  0.50000000  1
  Cl  Cl11  1  0.50000000  -0.00000000  0.48061771  1
  Cl  Cl12  1  0.01938229  0.01938229  0.01938229  1
  Cl  Cl13  1  0.48061771  0.50000000  -0.00000000  1
