# generated using pymatgen
data_Hf2Ga2SiS5O24
_symmetry_space_group_name_H-M   'P 1'
_cell_length_a   8.66152865
_cell_length_b   8.74109078
_cell_length_c   22.65372714
_cell_angle_alpha   90.31757677
_cell_angle_beta   89.62740753
_cell_angle_gamma   119.88203561
_symmetry_Int_Tables_number   1
_chemical_formula_structural   Hf2Ga2SiS5O24
_chemical_formula_sum   'Hf6 Ga6 Si3 S15 O72'
_cell_volume   1487.08150777
_cell_formula_units_Z   3
loop_
 _symmetry_equiv_pos_site_id
 _symmetry_equiv_pos_as_xyz
  1  'x, y, z'
loop_
 _atom_site_type_symbol
 _atom_site_label
 _atom_site_symmetry_multiplicity
 _atom_site_fract_x
 _atom_site_fract_y
 _atom_site_fract_z
 _atom_site_occupancy
  Hf  Hf0  1  0.99660086  0.00489757  0.64634590  1
  Hf  Hf1  1  0.00632991  0.00602652  0.14056685  1
  Hf  Hf2  1  0.67322470  0.32365198  0.47555710  1
  Hf  Hf3  1  0.33608770  0.66078378  0.02163840  1
  Hf  Hf4  1  0.33731182  0.66827023  0.52244135  1
  Hf  Hf5  1  0.33922977  0.67263926  0.31000778  1
  Ga  Ga6  1  0.99339822  0.00070099  0.35355611  1
  Ga  Ga7  1  0.00286644  0.00083075  0.85154576  1
  Ga  Ga8  1  0.67828804  0.33988444  0.68903297  1
  Ga  Ga9  1  0.66110326  0.33811878  0.18598288  1
  Ga  Ga10  1  0.65581103  0.32752368  0.97735485  1
  Ga  Ga11  1  0.33086004  0.66586153  0.81483316  1
  Si  Si12  1  0.95188446  0.33932242  0.58765108  1
  Si  Si13  1  0.39746352  0.33595377  0.08256030  1
  Si  Si14  1  0.63463313  0.95432803  0.41498299  1
  S  S15  1  0.28909807  0.00869939  0.25137414  1
  S  S16  1  0.72042810  0.70443447  0.24981274  1
  S  S17  1  0.98515133  0.28472866  0.24873565  1
  S  S18  1  0.29756014  0.29534309  0.75289617  1
  S  S19  1  0.00073259  0.70737743  0.75399592  1
  S  S20  1  0.70284522  0.99708775  0.75479086  1
  S  S21  1  0.38463797  0.05118762  0.58644178  1
  S  S22  1  0.66418480  0.61307643  0.58702091  1
  S  S23  1  0.94565262  0.61030280  0.08268696  1
  S  S24  1  0.66538765  0.05500589  0.08220026  1
  S  S25  1  0.62987965  0.66973679  0.91255048  1
  S  S26  1  0.03647144  0.37173978  0.91437727  1
  S  S27  1  0.33249587  0.95844184  0.91328003  1
  S  S28  1  0.32506565  0.37138287  0.41454994  1
  S  S29  1  0.04748025  0.67820663  0.41445373  1
  O  O30  1  0.20588140  0.03694754  0.30432616  1
  O  O31  1  0.82909260  0.78940578  0.30243676  1
  O  O32  1  0.95640767  0.17579027  0.30140442  1
  O  O33  1  0.21725685  0.17968436  0.80541481  1
  O  O34  1  0.97037860  0.79267432  0.80670620  1
  O  O35  1  0.82215794  0.03332001  0.80638486  1
  O  O36  1  0.78692401  0.96440269  0.70183363  1
  O  O37  1  0.17992844  0.21081079  0.70073579  1
  O  O38  1  0.03359035  0.81959370  0.70136622  1
  O  O39  1  0.79618089  0.81551364  0.19702628  1
  O  O40  1  0.01923166  0.20239381  0.19600289  1
  O  O41  1  0.17665627  0.97888535  0.19859847  1
  O  O42  1  0.86556669  0.37085584  0.64624150  1
  O  O43  1  0.49092354  0.13046586  0.63967877  1
  O  O44  1  0.62794555  0.50394111  0.63994338  1
  O  O45  1  0.87931265  0.50196464  0.13634654  1
  O  O46  1  0.63474977  0.12883792  0.13650404  1
  O  O47  1  0.50902675  0.37326071  0.14252856  1
  O  O48  1  0.47327216  0.29625047  0.02296117  1
  O  O49  1  0.83960057  0.53455679  0.02941577  1
  O  O50  1  0.70903546  0.16524635  0.02938782  1
  O  O51  1  0.45669384  0.16124678  0.53305157  1
  O  O52  1  0.69222078  0.53686201  0.53312855  1
  O  O53  1  0.83212513  0.30322916  0.52862493  1
  O  O54  1  0.54528483  0.70157775  0.96566825  1
  O  O55  1  0.15363484  0.45618161  0.96679386  1
  O  O56  1  0.30047279  0.84631828  0.96604976  1
  O  O57  1  0.53683227  0.83309111  0.47211385  1
  O  O58  1  0.28891203  0.45009186  0.46734158  1
  O  O59  1  0.15547716  0.70054303  0.46746250  1
  O  O60  1  0.12300659  0.63443639  0.36215112  1
  O  O61  1  0.50488713  0.85762350  0.35773403  1
  O  O62  1  0.35165683  0.48286670  0.36185317  1
  O  O63  1  0.11606020  0.48734053  0.86203572  1
  O  O64  1  0.36338615  0.87370290  0.86066377  1
  O  O65  1  0.51060366  0.63303128  0.86102938  1
  O  O66  1  0.04322032  0.84075060  0.40501591  1
  O  O67  1  0.82650131  0.97436707  0.40525799  1
  O  O68  1  0.17430958  0.19485487  0.40521452  1
  O  O69  1  0.02208233  0.19746071  0.90577629  1
  O  O70  1  0.17308091  0.97787279  0.90540832  1
  O  O71  1  0.80392786  0.83271269  0.90492260  1
  O  O72  1  0.97106764  0.16372626  0.59700633  1
  O  O73  1  0.20230834  0.02441860  0.59480065  1
  O  O74  1  0.82634602  0.78869861  0.59606141  1
  O  O75  1  0.96094003  0.78570949  0.09251434  1
  O  O76  1  0.81726205  0.02277224  0.09134428  1
  O  O77  1  0.19784740  0.16480331  0.09242975  1
  O  O78  1  0.67924205  0.15049441  0.74588394  1
  O  O79  1  0.47457645  0.31396751  0.74200606  1
  O  O80  1  0.83817929  0.53351923  0.74741699  1
  O  O81  1  0.70724537  0.53082054  0.24367883  1
  O  O82  1  0.82687286  0.30272402  0.23883816  1
  O  O83  1  0.46862092  0.15960539  0.24395325  1
  O  O84  1  0.65332368  0.51587185  0.92160871  1
  O  O85  1  0.85901913  0.35327802  0.92558973  1
  O  O86  1  0.49531634  0.13261549  0.92022381  1
  O  O87  1  0.64063657  0.14252827  0.42112222  1
  O  O88  1  0.48960372  0.36574838  0.42355112  1
  O  O89  1  0.86575793  0.52628852  0.42266432  1
  O  O90  1  0.36840679  0.50581049  0.07146119  1
  O  O91  1  0.13005968  0.64235340  0.07316116  1
  O  O92  1  0.50459072  0.87952382  0.07245726  1
  O  O93  1  0.36781051  0.87698248  0.57696229  1
  O  O94  1  0.51030553  0.64014080  0.57931885  1
  O  O95  1  0.14501366  0.50715430  0.57482621  1
  O  O96  1  0.29780472  0.84270517  0.25696833  1
  O  O97  1  0.53710431  0.67910573  0.25660750  1
  O  O98  1  0.14459679  0.46084151  0.25590677  1
  O  O99  1  0.31125966  0.46956772  0.76151047  1
  O  O100  1  0.16043600  0.68807044  0.76196676  1
  O  O101  1  0.52878526  0.83364527  0.76239330  1
