# generated using pymatgen
data_TiPCl9
_symmetry_space_group_name_H-M   'P 1'
_cell_length_a   7.01037025
_cell_length_b   9.01202081
_cell_length_c   9.53006456
_cell_angle_alpha   101.26303435
_cell_angle_beta   96.02897834
_cell_angle_gamma   95.79368409
_symmetry_Int_Tables_number   1
_chemical_formula_structural   TiPCl9
_chemical_formula_sum   'Ti2 P2 Cl18'
_cell_volume   582.65351054
_cell_formula_units_Z   2
loop_
 _symmetry_equiv_pos_site_id
 _symmetry_equiv_pos_as_xyz
  1  'x, y, z'
loop_
 _atom_site_type_symbol
 _atom_site_label
 _atom_site_symmetry_multiplicity
 _atom_site_fract_x
 _atom_site_fract_y
 _atom_site_fract_z
 _atom_site_occupancy
  Ti  Ti0  1  0.38460534  0.36342129  0.32260902  1
  Ti  Ti1  1  0.61539466  0.63657871  0.67739098  1
  P  P2  1  0.05262160  0.19364277  0.77650583  1
  P  P3  1  0.94737840  0.80635723  0.22349417  1
  Cl  Cl4  1  0.93373770  0.71419527  0.75314345  1
  Cl  Cl5  1  0.83838279  0.60748804  0.11196643  1
  Cl  Cl6  1  0.37365469  0.57667033  0.22110493  1
  Cl  Cl7  1  0.62634531  0.42332967  0.77889507  1
  Cl  Cl8  1  0.41521442  0.16618051  0.44140039  1
  Cl  Cl9  1  0.58478558  0.83381949  0.55859961  1
  Cl  Cl10  1  0.06626230  0.28580473  0.24685655  1
  Cl  Cl11  1  0.48346108  0.76228520  0.86841516  1
  Cl  Cl12  1  0.51653892  0.23771480  0.13158484  1
  Cl  Cl13  1  0.29259066  0.51743704  0.54942219  1
  Cl  Cl14  1  0.15080684  0.89106639  0.12739466  1
  Cl  Cl15  1  0.70740934  0.48256296  0.45057781  1
  Cl  Cl16  1  0.94688854  0.20769267  0.58437140  1
  Cl  Cl17  1  0.05311146  0.79230733  0.41562860  1
  Cl  Cl18  1  0.25369381  0.05940873  0.76398867  1
  Cl  Cl19  1  0.74630619  0.94059127  0.23601133  1
  Cl  Cl20  1  0.84919316  0.10893361  0.87260534  1
  Cl  Cl21  1  0.16161721  0.39251196  0.88803357  1
