# generated using pymatgen
data_Sr2MgMnO4
_symmetry_space_group_name_H-M   'P 1'
_cell_length_a   3.90604751
_cell_length_b   3.90604747
_cell_length_c   9.50861843
_cell_angle_alpha   114.12495330
_cell_angle_beta   114.12496188
_cell_angle_gamma   90.01668055
_symmetry_Int_Tables_number   1
_chemical_formula_structural   Sr2MgMnO4
_chemical_formula_sum   'Sr2 Mg1 Mn1 O4'
_cell_volume   118.37489227
_cell_formula_units_Z   1
loop_
 _symmetry_equiv_pos_site_id
 _symmetry_equiv_pos_as_xyz
  1  'x, y, z'
loop_
 _atom_site_type_symbol
 _atom_site_label
 _atom_site_symmetry_multiplicity
 _atom_site_fract_x
 _atom_site_fract_y
 _atom_site_fract_z
 _atom_site_occupancy
  Sr  Sr0  1  0.68189031  0.68188931  0.32988432  1
  Sr  Sr1  1  0.51718340  0.51718440  0.66570367  1
  Mg  Mg2  1  0.24308269  0.24308269  0.89070427  1
  Mn  Mn3  1  0.92174706  0.92174706  0.07019286  1
  O  O4  1  0.98621243  0.98621243  0.63059160  1
  O  O5  1  0.19718578  0.19718578  0.34060666  1
  O  O6  1  0.80954794  0.30981939  0.95745581  1
  O  O7  1  0.30981739  0.80954694  0.95745481  1
