# generated using pymatgen
data_Na5Sc2SiSn2P5O24
_symmetry_space_group_name_H-M   'P 1'
_cell_length_a   8.98085825
_cell_length_b   8.96386897
_cell_length_c   22.65527209
_cell_angle_alpha   90.03023326
_cell_angle_beta   89.86985039
_cell_angle_gamma   120.07090476
_symmetry_Int_Tables_number   1
_chemical_formula_structural   Na5Sc2SiSn2P5O24
_chemical_formula_sum   'Na15 Sc6 Si3 Sn6 P15 O72'
_cell_volume   1578.34263076
_cell_formula_units_Z   3
loop_
 _symmetry_equiv_pos_site_id
 _symmetry_equiv_pos_as_xyz
  1  'x, y, z'
loop_
 _atom_site_type_symbol
 _atom_site_label
 _atom_site_symmetry_multiplicity
 _atom_site_fract_x
 _atom_site_fract_y
 _atom_site_fract_z
 _atom_site_occupancy
  Na  Na0  1  0.00357371  0.63848081  0.25126316  1
  Na  Na1  1  0.63104393  0.64063366  0.75145001  1
  Na  Na2  1  0.37092981  0.99765055  0.75086971  1
  Na  Na3  1  0.66315207  0.96994650  0.58495490  1
  Na  Na4  1  0.29685441  0.96849157  0.08239095  1
  Na  Na5  1  0.67560155  0.69889839  0.08167738  1
  Na  Na6  1  0.02852289  0.33220930  0.08374411  1
  Na  Na7  1  0.96690131  0.29984605  0.41595435  1
  Na  Na8  1  0.33515482  0.03407107  0.41810511  1
  Na  Na9  1  0.00382814  0.99040584  0.50087062  1
  Na  Na10  1  0.99977127  0.99578902  0.99618133  1
  Na  Na11  1  0.67772088  0.32956893  0.83801333  1
  Na  Na12  1  0.65822327  0.33560110  0.33408099  1
  Na  Na13  1  0.33995023  0.66635280  0.17142997  1
  Na  Na14  1  0.31874247  0.65585826  0.66733472  1
  Sc  Sc15  1  0.99474576  0.99550121  0.34978513  1
  Sc  Sc16  1  0.99962300  0.99838756  0.15100300  1
  Sc  Sc17  1  0.67079093  0.33951934  0.97783904  1
  Sc  Sc18  1  0.66058291  0.33650631  0.48344497  1
  Sc  Sc19  1  0.34079238  0.66664545  0.31411461  1
  Sc  Sc20  1  0.33149097  0.66567225  0.81529596  1
  Si  Si21  1  0.71121387  0.00472915  0.74907326  1
  Si  Si22  1  0.36676325  0.03641695  0.58233002  1
  Si  Si23  1  0.96132823  0.62689275  0.08281997  1
  Sn  Sn24  1  0.99800053  0.00229613  0.85307572  1
  Sn  Sn25  1  0.00406026  0.00163195  0.64745310  1
  Sn  Sn26  1  0.67043418  0.33040194  0.68341003  1
  Sn  Sn27  1  0.66605506  0.33021401  0.18462766  1
  Sn  Sn28  1  0.32987811  0.66648034  0.01283352  1
  Sn  Sn29  1  0.33160716  0.66521717  0.51894562  1
  P  P30  1  0.29891672  0.00405605  0.24999011  1
  P  P31  1  0.70341831  0.70230656  0.24808347  1
  P  P32  1  0.99724023  0.29497246  0.24966837  1
  P  P33  1  0.29135664  0.29106616  0.74951726  1
  P  P34  1  0.99756136  0.70779141  0.74980536  1
  P  P35  1  0.96273477  0.33578228  0.58197105  1
  P  P36  1  0.66642420  0.62666057  0.58449993  1
  P  P37  1  0.66459600  0.04049176  0.08190783  1
  P  P38  1  0.37650190  0.33523594  0.08233087  1
  P  P39  1  0.62957749  0.66896207  0.91549616  1
  P  P40  1  0.03949449  0.36894544  0.91622085  1
  P  P41  1  0.33034100  0.96369861  0.91470341  1
  P  P42  1  0.62756489  0.95844844  0.41751042  1
  P  P43  1  0.33377205  0.37550359  0.41632909  1
  P  P44  1  0.04115752  0.66671943  0.41529297  1
  O  O45  1  0.21457706  0.02823076  0.30570818  1
  O  O46  1  0.82369882  0.78925996  0.30110399  1
  O  O47  1  0.97445160  0.18683147  0.30526156  1
  O  O48  1  0.21582211  0.16968978  0.80362596  1
  O  O49  1  0.95905800  0.78657221  0.80458903  1
  O  O50  1  0.83233445  0.03635206  0.80598757  1
  O  O51  1  0.78914776  0.96270975  0.68926029  1
  O  O52  1  0.18199165  0.21115846  0.69398221  1
  O  O53  1  0.03798112  0.82542565  0.69500783  1
  O  O54  1  0.78519871  0.80479727  0.19087636  1
  O  O55  1  0.01768137  0.21173317  0.19316551  1
  O  O56  1  0.18824312  0.97696182  0.19426896  1
  O  O57  1  0.88452225  0.36988008  0.63804094  1
  O  O58  1  0.48916394  0.11671454  0.64186803  1
  O  O59  1  0.64000477  0.52365669  0.64290613  1
  O  O60  1  0.88727474  0.50683697  0.14359575  1
  O  O61  1  0.61823978  0.11072173  0.13820859  1
  O  O62  1  0.49099890  0.37460123  0.13859554  1
  O  O63  1  0.45633385  0.29712537  0.02962838  1
  O  O64  1  0.83106053  0.53446940  0.02929080  1
  O  O65  1  0.69563670  0.15635334  0.02927724  1
  O  O66  1  0.45574392  0.14901781  0.52360344  1
  O  O67  1  0.69401666  0.54038640  0.53137450  1
  O  O68  1  0.85209044  0.30504960  0.52684652  1
  O  O69  1  0.55008902  0.69869827  0.97412895  1
  O  O70  1  0.14413511  0.44344807  0.97585229  1
  O  O71  1  0.29890958  0.85475744  0.97346313  1
  O  O72  1  0.55146891  0.85229658  0.47573738  1
  O  O73  1  0.29612506  0.45384473  0.47248863  1
  O  O74  1  0.16065386  0.70349859  0.47029559  1
  O  O75  1  0.12354062  0.63764408  0.35989571  1
  O  O76  1  0.50673165  0.86949689  0.36550715  1
  O  O77  1  0.35697974  0.48747865  0.36274775  1
  O  O78  1  0.13439137  0.48463026  0.86414096  1
  O  O79  1  0.35041963  0.87344411  0.86047832  1
  O  O80  1  0.52107236  0.65109973  0.86123727  1
  O  O81  1  0.02937102  0.83228909  0.41048881  1
  O  O82  1  0.80996207  0.98418467  0.41131247  1
  O  O83  1  0.16960370  0.19379348  0.41168465  1
  O  O84  1  0.02788708  0.18978403  0.91315231  1
  O  O85  1  0.16322907  0.97594947  0.91091467  1
  O  O86  1  0.81096783  0.83339978  0.91314626  1
  O  O87  1  0.96838277  0.16547124  0.58850868  1
  O  O88  1  0.17691685  0.01761320  0.58784932  1
  O  O89  1  0.82433909  0.81230059  0.58828287  1
  O  O90  1  0.98735796  0.82032630  0.08942584  1
  O  O91  1  0.82464882  0.02152764  0.09009274  1
  O  O92  1  0.19346996  0.18015091  0.09063657  1
  O  O93  1  0.68440081  0.17390263  0.74554439  1
  O  O94  1  0.47569194  0.31209813  0.74349664  1
  O  O95  1  0.82755721  0.53180222  0.74250094  1
  O  O96  1  0.69455777  0.52221274  0.24470244  1
  O  O97  1  0.83188340  0.31418674  0.24677432  1
  O  O98  1  0.47993338  0.16843000  0.24446520  1
  O  O99  1  0.64322522  0.50655819  0.92070119  1
  O  O100  1  0.86145651  0.35010626  0.92146662  1
  O  O101  1  0.49037409  0.14019923  0.92112546  1
  O  O102  1  0.64518591  0.14006430  0.42211774  1
  O  O103  1  0.49152695  0.35159453  0.42133151  1
  O  O104  1  0.86558805  0.50152399  0.42280002  1
  O  O105  1  0.36244234  0.50279786  0.07618524  1
  O  O106  1  0.15539266  0.64526422  0.07680849  1
  O  O107  1  0.50253592  0.85473110  0.07587936  1
  O  O108  1  0.36050160  0.84803717  0.57863436  1
  O  O109  1  0.50460891  0.64756026  0.57903255  1
  O  O110  1  0.14579854  0.49321921  0.57746772  1
  O  O111  1  0.31040139  0.83810535  0.25480712  1
  O  O112  1  0.52515721  0.68194407  0.25440730  1
  O  O113  1  0.15361883  0.47970738  0.25417463  1
  O  O114  1  0.31643924  0.47201739  0.75624260  1
  O  O115  1  0.15689345  0.68940637  0.75639199  1
  O  O116  1  0.51894235  0.83267624  0.75436717  1
