# generated using pymatgen
data_Mg(CoO2)2
_symmetry_space_group_name_H-M   'P 1'
_cell_length_a   3.03091328
_cell_length_b   5.82618434
_cell_length_c   4.96320638
_cell_angle_alpha   118.04437999
_cell_angle_beta   89.98930788
_cell_angle_gamma   74.94514277
_symmetry_Int_Tables_number   1
_chemical_formula_structural   Mg(CoO2)2
_chemical_formula_sum   'Mg1 Co2 O4'
_cell_volume   73.92471777
_cell_formula_units_Z   1
loop_
 _symmetry_equiv_pos_site_id
 _symmetry_equiv_pos_as_xyz
  1  'x, y, z'
loop_
 _atom_site_type_symbol
 _atom_site_label
 _atom_site_symmetry_multiplicity
 _atom_site_fract_x
 _atom_site_fract_y
 _atom_site_fract_z
 _atom_site_occupancy
  Mg  Mg0  1  0.25629533  0.49106150  0.72680171  1
  Co  Co1  1  0.97173306  0.05932366  0.00710656  1
  Co  Co2  1  0.53978124  0.92281889  0.44645623  1
  O  O3  1  0.89195302  0.21952827  0.43399154  1
  O  O4  1  0.39247886  0.21797002  0.89318391  1
  O  O5  1  0.11915689  0.76415095  0.56036111  1
  O  O6  1  0.62026860  0.76264672  0.01959893  1
