# generated using pymatgen
data_MgNb2V2O8
_symmetry_space_group_name_H-M   'P 1'
_cell_length_a   7.33580254
_cell_length_b   7.33385916
_cell_length_c   7.70099751
_cell_angle_alpha   140.51190989
_cell_angle_beta   139.11439761
_cell_angle_gamma   52.83884741
_symmetry_Int_Tables_number   1
_chemical_formula_structural   MgNb2V2O8
_chemical_formula_sum   'Mg1 Nb2 V2 O8'
_cell_volume   172.24206003
_cell_formula_units_Z   1
loop_
 _symmetry_equiv_pos_site_id
 _symmetry_equiv_pos_as_xyz
  1  'x, y, z'
loop_
 _atom_site_type_symbol
 _atom_site_label
 _atom_site_symmetry_multiplicity
 _atom_site_fract_x
 _atom_site_fract_y
 _atom_site_fract_z
 _atom_site_occupancy
  Mg  Mg0  1  0.69255427  0.44252507  0.24997755  1
  Nb  Nb1  1  0.91342512  0.66367852  0.25000847  1
  Nb  Nb2  1  0.08439246  0.33430941  0.75005448  1
  V  V3  1  0.26011366  0.01019391  0.24996505  1
  V  V4  1  0.57159226  0.82154637  0.74998918  1
  O  O5  1  0.76337047  0.48574489  0.80652893  1
  O  O6  1  0.81546553  0.10556583  0.26512907  1
  O  O7  1  0.40599941  0.18033923  0.72482626  1
  O  O8  1  0.02235054  0.35696645  0.24696521  1
  O  O9  1  0.95543824  0.68117460  0.77511249  1
  O  O10  1  0.60983705  0.77553712  0.25300926  1
  O  O11  1  0.17938916  0.95671109  0.69354825  1
  O  O12  1  0.34065485  0.55029050  0.23488579  1
