# generated using pymatgen
data_Na12Ca2Ta10Si15(SO24)3
_symmetry_space_group_name_H-M   'P 1'
_cell_length_a   9.02322872
_cell_length_b   9.03109119
_cell_length_c   22.79712462
_cell_angle_alpha   90.25803826
_cell_angle_beta   89.92323037
_cell_angle_gamma   119.83581476
_symmetry_Int_Tables_number   1
_chemical_formula_structural   Na12Ca2Ta10Si15(SO24)3
_chemical_formula_sum   'Na12 Ca2 Ta10 Si15 S3 O72'
_cell_volume   1611.47806676
_cell_formula_units_Z   1
loop_
 _symmetry_equiv_pos_site_id
 _symmetry_equiv_pos_as_xyz
  1  'x, y, z'
loop_
 _atom_site_type_symbol
 _atom_site_label
 _atom_site_symmetry_multiplicity
 _atom_site_fract_x
 _atom_site_fract_y
 _atom_site_fract_z
 _atom_site_occupancy
  Na  Na0  1  0.37398373  0.36485116  0.24285174  1
  Na  Na1  1  0.99164525  0.61979588  0.24129377  1
  Na  Na2  1  0.63423510  0.62593029  0.74317735  1
  Na  Na3  1  0.37889909  0.00774444  0.74112451  1
  Na  Na4  1  0.02253632  0.67951400  0.58446056  1
  Na  Na5  1  0.65655499  0.97791801  0.58396539  1
  Na  Na6  1  0.00974095  0.00958429  0.49783181  1
  Na  Na7  1  0.00275804  0.99861359  0.00030552  1
  Na  Na8  1  0.69159345  0.33386227  0.83132813  1
  Na  Na9  1  0.66561479  0.30978058  0.33227465  1
  Na  Na10  1  0.32887283  0.66389155  0.16161350  1
  Na  Na11  1  0.32210334  0.64853694  0.66339889  1
  Ca  Ca12  1  0.68074542  0.33585125  0.68480585  1
  Ca  Ca13  1  0.66789949  0.32587380  0.18381982  1
  Ta  Ta14  1  0.00815203  0.01184428  0.35931726  1
  Ta  Ta15  1  0.98927524  0.99121541  0.85984661  1
  Ta  Ta16  1  0.99096074  0.98995032  0.64305565  1
  Ta  Ta17  1  0.02094105  0.01020345  0.14303069  1
  Ta  Ta18  1  0.66545616  0.34609531  0.97816011  1
  Ta  Ta19  1  0.66581788  0.33011109  0.47927943  1
  Ta  Ta20  1  0.32214256  0.65867706  0.01689873  1
  Ta  Ta21  1  0.33441137  0.66636099  0.51591648  1
  Ta  Ta22  1  0.32606347  0.66618042  0.31545820  1
  Ta  Ta23  1  0.33069533  0.67409672  0.81590329  1
  Si  Si24  1  0.28747890  0.99524165  0.25293823  1
  Si  Si25  1  0.00131943  0.28819348  0.25205466  1
  Si  Si26  1  0.00425298  0.71403660  0.75228133  1
  Si  Si27  1  0.70860691  0.99611199  0.75297440  1
  Si  Si28  1  0.96619758  0.33706069  0.58192232  1
  Si  Si29  1  0.37223605  0.04039837  0.58406441  1
  Si  Si30  1  0.65520118  0.61786482  0.58505510  1
  Si  Si31  1  0.96257622  0.62972701  0.08566881  1
  Si  Si32  1  0.37863939  0.34329276  0.08513885  1
  Si  Si33  1  0.61607878  0.66461944  0.91634988  1
  Si  Si34  1  0.03934030  0.37629058  0.91549477  1
  Si  Si35  1  0.33813180  0.96312291  0.91795751  1
  Si  Si36  1  0.62272756  0.95856499  0.41580265  1
  Si  Si37  1  0.34247197  0.38140075  0.41486574  1
  Si  Si38  1  0.03665046  0.66361370  0.41700852  1
  S  S39  1  0.71289955  0.72434791  0.25148393  1
  S  S40  1  0.27540662  0.28651413  0.75199006  1
  S  S41  1  0.66614528  0.03368117  0.08093712  1
  O  O42  1  0.16982395  0.99817652  0.30729109  1
  O  O43  1  0.81481235  0.80855543  0.30461002  1
  O  O44  1  0.98969652  0.16938878  0.30829768  1
  O  O45  1  0.19162418  0.18607011  0.80481529  1
  O  O46  1  0.00576225  0.83350363  0.80714399  1
  O  O47  1  0.83134003  0.00891192  0.80799203  1
  O  O48  1  0.80596810  0.97462472  0.69318223  1
  O  O49  1  0.17489507  0.20396761  0.69779954  1
  O  O50  1  0.03165343  0.83382297  0.69227890  1
  O  O51  1  0.79359555  0.82396872  0.19757372  1
  O  O52  1  0.02243860  0.18600675  0.19387886  1
  O  O53  1  0.16535500  0.96851952  0.19272605  1
  O  O54  1  0.91357411  0.40251933  0.63857488  1
  O  O55  1  0.47801246  0.08998141  0.64397793  1
  O  O56  1  0.62119572  0.53100542  0.64746492  1
  O  O57  1  0.91043043  0.53649604  0.14714980  1
  O  O58  1  0.63288008  0.09589643  0.13498587  1
  O  O59  1  0.46549929  0.37238040  0.14745013  1
  O  O60  1  0.47893774  0.31035965  0.02966451  1
  O  O61  1  0.83251256  0.51966728  0.03002804  1
  O  O62  1  0.69421757  0.14612317  0.02962740  1
  O  O63  1  0.47497845  0.16790360  0.52882105  1
  O  O64  1  0.69884992  0.52455224  0.53081125  1
  O  O65  1  0.83088171  0.29434529  0.52676647  1
  O  O66  1  0.52414026  0.69457892  0.97173451  1
  O  O67  1  0.16243034  0.46978216  0.97184490  1
  O  O68  1  0.30689475  0.83418200  0.97134922  1
  O  O69  1  0.53392886  0.84304780  0.47364893  1
  O  O70  1  0.31220553  0.47781572  0.46970001  1
  O  O71  1  0.16112964  0.69559986  0.47287293  1
  O  O72  1  0.13323501  0.63603431  0.35845949  1
  O  O73  1  0.49754524  0.85632768  0.35916354  1
  O  O74  1  0.36234417  0.49519859  0.35596774  1
  O  O75  1  0.13839923  0.50193643  0.85877430  1
  O  O76  1  0.36514430  0.86925370  0.85799953  1
  O  O77  1  0.50202751  0.63728799  0.85680530  1
  O  O78  1  0.01639107  0.83193990  0.40832418  1
  O  O79  1  0.81064344  0.97502611  0.40771706  1
  O  O80  1  0.16973927  0.19028381  0.41017679  1
  O  O81  1  0.02594863  0.19045250  0.90741137  1
  O  O82  1  0.17040283  0.98496664  0.90865323  1
  O  O83  1  0.81023224  0.83100036  0.91018878  1
  O  O84  1  0.97278035  0.15796864  0.59155395  1
  O  O85  1  0.17869724  0.01829525  0.59003309  1
  O  O86  1  0.83759059  0.81342040  0.58967261  1
  O  O87  1  0.97025495  0.81909745  0.08963404  1
  O  O88  1  0.82389049  0.01694189  0.08669625  1
  O  O89  1  0.18260476  0.16461304  0.08831701  1
  O  O90  1  0.66935662  0.14874352  0.75539089  1
  O  O91  1  0.44617845  0.30401564  0.74904737  1
  O  O92  1  0.82953301  0.53886965  0.75564736  1
  O  O93  1  0.69453422  0.55313900  0.24927228  1
  O  O94  1  0.84848030  0.32729376  0.25433278  1
  O  O95  1  0.46371209  0.16877848  0.25365521  1
  O  O96  1  0.63956826  0.49648688  0.92461062  1
  O  O97  1  0.85181867  0.35620562  0.92576603  1
  O  O98  1  0.50910150  0.14797020  0.92688164  1
  O  O99  1  0.63991608  0.14567996  0.42330553  1
  O  O100  1  0.50838342  0.35999764  0.42455423  1
  O  O101  1  0.85260173  0.49255519  0.42519794  1
  O  O102  1  0.34764008  0.50365813  0.07052955  1
  O  O103  1  0.15734567  0.66634645  0.07023814  1
  O  O104  1  0.51700368  0.85904637  0.07114460  1
  O  O105  1  0.33800831  0.84536689  0.56992715  1
  O  O106  1  0.50823899  0.66886656  0.57103234  1
  O  O107  1  0.15722059  0.49699221  0.56749543  1
  O  O108  1  0.29412770  0.81505892  0.25649667  1
  O  O109  1  0.53735085  0.70400130  0.25544046  1
  O  O110  1  0.18754079  0.47456336  0.25595054  1
  O  O111  1  0.29471393  0.46120065  0.75526850  1
  O  O112  1  0.18371023  0.70438296  0.75629753  1
  O  O113  1  0.52285344  0.80978251  0.75646655  1
