# generated using pymatgen
data_Na8La2Zr2Si5SO24
_symmetry_space_group_name_H-M   'P 1'
_cell_length_a   9.55936312
_cell_length_b   9.55367370
_cell_length_c   23.06712883
_cell_angle_alpha   90.12789794
_cell_angle_beta   89.71563976
_cell_angle_gamma   120.09741745
_symmetry_Int_Tables_number   1
_chemical_formula_structural   Na8La2Zr2Si5SO24
_chemical_formula_sum   'Na24 La6 Zr6 Si15 S3 O72'
_cell_volume   1822.59850052
_cell_formula_units_Z   3
loop_
 _symmetry_equiv_pos_site_id
 _symmetry_equiv_pos_as_xyz
  1  'x, y, z'
loop_
 _atom_site_type_symbol
 _atom_site_label
 _atom_site_symmetry_multiplicity
 _atom_site_fract_x
 _atom_site_fract_y
 _atom_site_fract_z
 _atom_site_occupancy
  Na  Na0  1  0.64913328  0.00605038  0.25379730  1
  Na  Na1  1  0.35000841  0.35986910  0.24705288  1
  Na  Na2  1  0.00090574  0.64209603  0.24964313  1
  Na  Na3  1  0.63669280  0.63429732  0.74206133  1
  Na  Na4  1  0.98860024  0.35464764  0.74548563  1
  Na  Na5  1  0.36956485  0.01374065  0.74596669  1
  Na  Na6  1  0.30050915  0.33765001  0.59273319  1
  Na  Na7  1  0.03828762  0.70391175  0.58398823  1
  Na  Na8  1  0.66622353  0.95909659  0.58467026  1
  Na  Na9  1  0.27891922  0.96466454  0.08188081  1
  Na  Na10  1  0.67114244  0.68329154  0.09511251  1
  Na  Na11  1  0.05179921  0.33961651  0.09306055  1
  Na  Na12  1  0.98475069  0.67245837  0.91143175  1
  Na  Na13  1  0.70905263  0.05304012  0.89926030  1
  Na  Na14  1  0.31331822  0.27606542  0.91571460  1
  Na  Na15  1  0.95071119  0.29738779  0.40744494  1
  Na  Na16  1  0.32955186  0.01569576  0.41470695  1
  Na  Na17  1  0.71356918  0.67988001  0.41931442  1
  Na  Na18  1  0.98273083  0.98103928  0.50433655  1
  Na  Na19  1  0.03635519  0.01603407  0.99871603  1
  Na  Na20  1  0.66859807  0.32003530  0.82826498  1
  Na  Na21  1  0.67597996  0.32965037  0.33256866  1
  Na  Na22  1  0.31879252  0.64816472  0.17042134  1
  Na  Na23  1  0.33715688  0.66646551  0.66600617  1
  La  La24  1  0.99574795  0.99502269  0.34262496  1
  La  La25  1  0.00805141  0.00552707  0.83751849  1
  La  La26  1  0.00534291  0.99930307  0.16009711  1
  La  La27  1  0.66748571  0.33495211  0.98089896  1
  La  La28  1  0.31560429  0.65704625  0.01651797  1
  La  La29  1  0.33511501  0.67560362  0.51976734  1
  Zr  Zr30  1  -0.00037140  -0.00042933  0.65008839  1
  Zr  Zr31  1  0.66773164  0.33370655  0.68271985  1
  Zr  Zr32  1  0.66483803  0.34428445  0.18475966  1
  Zr  Zr33  1  0.67726614  0.33074848  0.48688836  1
  Zr  Zr34  1  0.33071599  0.68007152  0.31845470  1
  Zr  Zr35  1  0.31853126  0.66642558  0.80969407  1
  Si  Si36  1  0.32439779  0.00413814  0.25083144  1
  Si  Si37  1  0.67297593  0.68036028  0.25102626  1
  Si  Si38  1  0.00112335  0.32435489  0.25050753  1
  Si  Si39  1  0.30993256  0.31053390  0.74828884  1
  Si  Si40  1  0.99488189  0.69155016  0.74932315  1
  Si  Si41  1  0.69084182  0.99778506  0.74894515  1
  Si  Si42  1  0.95755725  0.31854605  0.58600612  1
  Si  Si43  1  0.36759187  0.04899397  0.58457477  1
  Si  Si44  1  0.67933311  0.63098545  0.58416331  1
  Si  Si45  1  0.96579135  0.63813758  0.08330669  1
  Si  Si46  1  0.36416226  0.33206291  0.08346225  1
  Si  Si47  1  0.03185982  0.36178131  0.91243439  1
  Si  Si48  1  0.33367383  0.96625287  0.91468268  1
  Si  Si49  1  0.63802433  0.97737523  0.41942370  1
  Si  Si50  1  0.02200332  0.66005097  0.42028617  1
  S  S51  1  0.66947928  0.03510402  0.08704213  1
  S  S52  1  0.62712254  0.66836826  0.91167525  1
  S  S53  1  0.34363341  0.36833824  0.41674944  1
  O  O54  1  0.25322174  0.05458600  0.30640469  1
  O  O55  1  0.79943919  0.75462878  0.30493500  1
  O  O56  1  0.95665675  0.20278876  0.30602330  1
  O  O57  1  0.25392478  0.20803528  0.80829938  1
  O  O58  1  0.95299625  0.74845503  0.80990344  1
  O  O59  1  0.79356144  0.04045137  0.80846684  1
  O  O60  1  0.79957534  0.97348334  0.69708216  1
  O  O61  1  0.17472223  0.20238712  0.69684611  1
  O  O62  1  0.02337954  0.82538903  0.69753092  1
  O  O63  1  0.74173065  0.79943253  0.19467669  1
  O  O64  1  0.04618548  0.25110154  0.19382988  1
  O  O65  1  0.20161763  0.95288609  0.19583663  1
  O  O66  1  0.85891055  0.33393162  0.64090717  1
  O  O67  1  0.47877899  0.14822537  0.63991781  1
  O  O68  1  0.67123779  0.52251325  0.63988073  1
  O  O69  1  0.84613058  0.52076699  0.13635734  1
  O  O70  1  0.67045198  0.13584882  0.13650149  1
  O  O71  1  0.47539057  0.31943170  0.13648009  1
  O  O72  1  0.44184260  0.32040753  0.02139283  1
  O  O73  1  0.88085293  0.55627931  0.02149605  1
  O  O74  1  0.67601008  0.11710623  0.03154069  1
  O  O75  1  0.46383565  0.15612004  0.52561415  1
  O  O76  1  0.69174590  0.53500080  0.52524577  1
  O  O77  1  0.84786606  0.30633608  0.52743406  1
  O  O78  1  0.55268731  0.67410118  0.96777888  1
  O  O79  1  0.12328237  0.43782796  0.97415064  1
  O  O80  1  0.33429942  0.88351609  0.97696620  1
  O  O81  1  0.56856499  0.87388601  0.47889923  1
  O  O82  1  0.32521451  0.43984414  0.47135556  1
  O  O83  1  0.11981474  0.68052268  0.47996613  1
  O  O84  1  0.13099169  0.64853908  0.36573182  1
  O  O85  1  0.51595968  0.86678382  0.36563576  1
  O  O86  1  0.34770681  0.46846380  0.36654819  1
  O  O87  1  0.15218486  0.47881200  0.85882395  1
  O  O88  1  0.33228666  0.84718640  0.86086302  1
  O  O89  1  0.52783583  0.66964825  0.86238862  1
  O  O90  1  0.00109979  0.82015304  0.41500082  1
  O  O91  1  0.82390510  0.01331725  0.41241022  1
  O  O92  1  0.20466824  0.20152008  0.41245473  1
  O  O93  1  0.00292583  0.17746881  0.91124491  1
  O  O94  1  0.16743674  0.97763411  0.91419041  1
  O  O95  1  0.79179895  0.81153254  0.90990234  1
  O  O96  1  0.96223978  0.14833374  0.58849056  1
  O  O97  1  0.18872910  0.03709809  0.58849511  1
  O  O98  1  0.84661094  0.81061351  0.58767727  1
  O  O99  1  0.97945862  0.81663903  0.08594554  1
  O  O100  1  0.81420311  0.01662060  0.08888231  1
  O  O101  1  0.17880206  0.17660440  0.08629036  1
  O  O102  1  0.65909524  0.15089650  0.73922888  1
  O  O103  1  0.49374573  0.34174848  0.73765674  1
  O  O104  1  0.84727561  0.50588987  0.73910591  1
  O  O105  1  0.64660168  0.49686469  0.24135573  1
  O  O106  1  0.84398465  0.34965771  0.24147088  1
  O  O107  1  0.51021604  0.15140023  0.24024572  1
  O  O108  1  0.63465733  0.51676093  0.90769075  1
  O  O109  1  0.86128746  0.36408153  0.90627405  1
  O  O110  1  0.49926540  0.14330476  0.90637679  1
  O  O111  1  0.63436923  0.15076091  0.41992162  1
  O  O112  1  0.49860293  0.36571136  0.41670916  1
  O  O113  1  0.84289233  0.48916893  0.41933694  1
  O  O114  1  0.37004021  0.50646586  0.09204572  1
  O  O115  1  0.14340443  0.65160239  0.09242693  1
  O  O116  1  0.52050225  0.87447023  0.09074247  1
  O  O117  1  0.34692831  0.86768005  0.58666183  1
  O  O118  1  0.51687647  0.64757772  0.58584577  1
  O  O119  1  0.14005800  0.47497366  0.58562400  1
  O  O120  1  0.34192181  0.84223834  0.26131365  1
  O  O121  1  0.49115633  0.64945142  0.26493477  1
  O  O122  1  0.16093794  0.50434042  0.26136538  1
  O  O123  1  0.32026515  0.48855936  0.75101171  1
  O  O124  1  0.16596682  0.68464492  0.75116683  1
  O  O125  1  0.51437843  0.82766039  0.75239363  1
