# generated using pymatgen
data_Na6ScNb3(SiO4)6
_symmetry_space_group_name_H-M   'P 1'
_cell_length_a   15.83157985
_cell_length_b   9.08549431
_cell_length_c   9.09755083
_cell_angle_alpha   90.65102981
_cell_angle_beta   125.02520761
_cell_angle_gamma   89.53145830
_symmetry_Int_Tables_number   1
_chemical_formula_structural   Na6ScNb3(SiO4)6
_chemical_formula_sum   'Na12 Sc2 Nb6 Si12 O48'
_cell_volume   1071.51696208
_cell_formula_units_Z   2
loop_
 _symmetry_equiv_pos_site_id
 _symmetry_equiv_pos_as_xyz
  1  'x, y, z'
loop_
 _atom_site_type_symbol
 _atom_site_label
 _atom_site_symmetry_multiplicity
 _atom_site_fract_x
 _atom_site_fract_y
 _atom_site_fract_z
 _atom_site_occupancy
  Na  Na0  1  0.25035229  0.75024936  0.99917828  1
  Na  Na1  1  0.74584032  0.74856224  0.48702088  1
  Na  Na2  1  0.75035229  0.25024936  0.99917828  1
  Na  Na3  1  0.24584032  0.24856224  0.48702088  1
  Na  Na4  1  0.50377496  0.08403236  0.76075201  1
  Na  Na5  1  0.50150238  0.89531981  0.23747313  1
  Na  Na6  1  0.00377496  0.58403236  0.76075201  1
  Na  Na7  1  0.00150238  0.39531981  0.23747313  1
  Na  Na8  1  0.80718359  0.92441385  0.20539122  1
  Na  Na9  1  0.18305086  0.07838789  0.80412304  1
  Na  Na10  1  0.30718359  0.42441385  0.20539122  1
  Na  Na11  1  0.68305086  0.57838789  0.80412304  1
  Sc  Sc12  1  0.10455169  0.24549976  0.06826120  1
  Sc  Sc13  1  0.60455169  0.74549976  0.06826120  1
  Nb  Nb14  1  0.10579347  0.75128970  0.56323832  1
  Nb  Nb15  1  0.89488588  0.75333769  0.92933488  1
  Nb  Nb16  1  0.89319910  0.24923476  0.43581615  1
  Nb  Nb17  1  0.60579347  0.25128970  0.56323832  1
  Nb  Nb18  1  0.39488588  0.25333769  0.92933488  1
  Nb  Nb19  1  0.39319910  0.74923476  0.43581615  1
  Si  Si20  1  0.99716409  0.95921790  0.74828011  1
  Si  Si21  1  0.00204163  0.04310266  0.25386637  1
  Si  Si22  1  0.49716409  0.45921790  0.74828011  1
  Si  Si23  1  0.50204163  0.54310266  0.25386637  1
  Si  Si24  1  0.35495770  0.89257111  0.76010228  1
  Si  Si25  1  0.64741055  0.89612515  0.74952331  1
  Si  Si26  1  0.64688343  0.11106501  0.24522025  1
  Si  Si27  1  0.35519462  0.10203329  0.25208157  1
  Si  Si28  1  0.85495770  0.39257111  0.76010228  1
  Si  Si29  1  0.14741055  0.39612515  0.74952331  1
  Si  Si30  1  0.14688343  0.61106501  0.24522025  1
  Si  Si31  1  0.85519462  0.60203329  0.25208157  1
  O  O32  1  0.15074680  0.57502232  0.73213163  1
  O  O33  1  0.84845900  0.57510312  0.75615723  1
  O  O34  1  0.85542032  0.42132909  0.25962030  1
  O  O35  1  0.15576064  0.43413425  0.25034680  1
  O  O36  1  0.65074680  0.07502232  0.73213163  1
  O  O37  1  0.34845900  0.07510312  0.75615723  1
  O  O38  1  0.35542032  0.92132909  0.25962030  1
  O  O39  1  0.65576064  0.93413425  0.25034680  1
  O  O40  1  0.42906149  0.56357535  0.56687034  1
  O  O41  1  0.57253494  0.56313146  0.91761480  1
  O  O42  1  0.56114391  0.43465737  0.42931432  1
  O  O43  1  0.43447168  0.42723627  0.08002339  1
  O  O44  1  0.92906149  0.06357535  0.56687034  1
  O  O45  1  0.07253494  0.06313146  0.91761480  1
  O  O46  1  0.06114391  0.93465737  0.42931432  1
  O  O47  1  0.93447168  0.92723627  0.08002339  1
  O  O48  1  0.25117774  0.83341704  0.73971421  1
  O  O49  1  0.74287000  0.81264206  0.75858395  1
  O  O50  1  0.74413046  0.18519410  0.25521908  1
  O  O51  1  0.26491962  0.18665599  0.24943709  1
  O  O52  1  0.75117774  0.33341704  0.73971421  1
  O  O53  1  0.24287000  0.31264206  0.75858395  1
  O  O54  1  0.24413046  0.68519410  0.25521908  1
  O  O55  1  0.76491962  0.68665599  0.24943709  1
  O  O56  1  0.36063019  0.85037168  0.58610714  1
  O  O57  1  0.65048373  0.86713617  0.92720598  1
  O  O58  1  0.64329024  0.16275480  0.41584021  1
  O  O59  1  0.35447969  0.14149818  0.07234851  1
  O  O60  1  0.86063019  0.35037168  0.58610714  1
  O  O61  1  0.15048373  0.36713617  0.92720598  1
  O  O62  1  0.14329024  0.66275480  0.41584021  1
  O  O63  1  0.85447969  0.64149818  0.07234851  1
  O  O64  1  0.45854831  0.83680138  0.94115999  1
  O  O65  1  0.53833078  0.82568845  0.57279862  1
  O  O66  1  0.53658463  0.17011749  0.06374811  1
  O  O67  1  0.46734665  0.16061794  0.42680029  1
  O  O68  1  0.95854831  0.33680138  0.94115999  1
  O  O69  1  0.03833078  0.32568845  0.57279862  1
  O  O70  1  0.03658463  0.67011749  0.06374811  1
  O  O71  1  0.96734665  0.66061794  0.42680029  1
  O  O72  1  0.07485169  0.84814701  0.73214792  1
  O  O73  1  0.91788573  0.85066135  0.75764950  1
  O  O74  1  0.91283560  0.13667476  0.25611340  1
  O  O75  1  0.08024960  0.15298980  0.25338418  1
  O  O76  1  0.57485169  0.34814701  0.73214792  1
  O  O77  1  0.41788573  0.35066135  0.75764950  1
  O  O78  1  0.41283560  0.63667476  0.25611340  1
  O  O79  1  0.58024960  0.65298980  0.25338418  1
