# generated using pymatgen
data_Na8Ca2In2Si3(SO8)3
_symmetry_space_group_name_H-M   'P 1'
_cell_length_a   9.49779822
_cell_length_b   9.41972203
_cell_length_c   22.76278770
_cell_angle_alpha   91.77667272
_cell_angle_beta   90.20712336
_cell_angle_gamma   120.11057627
_symmetry_Int_Tables_number   1
_chemical_formula_structural   Na8Ca2In2Si3(SO8)3
_chemical_formula_sum   'Na24 Ca6 In6 Si9 S9 O72'
_cell_volume   1760.42098486
_cell_formula_units_Z   3
loop_
 _symmetry_equiv_pos_site_id
 _symmetry_equiv_pos_as_xyz
  1  'x, y, z'
loop_
 _atom_site_type_symbol
 _atom_site_label
 _atom_site_symmetry_multiplicity
 _atom_site_fract_x
 _atom_site_fract_y
 _atom_site_fract_z
 _atom_site_occupancy
  Na  Na0  1  0.64037187  0.01933007  0.26563994  1
  Na  Na1  1  0.34523721  0.33551899  0.25827106  1
  Na  Na2  1  0.00568230  0.62912463  0.23939469  1
  Na  Na3  1  0.62280385  0.63269295  0.72682058  1
  Na  Na4  1  0.99151468  0.34429445  0.73105717  1
  Na  Na5  1  0.38316493  0.02437816  0.74970420  1
  Na  Na6  1  0.30276824  0.34850944  0.59752491  1
  Na  Na7  1  0.01382026  0.67258935  0.58957881  1
  Na  Na8  1  0.67332683  0.96137753  0.57842560  1
  Na  Na9  1  0.28073930  0.94730903  0.08322744  1
  Na  Na10  1  0.68271308  0.69714858  0.08028572  1
  Na  Na11  1  0.02788282  0.34972737  0.10040638  1
  Na  Na12  1  0.99054156  0.68939984  0.91823811  1
  Na  Na13  1  0.67530646  0.02847208  0.89501199  1
  Na  Na14  1  0.33589537  0.28317955  0.90045057  1
  Na  Na15  1  0.94896550  0.28057170  0.41988944  1
  Na  Na16  1  0.34380873  0.03376206  0.40271536  1
  Na  Na17  1  0.69208376  0.68482661  0.43776088  1
  Na  Na18  1  0.97023327  0.99733235  0.50651132  1
  Na  Na19  1  0.02177834  0.98998976  0.99874860  1
  Na  Na20  1  0.64534267  0.32093658  0.82205259  1
  Na  Na21  1  0.66889108  0.31022958  0.33265896  1
  Na  Na22  1  0.30264842  0.66341736  0.17203581  1
  Na  Na23  1  0.34617611  0.65614642  0.66324344  1
  Ca  Ca24  1  -0.00217644  0.00154098  0.34868850  1
  Ca  Ca25  1  0.00129022  0.00604623  0.84467413  1
  Ca  Ca26  1  0.66769821  0.33174059  0.68161288  1
  Ca  Ca27  1  0.66969124  0.32855065  0.18488754  1
  Ca  Ca28  1  0.32622297  0.67311646  0.01500732  1
  Ca  Ca29  1  0.33835335  0.66720348  0.51796499  1
  In  In30  1  0.98848119  0.01020779  0.65200866  1
  In  In31  1  0.01345347  0.00037899  0.15710817  1
  In  In32  1  0.67093186  0.33602760  0.98458442  1
  In  In33  1  0.67834997  0.33042771  0.49067018  1
  In  In34  1  0.33474548  0.67855132  0.31585008  1
  In  In35  1  0.34478355  0.68228674  0.81318988  1
  Si  Si36  1  0.30645397  0.99454503  0.25187611  1
  Si  Si37  1  0.00848751  0.30711894  0.25167578  1
  Si  Si38  1  0.30252642  0.30942962  0.75435898  1
  Si  Si39  1  0.68751591  0.99260270  0.75280541  1
  Si  Si40  1  0.97709142  0.33140010  0.58436004  1
  Si  Si41  1  0.67635735  0.64023417  0.58427129  1
  Si  Si42  1  0.96467922  0.64062876  0.08542228  1
  Si  Si43  1  0.33805538  0.97621815  0.92340393  1
  Si  Si44  1  0.63424858  0.97534720  0.41962099  1
  S  S45  1  0.68982451  0.70103977  0.24728696  1
  S  S46  1  0.00720971  0.69974348  0.75245564  1
  S  S47  1  0.35401739  0.03456999  0.58161471  1
  S  S48  1  0.67928177  0.03115164  0.08118291  1
  S  S49  1  0.36230720  0.33033955  0.08214999  1
  S  S50  1  0.63467649  0.65868212  0.91994088  1
  S  S51  1  0.02355281  0.36427557  0.91908860  1
  S  S52  1  0.34470530  0.36939214  0.41345797  1
  S  S53  1  0.02478922  0.65856664  0.41526051  1
  O  O54  1  0.21380020  0.00647067  0.30949389  1
  O  O55  1  0.78840218  0.78057875  0.30029518  1
  O  O56  1  0.97756033  0.19286202  0.30662210  1
  O  O57  1  0.22561101  0.20486959  0.81241853  1
  O  O58  1  0.00074939  0.77739874  0.80913818  1
  O  O59  1  0.77710539  -0.00491865  0.81391976  1
  O  O60  1  0.78023052  0.96442655  0.69615463  1
  O  O61  1  0.18717794  0.21212747  0.69505100  1
  O  O62  1  0.02156399  0.80123995  0.70155090  1
  O  O63  1  0.77046734  0.79655357  0.19347891  1
  O  O64  1  0.03019925  0.21837047  0.18872604  1
  O  O65  1  0.19997933  0.97113590  0.18958046  1
  O  O66  1  0.88499831  0.34563872  0.64168740  1
  O  O67  1  0.45165194  0.11230646  0.63532037  1
  O  O68  1  0.64974593  0.52929056  0.63986776  1
  O  O69  1  0.87435551  0.53539893  0.14157070  1
  O  O70  1  0.65480172  0.10823816  0.13432615  1
  O  O71  1  0.45253755  0.33830353  0.13578818  1
  O  O72  1  0.44673654  0.31674500  0.02826879  1
  O  O73  1  0.84901892  0.55435799  0.02352115  1
  O  O74  1  0.68831792  0.12587439  0.02805568  1
  O  O75  1  0.43653125  0.13147741  0.52854909  1
  O  O76  1  0.69241505  0.54673287  0.52183785  1
  O  O77  1  0.86940719  0.30715455  0.52252759  1
  O  O78  1  0.55833372  0.66607334  0.97568986  1
  O  O79  1  0.11263011  0.44169742  0.97501940  1
  O  O80  1  0.32398507  0.88619648  0.98437833  1
  O  O81  1  0.54615176  0.87017357  0.47587768  1
  O  O82  1  0.33405995  0.45606323  0.46627266  1
  O  O83  1  0.11873333  0.66806259  0.46790831  1
  O  O84  1  0.10697033  0.64523843  0.36064219  1
  O  O85  1  0.52250370  0.88810170  0.35748626  1
  O  O86  1  0.35084180  0.45988081  0.35924556  1
  O  O87  1  0.11126162  0.46426162  0.86831653  1
  O  O88  1  0.36637148  0.87802175  0.86623994  1
  O  O89  1  0.53188257  0.64733197  0.86868722  1
  O  O90  1  0.00617788  0.80646347  0.41432907  1
  O  O91  1  0.81634014  0.99579735  0.41727131  1
  O  O92  1  0.20090295  0.20086618  0.41203178  1
  O  O93  1  -0.00362129  0.19515092  0.91545860  1
  O  O94  1  0.17596014  0.99425213  0.91721849  1
  O  O95  1  0.80160423  0.80367880  0.91806982  1
  O  O96  1  0.99495103  0.16496791  0.58338490  1
  O  O97  1  0.19275309  0.02484118  0.58395437  1
  O  O98  1  0.85589519  0.81574819  0.58596286  1
  O  O99  1  0.97837699  0.82710093  0.08570767  1
  O  O100  1  0.83602822  0.02894725  0.08391713  1
  O  O101  1  0.19507127  0.18091073  0.08037568  1
  O  O102  1  0.67141856  0.15741152  0.75043896  1
  O  O103  1  0.48888587  0.34607363  0.74927630  1
  O  O104  1  0.86059988  0.53474533  0.74819929  1
  O  O105  1  0.66149720  0.53113931  0.24240207  1
  O  O106  1  0.85851820  0.34460179  0.24774305  1
  O  O107  1  0.48822872  0.15875260  0.25104934  1
  O  O108  1  0.64745429  0.50451899  0.91630099  1
  O  O109  1  0.85884840  0.35497764  0.91859981  1
  O  O110  1  0.51059587  0.16347541  0.92154289  1
  O  O111  1  0.64351246  0.16007825  0.41934046  1
  O  O112  1  0.49702552  0.35881283  0.41409616  1
  O  O113  1  0.85868892  0.50805414  0.41412275  1
  O  O114  1  0.34743766  0.48051836  0.08021798  1
  O  O115  1  0.14575762  0.65770261  0.08351849  1
  O  O116  1  0.54287740  0.85787043  0.07676035  1
  O  O117  1  0.32670523  0.86481025  0.57663818  1
  O  O118  1  0.52540129  0.67648424  0.58150545  1
  O  O119  1  0.15837678  0.49589088  0.58340278  1
  O  O120  1  0.32177387  0.82643879  0.24952067  1
  O  O121  1  0.52836979  0.69203011  0.24930540  1
  O  O122  1  0.18723090  0.48402409  0.25404020  1
  O  O123  1  0.29847483  0.48592219  0.75578035  1
  O  O124  1  0.15635557  0.68285349  0.75159353  1
  O  O125  1  0.49913332  0.82872304  0.74727529  1
