# generated using pymatgen
data_Na8Mg3Si3Sn(SO8)3
_symmetry_space_group_name_H-M   'P 1'
_cell_length_a   9.11780820
_cell_length_b   9.12250126
_cell_length_c   22.22755349
_cell_angle_alpha   89.83613947
_cell_angle_beta   89.60206223
_cell_angle_gamma   119.89661696
_symmetry_Int_Tables_number   1
_chemical_formula_structural   Na8Mg3Si3Sn(SO8)3
_chemical_formula_sum   'Na24 Mg9 Si9 Sn3 S9 O72'
_cell_volume   1602.71442142
_cell_formula_units_Z   3
loop_
 _symmetry_equiv_pos_site_id
 _symmetry_equiv_pos_as_xyz
  1  'x, y, z'
loop_
 _atom_site_type_symbol
 _atom_site_label
 _atom_site_symmetry_multiplicity
 _atom_site_fract_x
 _atom_site_fract_y
 _atom_site_fract_z
 _atom_site_occupancy
  Na  Na0  1  0.63015949  0.99575134  0.25885517  1
  Na  Na1  1  0.36919202  0.36753526  0.24451294  1
  Na  Na2  1  0.00123034  0.62744245  0.25210890  1
  Na  Na3  1  0.64396424  0.64749953  0.73466501  1
  Na  Na4  1  0.98352199  0.34776303  0.75095929  1
  Na  Na5  1  0.38574435  0.01142323  0.74114246  1
  Na  Na6  1  0.31443516  0.33192487  0.58339231  1
  Na  Na7  1  0.03952852  0.71569388  0.57436946  1
  Na  Na8  1  0.65259021  0.94661477  0.58378909  1
  Na  Na9  1  0.28371246  0.95962737  0.07622584  1
  Na  Na10  1  0.66632459  0.68449259  0.08506627  1
  Na  Na11  1  0.05266681  0.34942164  0.08082119  1
  Na  Na12  1  0.98594520  0.67514867  0.92162436  1
  Na  Na13  1  0.70702653  0.04088932  0.90716383  1
  Na  Na14  1  0.31281391  0.28507845  0.92283059  1
  Na  Na15  1  0.96518613  0.30268175  0.41442024  1
  Na  Na16  1  0.32749361  0.00802533  0.42339782  1
  Na  Na17  1  0.71150234  0.68760528  0.42607409  1
  Na  Na18  1  0.99073980  0.97848314  0.50148845  1
  Na  Na19  1  0.02057069  0.00955024  0.00082945  1
  Na  Na20  1  0.66801300  0.31513481  0.83105399  1
  Na  Na21  1  0.67686647  0.33278141  0.33862701  1
  Na  Na22  1  0.32095904  0.65380886  0.15940718  1
  Na  Na23  1  0.35379487  0.68422862  0.65734787  1
  Mg  Mg24  1  0.99536110  0.99161976  0.35502768  1
  Mg  Mg25  1  0.00073185  0.01047343  0.85226130  1
  Mg  Mg26  1  0.98255032  0.98400837  0.64483777  1
  Mg  Mg27  1  0.00889228  0.99978322  0.14503101  1
  Mg  Mg28  1  0.65914517  0.32216288  0.67937277  1
  Mg  Mg29  1  0.66612746  0.34090958  0.17773104  1
  Mg  Mg30  1  0.31433682  0.65777627  0.01900584  1
  Mg  Mg31  1  0.34477654  0.68856667  0.51736757  1
  Mg  Mg32  1  0.33159521  0.67939069  0.32886654  1
  Si  Si33  1  0.70692537  0.00145525  0.75176013  1
  Si  Si34  1  0.36451448  0.03487632  0.58677785  1
  Si  Si35  1  0.66218175  0.62560662  0.58589445  1
  Si  Si36  1  0.96327749  0.63032048  0.08668385  1
  Si  Si37  1  0.36985274  0.33750150  0.08606205  1
  Si  Si38  1  0.03879225  0.36943103  0.91867588  1
  Si  Si39  1  0.33337716  0.96649998  0.92010493  1
  Si  Si40  1  0.63410271  0.96599473  0.41565277  1
  Si  Si41  1  0.03621098  0.66346172  0.41633297  1
  Sn  Sn42  1  0.66699153  0.33308145  0.98468223  1
  Sn  Sn43  1  0.66496007  0.33177963  0.48478393  1
  Sn  Sn44  1  0.33372716  0.67935251  0.81931278  1
  S  S45  1  0.29495350  0.00089667  0.24927399  1
  S  S46  1  0.70539966  0.70617882  0.25000430  1
  S  S47  1  0.00010535  0.28983138  0.24917003  1
  S  S48  1  0.29375939  0.29550481  0.75147713  1
  S  S49  1  -0.00004708  0.70742840  0.75129055  1
  S  S50  1  0.96426471  0.33369898  0.58542817  1
  S  S51  1  0.66796216  0.03819709  0.08628315  1
  S  S52  1  0.62724431  0.66738516  0.91744270  1
  S  S53  1  0.33148071  0.37432875  0.41425310  1
  O  O54  1  0.21538793  0.02741064  0.30327760  1
  O  O55  1  0.80959116  0.78939212  0.30318124  1
  O  O56  1  0.98241892  0.18829593  0.30352986  1
  O  O57  1  0.21389124  0.19201084  0.80603374  1
  O  O58  1  0.98119558  0.78596111  0.80658790  1
  O  O59  1  0.81278958  0.02081196  0.81218956  1
  O  O60  1  0.78744989  0.96400891  0.69278959  1
  O  O61  1  0.19204993  0.21967116  0.69755935  1
  O  O62  1  0.02891199  0.81305620  0.69763413  1
  O  O63  1  0.78481628  0.81077876  0.19526991  1
  O  O64  1  0.01756086  0.20575722  0.19472712  1
  O  O65  1  0.19179240  0.98032131  0.19548130  1
  O  O66  1  0.88308475  0.36272257  0.63828599  1
  O  O67  1  0.48740236  0.11936228  0.64358595  1
  O  O68  1  0.64194722  0.51186803  0.64511422  1
  O  O69  1  0.87734025  0.50522941  0.14375778  1
  O  O70  1  0.63806110  0.11949862  0.13848525  1
  O  O71  1  0.48345401  0.36153094  0.14486828  1
  O  O72  1  0.45275122  0.29246980  0.02491607  1
  O  O73  1  0.84150275  0.54565701  0.02435151  1
  O  O74  1  0.70364542  0.14528959  0.02975408  1
  O  O75  1  0.45000029  0.15682426  0.52426298  1
  O  O76  1  0.70233771  0.54207406  0.52450788  1
  O  O77  1  0.85665880  0.29942596  0.52977109  1
  O  O78  1  0.54649327  0.69231980  0.97061081  1
  O  O79  1  0.16000114  0.45738796  0.97430759  1
  O  O80  1  0.31195237  0.84974567  0.97700336  1
  O  O81  1  0.55052673  0.84354746  0.47301804  1
  O  O82  1  0.30508702  0.44887692  0.46890887  1
  O  O83  1  0.15081379  0.68582232  0.47434897  1
  O  O84  1  0.10479925  0.61827727  0.35446781  1
  O  O85  1  0.52065417  0.89363696  0.35448915  1
  O  O86  1  0.35877860  0.48004022  0.35958443  1
  O  O87  1  0.11966791  0.49102219  0.85541706  1
  O  O88  1  0.38117148  0.89509544  0.85749446  1
  O  O89  1  0.51941738  0.63397105  0.86187223  1
  O  O90  1  0.01969256  0.83445572  0.41030292  1
  O  O91  1  0.82839268  0.00303192  0.40883546  1
  O  O92  1  0.18374139  0.20248523  0.40694902  1
  O  O93  1  0.01032160  0.18043370  0.91223669  1
  O  O94  1  0.16361811  0.98031694  0.91056354  1
  O  O95  1  0.79687134  0.81265470  0.90960142  1
  O  O96  1  0.98140365  0.18194505  0.59162838  1
  O  O97  1  0.18187002  0.02855389  0.59059061  1
  O  O98  1  0.83008232  0.81426363  0.58508966  1
  O  O99  1  0.96986612  0.81331380  0.08873849  1
  O  O100  1  0.82098982  0.02255061  0.09255371  1
  O  O101  1  0.17964310  0.17141640  0.08804244  1
  O  O102  1  0.68331864  0.16953036  0.74754636  1
  O  O103  1  0.46749707  0.32094811  0.74783142  1
  O  O104  1  0.85056594  0.53529358  0.74666519  1
  O  O105  1  0.68977132  0.53430225  0.24653439  1
  O  O106  1  0.84349711  0.30580875  0.24669099  1
  O  O107  1  0.46991470  0.15243935  0.24411849  1
  O  O108  1  0.64038810  0.50942408  0.92000077  1
  O  O109  1  0.84923548  0.35959615  0.92148824  1
  O  O110  1  0.50815664  0.15966988  0.92158717  1
  O  O111  1  0.64408112  0.15620252  0.42240995  1
  O  O112  1  0.48828972  0.35829736  0.41732346  1
  O  O113  1  0.83913935  0.49222655  0.42138542  1
  O  O114  1  0.36665752  0.51394854  0.07811658  1
  O  O115  1  0.15293536  0.65665834  0.08111922  1
  O  O116  1  0.51837579  0.87020635  0.07859299  1
  O  O117  1  0.34085174  0.84652962  0.58017952  1
  O  O118  1  0.48630616  0.63078483  0.57861305  1
  O  O119  1  0.13212307  0.48411784  0.57707767  1
  O  O120  1  0.31059174  0.84516454  0.25312519  1
  O  O121  1  0.53085697  0.68302121  0.25512511  1
  O  O122  1  0.15475430  0.46151483  0.25132549  1
  O  O123  1  0.30848627  0.46949513  0.75692454  1
  O  O124  1  0.15716349  0.68731063  0.75374882  1
  O  O125  1  0.50761003  0.81680769  0.75487114  1
