# generated using pymatgen
data_MgFe12(OF)12
_symmetry_space_group_name_H-M   'P 1'
_cell_length_a   9.70505041
_cell_length_b   14.55324239
_cell_length_c   3.13226000
_cell_angle_alpha   90.00000000
_cell_angle_beta   90.00000000
_cell_angle_gamma   94.34762173
_symmetry_Int_Tables_number   1
_chemical_formula_structural   MgFe12(OF)12
_chemical_formula_sum   'Mg1 Fe12 O12 F12'
_cell_volume   441.12722909
_cell_formula_units_Z   1
loop_
 _symmetry_equiv_pos_site_id
 _symmetry_equiv_pos_as_xyz
  1  'x, y, z'
loop_
 _atom_site_type_symbol
 _atom_site_label
 _atom_site_symmetry_multiplicity
 _atom_site_fract_x
 _atom_site_fract_y
 _atom_site_fract_z
 _atom_site_occupancy
  Mg  Mg0  1  0.74579900  0.31365400  0.00000000  1
  Fe  Fe1  1  0.03868900  0.99548200  0.00000000  1
  Fe  Fe2  1  0.05248800  0.31018200  0.00000000  1
  Fe  Fe3  1  0.98745500  0.67496900  0.00000000  1
  Fe  Fe4  1  0.26071200  0.16098500  0.50000000  1
  Fe  Fe5  1  0.21453000  0.49851500  0.50000000  1
  Fe  Fe6  1  0.26174200  0.85231100  0.50000000  1
  Fe  Fe7  1  0.46016200  0.37467500  0.00000000  1
  Fe  Fe8  1  0.51594600  0.99551700  0.00000000  1
  Fe  Fe9  1  0.49590900  0.67645100  0.00000000  1
  Fe  Fe10  1  0.75710400  0.08032300  0.50000000  1
  Fe  Fe11  1  0.69716900  0.51965600  0.50000000  1
  Fe  Fe12  1  0.73058200  0.83491200  0.50000000  1
  O  O13  1  0.13933300  0.26499300  0.50000000  1
  O  O14  1  0.11452600  0.92992500  0.50000000  1
  O  O15  1  0.18725100  0.10077800  0.00000000  1
  O  O16  1  0.12738300  0.43763200  0.00000000  1
  O  O17  1  0.36588300  0.90149900  0.00000000  1
  O  O18  1  0.37473400  0.41811200  0.50000000  1
  O  O19  1  0.63072800  0.95502400  0.50000000  1
  O  O20  1  0.56205800  0.61616200  0.50000000  1
  O  O21  1  0.65692500  0.10545000  0.00000000  1
  O  O22  1  0.64233300  0.42889900  0.00000000  1
  O  O23  1  0.63493900  0.78192900  0.00000000  1
  O  O24  1  0.93641500  0.04894400  0.50000000  1
  F  F25  1  0.08533800  0.60275000  0.50000000  1
  F  F26  1  0.15558500  0.77090500  0.00000000  1
  F  F27  1  0.38129200  0.24124600  0.00000000  1
  F  F28  1  0.31438500  0.57667200  0.00000000  1
  F  F29  1  0.42075900  0.06909300  0.50000000  1
  F  F30  1  0.38122000  0.73724700  0.50000000  1
  F  F31  1  0.62924200  0.27671000  0.50000000  1
  F  F32  1  0.88538200  0.22273300  0.00000000  1
  F  F33  1  0.85322800  0.89337100  0.00000000  1
  F  F34  1  0.83111100  0.57443300  0.00000000  1
  F  F35  1  0.88859600  0.36368000  0.50000000  1
  F  F36  1  0.88306900  0.74139900  0.50000000  1
