# generated using pymatgen
data_MgTi2O5
_symmetry_space_group_name_H-M   'P 1'
_cell_length_a   3.74069933
_cell_length_b   5.21434758
_cell_length_c   10.00066454
_cell_angle_alpha   90.00000000
_cell_angle_beta   90.00000000
_cell_angle_gamma   111.01995265
_symmetry_Int_Tables_number   1
_chemical_formula_structural   MgTi2O5
_chemical_formula_sum   'Mg2 Ti4 O10'
_cell_volume   182.08546975
_cell_formula_units_Z   2
loop_
 _symmetry_equiv_pos_site_id
 _symmetry_equiv_pos_as_xyz
  1  'x, y, z'
loop_
 _atom_site_type_symbol
 _atom_site_label
 _atom_site_symmetry_multiplicity
 _atom_site_fract_x
 _atom_site_fract_y
 _atom_site_fract_z
 _atom_site_occupancy
  Mg  Mg0  1  0.19642107  0.39284214  0.75000000  1
  Mg  Mg1  1  0.80357893  0.60715786  0.25000000  1
  Ti  Ti2  1  0.86667016  0.73334033  0.56672290  1
  Ti  Ti3  1  0.13332984  0.26665967  0.43327710  1
  Ti  Ti4  1  0.86667016  0.73334033  0.93327710  1
  Ti  Ti5  1  0.13332984  0.26665967  0.06672290  1
  O  O6  1  0.31335091  0.62670081  0.56208557  1
  O  O7  1  0.68664909  0.37329919  0.43791443  1
  O  O8  1  0.68664909  0.37329919  0.06208557  1
  O  O9  1  0.31335091  0.62670081  0.93791443  1
  O  O10  1  0.04691124  0.09382148  0.61324876  1
  O  O11  1  0.95308876  0.90617852  0.38675124  1
  O  O12  1  0.78317016  0.56634031  0.75000000  1
  O  O13  1  0.21682984  0.43365969  0.25000000  1
  O  O14  1  0.04691124  0.09382148  0.88675124  1
  O  O15  1  0.95308876  0.90617852  0.11324876  1
