# generated using pymatgen
data_YGa(SO4)3
_symmetry_space_group_name_H-M   'P 1'
_cell_length_a   8.80445480
_cell_length_b   8.80445452
_cell_length_c   23.07881749
_cell_angle_alpha   90.00000000
_cell_angle_beta   90.00000000
_cell_angle_gamma   120.00000105
_symmetry_Int_Tables_number   1
_chemical_formula_structural   YGa(SO4)3
_chemical_formula_sum   'Y6 Ga6 S18 O72'
_cell_volume   1549.34845166
_cell_formula_units_Z   6
loop_
 _symmetry_equiv_pos_site_id
 _symmetry_equiv_pos_as_xyz
  1  'x, y, z'
loop_
 _atom_site_type_symbol
 _atom_site_label
 _atom_site_symmetry_multiplicity
 _atom_site_fract_x
 _atom_site_fract_y
 _atom_site_fract_z
 _atom_site_occupancy
  Y  Y0  1  0.00000000  0.00000000  0.84983660  1
  Y  Y1  1  0.66666700  0.33333300  0.98349640  1
  Y  Y2  1  0.33333300  0.66666700  0.02861540  1
  Y  Y3  1  0.33333300  0.66666700  0.52204640  1
  Y  Y4  1  0.33333300  0.66666700  0.31128760  1
  Y  Y5  1  0.33333300  0.66666700  0.80471860  1
  Ga  Ga6  1  0.00000000  0.00000000  0.35051487  1
  Ga  Ga7  1  0.00000000  0.00000000  0.64482399  1
  Ga  Ga8  1  0.00000000  0.00000000  0.15044264  1
  Ga  Ga9  1  0.66666700  0.33333300  0.68289036  1
  Ga  Ga10  1  0.66666700  0.33333300  0.18850901  1
  Ga  Ga11  1  0.66666700  0.33333300  0.48281813  1
  S  S12  1  0.28860311  0.01563265  0.24760559  1
  S  S13  1  0.72702954  0.71139689  0.24760559  1
  S  S14  1  0.98436735  0.27297046  0.24760559  1
  S  S15  1  0.30018437  0.28233510  0.74130416  1
  S  S16  1  0.98215073  0.69981563  0.74130416  1
  S  S17  1  0.71766490  0.01784927  0.74130416  1
  S  S18  1  0.93963746  0.31770035  0.58572741  1
  S  S19  1  0.37806389  0.06036254  0.58572741  1
  S  S20  1  0.68229965  0.62193611  0.58572741  1
  S  S21  1  0.94900210  0.63351737  0.09202884  1
  S  S22  1  0.68451627  0.05099790  0.09202884  1
  S  S23  1  0.36648263  0.31548373  0.09202884  1
  S  S24  1  0.62439265  0.66666700  0.91666700  1
  S  S25  1  0.04227335  0.37560735  0.91666700  1
  S  S26  1  0.33333300  0.95772665  0.91666700  1
  S  S27  1  0.64440606  0.97774006  0.41666700  1
  S  S28  1  0.33333300  0.35559394  0.41666700  1
  S  S29  1  0.02225994  0.66666700  0.41666700  1
  O  O30  1  0.21002294  0.04579093  0.30061997  1
  O  O31  1  0.83576799  0.78997706  0.30061997  1
  O  O32  1  0.95420907  0.16423201  0.30061997  1
  O  O33  1  0.23001721  0.18045167  0.79533855  1
  O  O34  1  0.95043446  0.76998279  0.79533855  1
  O  O35  1  0.81954833  0.04956554  0.79533855  1
  O  O36  1  0.80443046  0.98439226  0.69180848  1
  O  O37  1  0.17996180  0.19556954  0.69180848  1
  O  O38  1  0.01560774  0.82003820  0.69180848  1
  O  O39  1  0.80474061  0.82329063  0.19596944  1
  O  O40  1  0.01855003  0.19525939  0.19596944  1
  O  O41  1  0.17670937  0.98144997  0.19596944  1
  O  O42  1  0.86192639  0.35188303  0.63736356  1
  O  O43  1  0.48995763  0.13807361  0.63736356  1
  O  O44  1  0.64811697  0.51004237  0.63736356  1
  O  O45  1  0.86223654  0.51329480  0.14152452  1
  O  O46  1  0.65105926  0.13776346  0.14152452  1
  O  O47  1  0.48670520  0.34894074  0.14152452  1
  O  O48  1  0.43664979  0.28376746  0.03799445  1
  O  O49  1  0.84711867  0.56335021  0.03799445  1
  O  O50  1  0.71623254  0.15288133  0.03799445  1
  O  O51  1  0.45664406  0.16910099  0.53271303  1
  O  O52  1  0.71245793  0.54335594  0.53271303  1
  O  O53  1  0.83089901  0.28754207  0.53271303  1
  O  O54  1  0.54152428  0.68881770  0.96922038  1
  O  O55  1  0.14729242  0.45847572  0.96922038  1
  O  O56  1  0.31118230  0.85270758  0.96922038  1
  O  O57  1  0.56574283  0.86163786  0.46765981  1
  O  O58  1  0.29589403  0.43425717  0.46765981  1
  O  O59  1  0.13836214  0.70410597  0.46765981  1
  O  O60  1  0.10092317  0.62922803  0.36567419  1
  O  O61  1  0.52830386  0.89907683  0.36567419  1
  O  O62  1  0.37077197  0.47169614  0.36567419  1
  O  O63  1  0.12514172  0.48062642  0.86411362  1
  O  O64  1  0.35548370  0.87485828  0.86411362  1
  O  O65  1  0.51937358  0.64451630  0.86411362  1
  O  O66  1  0.00365637  0.82301189  0.40537562  1
  O  O67  1  0.81935552  0.99634363  0.40537562  1
  O  O68  1  0.17698811  0.18064448  0.40537562  1
  O  O69  1  0.02547108  0.20134676  0.91174537  1
  O  O70  1  0.17587567  0.97452892  0.91174537  1
  O  O71  1  0.79865324  0.82412433  0.91174537  1
  O  O72  1  0.95676035  0.15953177  0.59364474  1
  O  O73  1  0.20277142  0.04323965  0.59364474  1
  O  O74  1  0.84046823  0.79722858  0.59364474  1
  O  O75  1  0.96815848  0.80838763  0.10009884  1
  O  O76  1  0.84022916  0.03184152  0.10009884  1
  O  O77  1  0.19161237  0.15977084  0.10009884  1
  O  O78  1  0.69850852  0.17356216  0.73323416  1
  O  O79  1  0.47505463  0.30149148  0.73323416  1
  O  O80  1  0.82643784  0.52494537  0.73323416  1
  O  O81  1  0.70990665  0.53610442  0.23968826  1
  O  O82  1  0.82619877  0.29009335  0.23968826  1
  O  O83  1  0.46389558  0.17380123  0.23968826  1
  O  O84  1  0.64119592  0.50920867  0.92158763  1
  O  O85  1  0.86801376  0.35880408  0.92158763  1
  O  O86  1  0.49079133  0.13198624  0.92158763  1
  O  O87  1  0.66301063  0.15268852  0.42795738  1
  O  O88  1  0.48967889  0.33698937  0.42795738  1
  O  O89  1  0.84731148  0.51032111  0.42795738  1
  O  O90  1  0.34979035  0.47294421  0.08623922  1
  O  O91  1  0.12315286  0.65020965  0.08623922  1
  O  O92  1  0.52705579  0.87684714  0.08623922  1
  O  O93  1  0.35964199  0.88523154  0.57873535  1
  O  O94  1  0.52558855  0.64035801  0.57873535  1
  O  O95  1  0.11476846  0.47441145  0.57873535  1
  O  O96  1  0.30702401  0.85892255  0.25459865  1
  O  O97  1  0.55189754  0.69297599  0.25459865  1
  O  O98  1  0.14107745  0.44810246  0.25459865  1
  O  O99  1  0.31687565  0.45648686  0.74709478  1
  O  O100  1  0.13961021  0.68312435  0.74709478  1
  O  O101  1  0.54351314  0.86038979  0.74709478  1
