# generated using pymatgen
data_Na4Ga2Si(PO6)2
_symmetry_space_group_name_H-M   'P 1'
_cell_length_a   8.84446901
_cell_length_b   8.84446872
_cell_length_c   21.88975076
_cell_angle_alpha   90.00387306
_cell_angle_beta   89.99612694
_cell_angle_gamma   120.00230308
_symmetry_Int_Tables_number   1
_chemical_formula_structural   Na4Ga2Si(PO6)2
_chemical_formula_sum   'Na24 Ga12 Si6 P12 O72'
_cell_volume   1482.87615760
_cell_formula_units_Z   6
loop_
 _symmetry_equiv_pos_site_id
 _symmetry_equiv_pos_as_xyz
  1  'x, y, z'
loop_
 _atom_site_type_symbol
 _atom_site_label
 _atom_site_symmetry_multiplicity
 _atom_site_fract_x
 _atom_site_fract_y
 _atom_site_fract_z
 _atom_site_occupancy
  Na  Na0  1  0.63625631  0.00215484  0.25066752  1
  Na  Na1  1  0.36370394  0.36590898  0.24937876  1
  Na  Na2  1  0.00001254  0.62945445  0.24993241  1
  Na  Na3  1  0.63409102  0.63629606  0.74937876  1
  Na  Na4  1  0.99784516  0.36374369  0.75066752  1
  Na  Na5  1  0.37054555  0.99998746  0.74993241  1
  Na  Na6  1  0.30061672  0.33077575  0.58277239  1
  Na  Na7  1  0.03661103  0.70283193  0.58230919  1
  Na  Na8  1  0.66468719  0.96680102  0.58502218  1
  Na  Na9  1  0.29716807  0.96338897  0.08230919  1
  Na  Na10  1  0.66922425  0.69938328  0.08277239  1
  Na  Na11  1  0.03319898  0.33531281  0.08502218  1
  Na  Na12  1  0.96899663  0.66899944  0.91823581  1
  Na  Na13  1  0.69769070  0.03339945  0.91503456  1
  Na  Na14  1  0.33331703  0.29772312  0.91671259  1
  Na  Na15  1  0.96660055  0.30230930  0.41503456  1
  Na  Na16  1  0.33100056  0.03100337  0.41823581  1
  Na  Na17  1  0.70227688  0.66668297  0.41671259  1
  Na  Na18  1  0.00240337  0.99850636  0.49998964  1
  Na  Na19  1  0.00149364  0.99759663  0.99998964  1
  Na  Na20  1  0.66533254  0.32916335  0.83337823  1
  Na  Na21  1  0.67083665  0.33466746  0.33337823  1
  Na  Na22  1  0.32882384  0.66368166  0.16664494  1
  Na  Na23  1  0.33631834  0.67117616  0.66664494  1
  Ga  Ga24  1  0.99930549  0.99854671  0.35003747  1
  Ga  Ga25  1  0.00145329  0.00069451  0.85003747  1
  Ga  Ga26  1  0.00092047  0.99917976  0.64991703  1
  Ga  Ga27  1  0.00082024  0.99907953  0.14991703  1
  Ga  Ga28  1  0.66462582  0.32355238  0.68355454  1
  Ga  Ga29  1  0.67644762  0.33537418  0.18355454  1
  Ga  Ga30  1  0.66546199  0.33329911  0.98335797  1
  Ga  Ga31  1  0.66670089  0.33453801  0.48335797  1
  Ga  Ga32  1  0.32539901  0.66902702  0.01670138  1
  Ga  Ga33  1  0.33097298  0.67460099  0.51670138  1
  Ga  Ga34  1  0.32277987  0.65851543  0.31655241  1
  Ga  Ga35  1  0.34148457  0.67722013  0.81655241  1
  Si  Si36  1  -0.00001147  0.28961947  0.25001005  1
  Si  Si37  1  0.71038053  0.00001147  0.75001005  1
  Si  Si38  1  0.37366273  0.04127489  0.58282597  1
  Si  Si39  1  0.95872511  0.62633727  0.08282597  1
  Si  Si40  1  0.33338083  0.96215758  0.91663861  1
  Si  Si41  1  0.03784242  0.66661917  0.41663861  1
  P  P42  1  0.29305718  0.00135290  0.24980568  1
  P  P43  1  0.70681603  0.70818386  0.25022175  1
  P  P44  1  0.29181614  0.29318397  0.75022175  1
  P  P45  1  0.99864710  0.70694282  0.74980568  1
  P  P46  1  0.95862287  0.33341221  0.58318997  1
  P  P47  1  0.66604272  0.62354978  0.58355500  1
  P  P48  1  0.66658779  0.04137713  0.08318997  1
  P  P49  1  0.37645022  0.33395728  0.08355500  1
  P  P50  1  0.62290100  0.66578787  0.91721142  1
  P  P51  1  0.04378288  0.37628670  0.91621471  1
  P  P52  1  0.62371330  0.95621712  0.41621471  1
  P  P53  1  0.33421213  0.37709900  0.41721142  1
  O  O54  1  0.21275156  0.03717481  0.30715946  1
  O  O55  1  0.82502784  0.78691163  0.30710625  1
  O  O56  1  0.96093981  0.16566616  0.31033597  1
  O  O57  1  0.21308837  0.17497216  0.80710625  1
  O  O58  1  0.96282519  0.78724844  0.80715946  1
  O  O59  1  0.83433384  0.03906019  0.81033597  1
  O  O60  1  0.79533949  0.96096530  0.68968996  1
  O  O61  1  0.17561205  0.21269674  0.69282188  1
  O  O62  1  0.03818249  0.82514939  0.69284135  1
  O  O63  1  0.78730326  0.82438795  0.19282188  1
  O  O64  1  0.03903470  0.20466051  0.18968996  1
  O  O65  1  0.17485061  0.96181751  0.19284135  1
  O  O66  1  0.88033439  0.37385105  0.64036703  1
  O  O67  1  0.49713658  0.12491593  0.64313229  1
  O  O68  1  0.63204641  0.50734343  0.64111905  1
  O  O69  1  0.87508407  0.50286342  0.14313229  1
  O  O70  1  0.62614895  0.11966561  0.14036703  1
  O  O71  1  0.49265657  0.36795359  0.14111905  1
  O  O72  1  0.45547666  0.29651468  0.02623963  1
  O  O73  1  0.83352889  0.54099687  0.02288945  1
  O  O74  1  0.70294652  0.15840139  0.02618973  1
  O  O75  1  0.45900313  0.16647111  0.52288945  1
  O  O76  1  0.70348532  0.54452334  0.52623963  1
  O  O77  1  0.84159861  0.29705348  0.52618973  1
  O  O78  1  0.54059440  0.70050378  0.97444296  1
  O  O79  1  0.16092728  0.45496780  0.97368019  1
  O  O80  1  0.29264154  0.83748712  0.97651960  1
  O  O81  1  0.54503220  0.83907272  0.47368019  1
  O  O82  1  0.29949622  0.45940560  0.47444296  1
  O  O83  1  0.16251288  0.70735846  0.47651960  1
  O  O84  1  0.12203934  0.62598570  0.35672011  1
  O  O85  1  0.50672631  0.87395759  0.35891183  1
  O  O86  1  0.37261817  0.49420822  0.35967118  1
  O  O87  1  0.12604241  0.49327369  0.85891183  1
  O  O88  1  0.37401430  0.87796066  0.85672011  1
  O  O89  1  0.50579178  0.62738183  0.85967118  1
  O  O90  1  0.02040601  0.84283118  0.40946219  1
  O  O91  1  0.80728220  0.97573384  0.41134185  1
  O  O92  1  0.16878680  0.19427450  0.41129994  1
  O  O93  1  0.02426616  0.19271780  0.91134185  1
  O  O94  1  0.15716882  0.97959399  0.90946219  1
  O  O95  1  0.80572550  0.83121320  0.91129994  1
  O  O96  1  0.97531461  0.16783501  0.58915266  1
  O  O97  1  0.17896114  0.02179804  0.59011853  1
  O  O98  1  0.83056738  0.80715788  0.58864840  1
  O  O99  1  0.97820196  0.82103886  0.09011853  1
  O  O100  1  0.83216499  0.02468539  0.08915266  1
  O  O101  1  0.19284212  0.16943262  0.08864840  1
  O  O102  1  0.69239517  0.17642683  0.74497995  1
  O  O103  1  0.47666554  0.31495197  0.74421569  1
  O  O104  1  0.83211351  0.52515790  0.74308954  1
  O  O105  1  0.68504803  0.52333446  0.24421569  1
  O  O106  1  0.82357317  0.30760483  0.24497995  1
  O  O107  1  0.47484210  0.16788649  0.24308954  1
  O  O108  1  0.64241911  0.50171894  0.92196504  1
  O  O109  1  0.86089544  0.35887511  0.92213416  1
  O  O110  1  0.50936318  0.15571782  0.92379456  1
  O  O111  1  0.64112489  0.13910456  0.42213416  1
  O  O112  1  0.49828106  0.35758089  0.42196504  1
  O  O113  1  0.84428218  0.49063682  0.42379456  1
  O  O114  1  0.36030607  0.50010482  0.07696026  1
  O  O115  1  0.15213693  0.64247094  0.07796110  1
  O  O116  1  0.50369960  0.85647963  0.07745922  1
  O  O117  1  0.35752906  0.84786307  0.57796110  1
  O  O118  1  0.49989518  0.63969393  0.57696026  1
  O  O119  1  0.14352037  0.49630040  0.57745922  1
  O  O120  1  0.31486646  0.83830550  0.25585102  1
  O  O121  1  0.52512868  0.69300821  0.25685398  1
  O  O122  1  0.17637929  0.48406433  0.25500180  1
  O  O123  1  0.30699179  0.47487132  0.75685398  1
  O  O124  1  0.16169450  0.68513354  0.75585102  1
  O  O125  1  0.51593567  0.82362071  0.75500180  1
