# generated using pymatgen
data_MgNi(TeO3)4
_symmetry_space_group_name_H-M   'P 1'
_cell_length_a   5.78900411
_cell_length_b   11.41281051
_cell_length_c   10.13241190
_cell_angle_alpha   27.54446451
_cell_angle_beta   49.43631600
_cell_angle_gamma   55.06409397
_symmetry_Int_Tables_number   1
_chemical_formula_structural   MgNi(TeO3)4
_chemical_formula_sum   'Mg1 Ni1 Te4 O12'
_cell_volume   235.16214179
_cell_formula_units_Z   1
loop_
 _symmetry_equiv_pos_site_id
 _symmetry_equiv_pos_as_xyz
  1  'x, y, z'
loop_
 _atom_site_type_symbol
 _atom_site_label
 _atom_site_symmetry_multiplicity
 _atom_site_fract_x
 _atom_site_fract_y
 _atom_site_fract_z
 _atom_site_occupancy
  Mg  Mg0  1  0.79988500  0.99931700  0.78293700  1
  Ni  Ni1  1  0.31496000  0.00431000  0.29134400  1
  Te  Te2  1  0.00651700  0.00090500  0.98234600  1
  Te  Te3  1  0.98349300  0.49587300  0.99972800  1
  Te  Te4  1  0.53762700  0.97770700  0.51474400  1
  Te  Te5  1  0.45435700  0.49998000  0.50810400  1
  O  O6  1  0.34154000  0.31618400  0.08954400  1
  O  O7  1  0.21228700  0.11968700  0.62127100  1
  O  O8  1  0.09556300  0.30559500  0.74498900  1
  O  O9  1  0.90455700  0.18121900  0.22872100  1
  O  O10  1  0.37079300  0.84154900  0.07103900  1
  O  O11  1  0.74770600  0.35000900  0.37474800  1
  O  O12  1  0.19552400  0.65383200  0.60565400  1
  O  O13  1  0.61379100  0.16865200  0.87374800  1
  O  O14  1  0.07906700  0.81371400  0.73366100  1
  O  O15  1  0.86188300  0.73273100  0.17952900  1
  O  O16  1  0.72253900  0.87704400  0.34210600  1
  O  O17  1  0.61483100  0.65574000  0.90258700  1
