# generated using pymatgen
data_ScIn(SO4)3
_symmetry_space_group_name_H-M   'P 1'
_cell_length_a   8.88411308
_cell_length_b   8.88411279
_cell_length_c   22.93728435
_cell_angle_alpha   90.00000000
_cell_angle_beta   90.00000000
_cell_angle_gamma   120.00000109
_symmetry_Int_Tables_number   1
_chemical_formula_structural   ScIn(SO4)3
_chemical_formula_sum   'Sc6 In6 S18 O72'
_cell_volume   1567.83648503
_cell_formula_units_Z   6
loop_
 _symmetry_equiv_pos_site_id
 _symmetry_equiv_pos_as_xyz
  1  'x, y, z'
loop_
 _atom_site_type_symbol
 _atom_site_label
 _atom_site_symmetry_multiplicity
 _atom_site_fract_x
 _atom_site_fract_y
 _atom_site_fract_z
 _atom_site_occupancy
  Sc  Sc0  1  0.00000000  0.00000000  0.35457320  1
  Sc  Sc1  1  0.00000000  0.00000000  0.64504156  1
  Sc  Sc2  1  0.00000000  0.00000000  0.14549687  1
  Sc  Sc3  1  0.66666700  0.33333300  0.68783613  1
  Sc  Sc4  1  0.66666700  0.33333300  0.18829144  1
  Sc  Sc5  1  0.66666700  0.33333300  0.47875980  1
  In  In6  1  0.00000000  0.00000000  0.85322787  1
  In  In7  1  0.66666700  0.33333300  0.98010513  1
  In  In8  1  0.33333300  0.66666700  0.02069064  1
  In  In9  1  0.33333300  0.66666700  0.52063655  1
  In  In10  1  0.33333300  0.66666700  0.31269745  1
  In  In11  1  0.33333300  0.66666700  0.81264336  1
  S  S12  1  0.28943384  0.00081385  0.24983079  1
  S  S13  1  0.71138001  0.71056616  0.24983079  1
  S  S14  1  0.99918615  0.28861999  0.24983079  1
  S  S15  1  0.29111231  0.29023246  0.74925875  1
  S  S16  1  0.99912016  0.70888769  0.74925875  1
  S  S17  1  0.70976754  0.00087984  0.74925875  1
  S  S18  1  0.95528699  0.33251915  0.58350221  1
  S  S19  1  0.37723316  0.04471301  0.58350221  1
  S  S20  1  0.66748085  0.62276684  0.58350221  1
  S  S21  1  0.95689946  0.62444531  0.08407425  1
  S  S22  1  0.66754684  0.04310054  0.08407425  1
  S  S23  1  0.37555469  0.33245316  0.08407425  1
  S  S24  1  0.62546003  0.66666700  0.91666700  1
  S  S25  1  0.04120597  0.37453997  0.91666700  1
  S  S26  1  0.33333300  0.95879403  0.91666700  1
  S  S27  1  0.62623973  0.95957373  0.41666700  1
  S  S28  1  0.33333300  0.37376027  0.41666700  1
  S  S29  1  0.04042627  0.66666700  0.41666700  1
  O  O30  1  0.20898100  0.02893256  0.30225469  1
  O  O31  1  0.81995156  0.79101900  0.30225469  1
  O  O32  1  0.97106744  0.18004844  0.30225469  1
  O  O33  1  0.21739674  0.18379354  0.80259039  1
  O  O34  1  0.96639680  0.78260326  0.80259039  1
  O  O35  1  0.81620646  0.03360320  0.80259039  1
  O  O36  1  0.79307116  0.97198272  0.69789136  1
  O  O37  1  0.17891156  0.20692884  0.69789136  1
  O  O38  1  0.02801728  0.82108844  0.69789136  1
  O  O39  1  0.79290260  0.82071199  0.19778477  1
  O  O40  1  0.02780939  0.20709740  0.19778477  1
  O  O41  1  0.17928801  0.97219061  0.19778477  1
  O  O42  1  0.87376440  0.36114239  0.63554823  1
  O  O43  1  0.48737899  0.12623560  0.63554823  1
  O  O44  1  0.63885761  0.51262101  0.63554823  1
  O  O45  1  0.87359584  0.51224456  0.13544164  1
  O  O46  1  0.63864972  0.12640416  0.13544164  1
  O  O47  1  0.48775544  0.36135028  0.13544164  1
  O  O48  1  0.44927026  0.29972980  0.03074261  1
  O  O49  1  0.85046054  0.55072974  0.03074261  1
  O  O50  1  0.70027020  0.14953946  0.03074261  1
  O  O51  1  0.45768600  0.15328456  0.53107831  1
  O  O52  1  0.69559956  0.54231400  0.53107831  1
  O  O53  1  0.84671544  0.30440044  0.53107831  1
  O  O54  1  0.54863146  0.69872895  0.96934136  1
  O  O55  1  0.15009649  0.45136854  0.96934136  1
  O  O56  1  0.30127105  0.84990351  0.96934136  1
  O  O57  1  0.55018645  0.84910320  0.46913841  1
  O  O58  1  0.29891575  0.44981355  0.46913841  1
  O  O59  1  0.15089680  0.70108425  0.46913841  1
  O  O60  1  0.11647955  0.63224975  0.36419559  1
  O  O61  1  0.51576920  0.88352045  0.36419559  1
  O  O62  1  0.36775025  0.48423080  0.36419559  1
  O  O63  1  0.11803454  0.48343049  0.86399264  1
  O  O64  1  0.36539495  0.88196546  0.86399264  1
  O  O65  1  0.51656951  0.63460505  0.86399264  1
  O  O66  1  0.02261135  0.82134588  0.40738462  1
  O  O67  1  0.79873453  0.97738865  0.40738462  1
  O  O68  1  0.17865412  0.20126547  0.40738462  1
  O  O69  1  0.02403873  0.20129090  0.90956443  1
  O  O70  1  0.17725217  0.97596127  0.90956443  1
  O  O71  1  0.79870910  0.82274783  0.90956443  1
  O  O72  1  0.97403189  0.17776614  0.59222406  1
  O  O73  1  0.20373425  0.02596811  0.59222406  1
  O  O74  1  0.82223386  0.79626575  0.59222406  1
  O  O75  1  0.97599820  0.79766529  0.09308093  1
  O  O76  1  0.82166709  0.02400180  0.09308093  1
  O  O77  1  0.20233471  0.17833291  0.09308093  1
  O  O78  1  0.69066880  0.15500009  0.74025207  1
  O  O79  1  0.46433229  0.30933120  0.74025207  1
  O  O80  1  0.84499991  0.53566771  0.74025207  1
  O  O81  1  0.69263511  0.53706725  0.24110894  1
  O  O82  1  0.84443314  0.30736489  0.24110894  1
  O  O83  1  0.46293275  0.15556686  0.24110894  1
  O  O84  1  0.64262827  0.51058517  0.92376857  1
  O  O85  1  0.86795790  0.35737173  0.92376857  1
  O  O86  1  0.48941483  0.13204210  0.92376857  1
  O  O87  1  0.64405565  0.13206753  0.42594838  1
  O  O88  1  0.48801288  0.35594435  0.42594838  1
  O  O89  1  0.86793247  0.51198712  0.42594838  1
  O  O90  1  0.35849531  0.48894857  0.07708578  1
  O  O91  1  0.13045225  0.64150469  0.07708578  1
  O  O92  1  0.51105143  0.86954775  0.07708578  1
  O  O93  1  0.35870728  0.87042150  0.57651542  1
  O  O94  1  0.51171322  0.64129272  0.57651542  1
  O  O95  1  0.12957850  0.48828678  0.57651542  1
  O  O96  1  0.30795872  0.84504722  0.25681858  1
  O  O97  1  0.53708750  0.69204128  0.25681858  1
  O  O98  1  0.15495278  0.46291250  0.25681858  1
  O  O99  1  0.30817069  0.46378625  0.75624822  1
  O  O100  1  0.15561457  0.69182931  0.75624822  1
  O  O101  1  0.53621375  0.84438543  0.75624822  1
