# generated using pymatgen
data_Na7Mg2Nb2Si3(PO8)3
_symmetry_space_group_name_H-M   'P 1'
_cell_length_a   9.10904903
_cell_length_b   9.08589774
_cell_length_c   22.20430779
_cell_angle_alpha   90.16009212
_cell_angle_beta   89.91803494
_cell_angle_gamma   120.05491475
_symmetry_Int_Tables_number   1
_chemical_formula_structural   Na7Mg2Nb2Si3(PO8)3
_chemical_formula_sum   'Na21 Mg6 Nb6 Si9 P9 O72'
_cell_volume   1590.62012518
_cell_formula_units_Z   3
loop_
 _symmetry_equiv_pos_site_id
 _symmetry_equiv_pos_as_xyz
  1  'x, y, z'
loop_
 _atom_site_type_symbol
 _atom_site_label
 _atom_site_symmetry_multiplicity
 _atom_site_fract_x
 _atom_site_fract_y
 _atom_site_fract_z
 _atom_site_occupancy
  Na  Na0  1  0.61773003  0.98110678  0.26071519  1
  Na  Na1  1  0.35485027  0.37170717  0.25546093  1
  Na  Na2  1  0.02523787  0.64516349  0.25508363  1
  Na  Na3  1  0.64895531  0.62366167  0.74491091  1
  Na  Na4  1  0.98144927  0.36004877  0.74127070  1
  Na  Na5  1  0.37410774  0.01759563  0.74248088  1
  Na  Na6  1  0.01255686  0.67721241  0.58475824  1
  Na  Na7  1  0.66829681  0.99083172  0.58349214  1
  Na  Na8  1  0.27906842  0.94928720  0.08632388  1
  Na  Na9  1  0.66791563  0.71506114  0.07881222  1
  Na  Na10  1  0.04950996  0.33495829  0.08673821  1
  Na  Na11  1  0.97541938  0.68926529  0.90671080  1
  Na  Na12  1  0.31955956  0.29174268  0.90817671  1
  Na  Na13  1  0.95357311  0.30555910  0.42611490  1
  Na  Na14  1  0.35553885  0.04110565  0.42373202  1
  Na  Na15  1  0.99943742  0.00136917  0.50187956  1
  Na  Na16  1  0.98300965  0.99189098  0.99571053  1
  Na  Na17  1  0.66753548  0.32866264  0.82164460  1
  Na  Na18  1  0.66661024  0.34139095  0.34721492  1
  Na  Na19  1  0.32392316  0.66663240  0.17015636  1
  Na  Na20  1  0.32695414  0.65346017  0.66322303  1
  Mg  Mg21  1  0.99269401  0.99682603  0.85231868  1
  Mg  Mg22  1  0.00142886  0.99701277  0.14686365  1
  Mg  Mg23  1  0.66790192  0.33384750  0.68114632  1
  Mg  Mg24  1  0.66461369  0.33113139  0.48525217  1
  Mg  Mg25  1  0.33327000  0.66735803  0.01973368  1
  Mg  Mg26  1  0.33155069  0.66812801  0.31538691  1
  Nb  Nb27  1  0.99875331  0.00213432  0.35251880  1
  Nb  Nb28  1  0.01178394  0.00684681  0.64804155  1
  Nb  Nb29  1  0.67118649  0.33255837  0.18973000  1
  Nb  Nb30  1  0.67038064  0.33854025  0.97611386  1
  Nb  Nb31  1  0.33902811  0.66785191  0.51849445  1
  Nb  Nb32  1  0.33594654  0.66662677  0.81443081  1
  Si  Si33  1  0.29017913  0.99636713  0.24557101  1
  Si  Si34  1  0.00479161  0.29341379  0.24514713  1
  Si  Si35  1  0.29636551  0.29251529  0.75635463  1
  Si  Si36  1  0.99771727  0.70371926  0.75462599  1
  Si  Si37  1  0.96110632  0.33244837  0.58264069  1
  Si  Si38  1  0.37456284  0.04288855  0.58195717  1
  Si  Si39  1  0.96272416  0.63052948  0.08302932  1
  Si  Si40  1  0.63091247  0.67734561  0.92273234  1
  Si  Si41  1  0.62899693  0.96285048  0.41192221  1
  P  P42  1  0.71025086  0.71022099  0.24643586  1
  P  P43  1  0.71080731  0.99903850  0.75222394  1
  P  P44  1  0.66642839  0.62548909  0.58471292  1
  P  P45  1  0.66519222  0.04412463  0.08277667  1
  P  P46  1  0.37834630  0.33319425  0.08294709  1
  P  P47  1  0.04248853  0.37379969  0.91972010  1
  P  P48  1  0.33465611  0.95819405  0.92069665  1
  P  P49  1  0.33637225  0.37616830  0.41189017  1
  P  P50  1  0.03913482  0.66680773  0.41438865  1
  O  O51  1  0.19485754  0.02931155  0.30564739  1
  O  O52  1  0.83284397  0.80080365  0.30174423  1
  O  O53  1  0.96815753  0.16372851  0.30516916  1
  O  O54  1  0.20964420  0.18407753  0.81487538  1
  O  O55  1  0.97263652  0.78996172  0.81298370  1
  O  O56  1  0.82107089  0.02503106  0.80541438  1
  O  O57  1  0.78473214  0.96344574  0.69326628  1
  O  O58  1  0.16378928  0.19423991  0.69738029  1
  O  O59  1  0.02582538  0.82882980  0.69461606  1
  O  O60  1  0.78612726  0.81364080  0.18957604  1
  O  O61  1  0.02664659  0.20683130  0.18595824  1
  O  O62  1  0.17715093  0.96563880  0.18687993  1
  O  O63  1  0.89296191  0.37914425  0.64260249  1
  O  O64  1  0.48663913  0.10994884  0.64224999  1
  O  O65  1  0.63759258  0.53072285  0.64414538  1
  O  O66  1  0.85361210  0.50247810  0.14102980  1
  O  O67  1  0.64732174  0.13773218  0.14080960  1
  O  O68  1  0.49158706  0.34892367  0.13890460  1
  O  O69  1  0.47502341  0.31589559  0.02663016  1
  O  O70  1  0.83591428  0.51854307  0.02485759  1
  O  O71  1  0.68131647  0.16157423  0.02901545  1
  O  O72  1  0.44669541  0.14411268  0.52073784  1
  O  O73  1  0.70300922  0.54608192  0.53121983  1
  O  O74  1  0.84657637  0.29206887  0.52343957  1
  O  O75  1  0.53694583  0.68319240  0.98231508  1
  O  O76  1  0.14516669  0.45896887  0.97625307  1
  O  O77  1  0.30940999  0.85006512  0.97631876  1
  O  O78  1  0.52792975  0.84075808  0.47226372  1
  O  O79  1  0.30794636  0.46904848  0.46680582  1
  O  O80  1  0.15825033  0.69367451  0.47041953  1
  O  O81  1  0.11860151  0.64158502  0.35760225  1
  O  O82  1  0.51693885  0.87246250  0.35403977  1
  O  O83  1  0.34534647  0.46890125  0.35399012  1
  O  O84  1  0.13074309  0.49543219  0.86315399  1
  O  O85  1  0.35631473  0.86696833  0.86305760  1
  O  O86  1  0.50033645  0.64201484  0.86255598  1
  O  O87  1  0.03744649  0.84012649  0.41143647  1
  O  O88  1  0.82151283  0.97672927  0.41086771  1
  O  O89  1  0.16334318  0.19382247  0.41162937  1
  O  O90  1  0.02275539  0.20011842  0.91120132  1
  O  O91  1  0.18561814  0.98866730  0.91438663  1
  O  O92  1  0.82217216  0.82591929  0.91561087  1
  O  O93  1  0.97648177  0.15732716  0.59287700  1
  O  O94  1  0.17237380  0.00207151  0.59048347  1
  O  O95  1  0.82324128  0.81341423  0.59039465  1
  O  O96  1  0.96484803  0.80855484  0.08175743  1
  O  O97  1  0.82736956  0.03432666  0.08442948  1
  O  O98  1  0.20458870  0.17163680  0.08275350  1
  O  O99  1  0.67973752  0.14937126  0.74499734  1
  O  O100  1  0.48294140  0.32055783  0.74523652  1
  O  O101  1  0.84000620  0.51355414  0.74618784  1
  O  O102  1  0.70120101  0.53126183  0.24482283  1
  O  O103  1  0.82411808  0.30392282  0.24508630  1
  O  O104  1  0.47843738  0.18033633  0.24419650  1
  O  O105  1  0.63473393  0.48747337  0.92167431  1
  O  O106  1  0.86362352  0.36464363  0.92110530  1
  O  O107  1  0.50173540  0.13800031  0.92258321  1
  O  O108  1  0.65748132  0.15268373  0.41849066  1
  O  O109  1  0.48389069  0.34573130  0.42000165  1
  O  O110  1  0.86339906  0.51461495  0.42395569  1
  O  O111  1  0.36779232  0.49606408  0.08269812  1
  O  O112  1  0.14268311  0.63702488  0.08285442  1
  O  O113  1  0.50212042  0.87121878  0.08216676  1
  O  O114  1  0.34266510  0.84044923  0.57424049  1
  O  O115  1  0.50970015  0.65545879  0.57532984  1
  O  O116  1  0.15611438  0.49945966  0.57175614  1
  O  O117  1  0.32418764  0.84006647  0.25355363  1
  O  O118  1  0.53096120  0.67735925  0.25586416  1
  O  O119  1  0.16237970  0.48179453  0.25480177  1
  O  O120  1  0.30433949  0.48320187  0.75708174  1
  O  O121  1  0.18125019  0.69855387  0.75678573  1
  O  O122  1  0.52764414  0.83098676  0.75769129  1
