# generated using pymatgen
data_Co(HO)2
_symmetry_space_group_name_H-M   'P 1'
_cell_length_a   3.19379389
_cell_length_b   3.21250418
_cell_length_c   5.21250464
_cell_angle_alpha   88.84848613
_cell_angle_beta   72.80131427
_cell_angle_gamma   60.03462246
_symmetry_Int_Tables_number   1
_chemical_formula_structural   Co(HO)2
_chemical_formula_sum   'Co1 H2 O2'
_cell_volume   43.73089229
_cell_formula_units_Z   1
loop_
 _symmetry_equiv_pos_site_id
 _symmetry_equiv_pos_as_xyz
  1  'x, y, z'
loop_
 _atom_site_type_symbol
 _atom_site_label
 _atom_site_symmetry_multiplicity
 _atom_site_fract_x
 _atom_site_fract_y
 _atom_site_fract_z
 _atom_site_occupancy
  Co  Co0  1  0.98784410  0.09305610  0.97618368  1
  H  H1  1  0.58910049  0.29079670  0.56579599  1
  H  H2  1  0.38387166  0.89464905  0.38669427  1
  O  O3  1  0.45846604  0.35712085  0.76341734  1
  O  O4  1  0.51681470  0.82882930  0.18910572  1
