# generated using pymatgen
data_Sm3InSe6
_symmetry_space_group_name_H-M   'P 1'
_cell_length_a   4.07890341
_cell_length_b   14.28462188
_cell_length_c   17.48188280
_cell_angle_alpha   90.00000000
_cell_angle_beta   90.00000000
_cell_angle_gamma   90.00000000
_symmetry_Int_Tables_number   1
_chemical_formula_structural   Sm3InSe6
_chemical_formula_sum   'Sm12 In4 Se24'
_cell_volume   1018.59226630
_cell_formula_units_Z   4
loop_
 _symmetry_equiv_pos_site_id
 _symmetry_equiv_pos_as_xyz
  1  'x, y, z'
loop_
 _atom_site_type_symbol
 _atom_site_label
 _atom_site_symmetry_multiplicity
 _atom_site_fract_x
 _atom_site_fract_y
 _atom_site_fract_z
 _atom_site_occupancy
  Sm  Sm0  1  0.50000000  0.74876052  0.60584875  1
  Sm  Sm1  1  0.50000000  0.25123948  0.39415125  1
  Sm  Sm2  1  0.00000000  0.24876052  0.89415125  1
  Sm  Sm3  1  -0.00000000  0.75123948  0.10584875  1
  Sm  Sm4  1  0.50000000  0.95969519  0.77612863  1
  Sm  Sm5  1  0.50000000  0.04030481  0.22387137  1
  Sm  Sm6  1  0.00000000  0.45969519  0.72387137  1
  Sm  Sm7  1  0.00000000  0.54030481  0.27612863  1
  Sm  Sm8  1  0.50000000  0.18775152  0.64557037  1
  Sm  Sm9  1  0.50000000  0.81224848  0.35442963  1
  Sm  Sm10  1  0.00000000  0.68775152  0.85442963  1
  Sm  Sm11  1  -0.00000000  0.31224848  0.14557037  1
  In  In12  1  0.50000000  0.50000000  0.50000000  1
  In  In13  1  0.00000000  0.00000000  0.00000000  1
  In  In14  1  0.50000000  0.50000000  0.00000000  1
  In  In15  1  0.00000000  0.00000000  0.50000000  1
  Se  Se16  1  0.50000000  0.97808276  0.60361733  1
  Se  Se17  1  0.50000000  0.02191724  0.39638267  1
  Se  Se18  1  0.00000000  0.47808276  0.89638267  1
  Se  Se19  1  -0.00000000  0.52191724  0.10361733  1
  Se  Se20  1  0.50000000  0.09476314  0.91410920  1
  Se  Se21  1  0.50000000  0.90523686  0.08589080  1
  Se  Se22  1  0.00000000  0.59476314  0.58589080  1
  Se  Se23  1  -0.00000000  0.40523686  0.41410920  1
  Se  Se24  1  0.50000000  0.30933292  0.01991019  1
  Se  Se25  1  0.50000000  0.69066708  0.98008981  1
  Se  Se26  1  -0.00000000  0.80933292  0.48008981  1
  Se  Se27  1  0.00000000  0.19066708  0.51991019  1
  Se  Se28  1  0.50000000  0.31775767  0.78554713  1
  Se  Se29  1  0.50000000  0.68224233  0.21445287  1
  Se  Se30  1  -0.00000000  0.81775767  0.71445287  1
  Se  Se31  1  0.00000000  0.18224233  0.28554713  1
  Se  Se32  1  -0.00000000  0.11210955  0.74761962  1
  Se  Se33  1  0.00000000  0.88789045  0.25238038  1
  Se  Se34  1  0.50000000  0.61210955  0.75238038  1
  Se  Se35  1  0.50000000  0.38789045  0.24761962  1
  Se  Se36  1  -0.00000000  0.11195313  0.11572509  1
  Se  Se37  1  0.00000000  0.88804687  0.88427491  1
  Se  Se38  1  0.50000000  0.61195313  0.38427491  1
  Se  Se39  1  0.50000000  0.38804687  0.61572509  1
