# generated using pymatgen
data_MgMnPb2WO6
_symmetry_space_group_name_H-M   'P 1'
_cell_length_a   6.06881612
_cell_length_b   6.06881612
_cell_length_c   6.33562980
_cell_angle_alpha   63.12633207
_cell_angle_beta   63.12633207
_cell_angle_gamma   59.78029650
_symmetry_Int_Tables_number   1
_chemical_formula_structural   MgMnPb2WO6
_chemical_formula_sum   'Mg1 Mn1 Pb2 W1 O6'
_cell_volume   172.05916621
_cell_formula_units_Z   1
loop_
 _symmetry_equiv_pos_site_id
 _symmetry_equiv_pos_as_xyz
  1  'x, y, z'
loop_
 _atom_site_type_symbol
 _atom_site_label
 _atom_site_symmetry_multiplicity
 _atom_site_fract_x
 _atom_site_fract_y
 _atom_site_fract_z
 _atom_site_occupancy
  Mg  Mg0  1  0.59645694  0.59645694  0.22267236  1
  Mn  Mn1  1  0.39671487  0.39671487  0.80244276  1
  Pb  Pb2  1  0.18735468  0.18735468  0.37307606  1
  Pb  Pb3  1  0.81960606  0.81960606  0.54468644  1
  W  W4  1  0.01621652  0.01621652  0.95974234  1
  O  O5  1  0.79923372  0.23518301  0.21490614  1
  O  O6  1  0.79488046  0.23941717  0.70181768  1
  O  O7  1  0.78549476  0.78549476  0.20109835  1
  O  O8  1  0.23941717  0.79488046  0.70181768  1
  O  O9  1  0.23518301  0.79923372  0.21490614  1
  O  O10  1  0.24402181  0.24402181  0.70866406  1
