# generated using pymatgen
data_Na7ZnIn3Si3(SO8)3
_symmetry_space_group_name_H-M   'P 1'
_cell_length_a   9.25342086
_cell_length_b   9.19935149
_cell_length_c   22.47022025
_cell_angle_alpha   90.30180079
_cell_angle_beta   90.02894014
_cell_angle_gamma   119.53005394
_symmetry_Int_Tables_number   1
_chemical_formula_structural   Na7ZnIn3Si3(SO8)3
_chemical_formula_sum   'Na21 Zn3 In9 Si9 S9 O72'
_cell_volume   1664.27804624
_cell_formula_units_Z   3
loop_
 _symmetry_equiv_pos_site_id
 _symmetry_equiv_pos_as_xyz
  1  'x, y, z'
loop_
 _atom_site_type_symbol
 _atom_site_label
 _atom_site_symmetry_multiplicity
 _atom_site_fract_x
 _atom_site_fract_y
 _atom_site_fract_z
 _atom_site_occupancy
  Na  Na0  1  0.63763868  0.99993718  0.23908853  1
  Na  Na1  1  0.38734795  0.37507865  0.23702796  1
  Na  Na2  1  0.97793174  0.62743326  0.25521988  1
  Na  Na3  1  0.62596428  0.62839057  0.73597583  1
  Na  Na4  1  0.99174586  0.34640809  0.74663113  1
  Na  Na5  1  0.38875350  0.02167292  0.75777624  1
  Na  Na6  1  0.01706146  0.69509668  0.57380098  1
  Na  Na7  1  0.66947654  0.95488548  0.58524887  1
  Na  Na8  1  0.31685211  0.98427344  0.07954772  1
  Na  Na9  1  0.65357690  0.69573396  0.09517194  1
  Na  Na10  1  0.68930312  0.03565795  0.91709923  1
  Na  Na11  1  0.33383166  0.28605730  0.91853354  1
  Na  Na12  1  0.96241363  0.30020865  0.40831077  1
  Na  Na13  1  0.33198196  0.01888916  0.41257676  1
  Na  Na14  1  0.72300376  0.68467565  0.41718512  1
  Na  Na15  1  0.98512505  0.98372157  0.49485076  1
  Na  Na16  1  0.01256765  0.01367538  0.00582560  1
  Na  Na17  1  0.65110718  0.31611584  0.82854181  1
  Na  Na18  1  0.68135932  0.34918906  0.32954708  1
  Na  Na19  1  0.34609716  0.65717500  0.16164587  1
  Na  Na20  1  0.35576300  0.64670569  0.66732555  1
  Zn  Zn21  1  0.96857459  0.96235161  0.35358682  1
  Zn  Zn22  1  0.64160673  0.33129840  0.68538523  1
  Zn  Zn23  1  0.65191538  0.33833616  0.17130248  1
  In  In24  1  0.00787384  0.00616011  0.84789510  1
  In  In25  1  0.99557656  0.00314149  0.65284181  1
  In  In26  1  0.98711839  0.00520425  0.14892594  1
  In  In27  1  0.64848151  0.31362250  0.98922222  1
  In  In28  1  0.67642555  0.34728792  0.48382378  1
  In  In29  1  0.33361279  0.67637610  0.01935400  1
  In  In30  1  0.35041013  0.67141392  0.51501134  1
  In  In31  1  0.34892535  0.68195544  0.31999431  1
  In  In32  1  0.34138839  0.67348999  0.81656670  1
  Si  Si33  1  0.69655669  0.69012803  0.25033778  1
  Si  Si34  1  0.29820660  0.30100476  0.75251960  1
  Si  Si35  1  0.69942086  0.00314368  0.74976658  1
  Si  Si36  1  0.66987381  0.63518577  0.58601123  1
  Si  Si37  1  0.66882641  0.03755383  0.08468894  1
  Si  Si38  1  0.35584534  0.33381420  0.08309399  1
  Si  Si39  1  0.32632464  0.96545466  0.91694809  1
  Si  Si40  1  0.64150230  0.97822904  0.41810943  1
  Si  Si41  1  0.04309922  0.66763480  0.41752207  1
  S  S42  1  0.28930487  0.99763336  0.25203962  1
  S  S43  1  0.00892715  0.30276927  0.25521100  1
  S  S44  1  0.00016635  0.69873798  0.74845412  1
  S  S45  1  0.96867829  0.33532701  0.58407598  1
  S  S46  1  0.36620439  0.03406955  0.58408235  1
  S  S47  1  0.95866389  0.62432517  0.08521798  1
  S  S48  1  0.63814871  0.66466552  0.91714911  1
  S  S49  1  0.03297502  0.37313704  0.91572711  1
  S  S50  1  0.33019763  0.36333172  0.41493205  1
  O  O51  1  0.20808115  0.01442586  0.30586150  1
  O  O52  1  0.80542926  0.76549021  0.31122362  1
  O  O53  1  0.99798675  0.20713135  0.30905061  1
  O  O54  1  0.22804667  0.19115157  0.81319838  1
  O  O55  1  0.97238581  0.78148337  0.80035326  1
  O  O56  1  0.81314745  0.02863422  0.80995035  1
  O  O57  1  0.77368678  0.95801725  0.69064151  1
  O  O58  1  0.17266227  0.20972202  0.69648074  1
  O  O59  1  0.02935684  0.79936049  0.69348133  1
  O  O60  1  0.78120358  0.81437432  0.19301358  1
  O  O61  1  0.03664099  0.22420097  0.20134248  1
  O  O62  1  0.19372104  0.98545239  0.19712994  1
  O  O63  1  0.88397188  0.34902866  0.63731014  1
  O  O64  1  0.46775092  0.11663782  0.63725183  1
  O  O65  1  0.65991195  0.53001291  0.64485051  1
  O  O66  1  0.88424041  0.53526380  0.14074244  1
  O  O67  1  0.65531760  0.13803053  0.14340129  1
  O  O68  1  0.47698361  0.37843796  0.14123478  1
  O  O69  1  0.43570886  0.30406025  0.02187511  1
  O  O70  1  0.85477840  0.54042124  0.03225967  1
  O  O71  1  0.69493302  0.13433843  0.02138204  1
  O  O72  1  0.44414171  0.12589870  0.52864755  1
  O  O73  1  0.69632403  0.55601236  0.52375566  1
  O  O74  1  0.86838479  0.31245496  0.52898824  1
  O  O75  1  0.55444396  0.68716705  0.96993975  1
  O  O76  1  0.14458552  0.46036812  0.96642762  1
  O  O77  1  0.31197155  0.86197809  0.97751000  1
  O  O78  1  0.56548484  0.85460768  0.47554631  1
  O  O79  1  0.30169144  0.44239584  0.46776581  1
  O  O80  1  0.15095351  0.68453434  0.47818523  1
  O  O81  1  0.12564631  0.62977834  0.35892709  1
  O  O82  1  0.52622726  0.90335486  0.35795251  1
  O  O83  1  0.36182609  0.46738117  0.36090937  1
  O  O84  1  0.10938125  0.45749625  0.85881409  1
  O  O85  1  0.35446195  0.87935018  0.85730286  1
  O  O86  1  0.53305041  0.63096562  0.86268268  1
  O  O87  1  0.03493893  0.84230588  0.41555178  1
  O  O88  1  0.83195554  0.00982516  0.41257273  1
  O  O89  1  0.18343004  0.19605909  0.40854249  1
  O  O90  1  0.01104961  0.19950327  0.91642989  1
  O  O91  1  0.16264783  0.99281953  0.91545980  1
  O  O92  1  0.79890100  0.82269227  0.91160603  1
  O  O93  1  0.98796141  0.18312173  0.58457501  1
  O  O94  1  0.19475221  0.01107750  0.58716651  1
  O  O95  1  0.84337820  0.82445939  0.58580096  1
  O  O96  1  0.97851345  0.79668911  0.08636547  1
  O  O97  1  0.81761118  0.98851063  0.08461025  1
  O  O98  1  0.18334636  0.15316031  0.09042895  1
  O  O99  1  0.68810677  0.17601390  0.74365709  1
  O  O100  1  0.48680753  0.32933898  0.74790094  1
  O  O101  1  0.85448288  0.52996663  0.74405335  1
  O  O102  1  0.67980878  0.50343032  0.24239621  1
  O  O103  1  0.85508714  0.31526191  0.25040298  1
  O  O104  1  0.46086227  0.14218684  0.24950939  1
  O  O105  1  0.66269176  0.51822408  0.92318501  1
  O  O106  1  0.86732812  0.35970357  0.92019922  1
  O  O107  1  0.50012278  0.15278830  0.91682713  1
  O  O108  1  0.64448388  0.15844995  0.42541921  1
  O  O109  1  0.48148706  0.34530259  0.42141412  1
  O  O110  1  0.85209296  0.50608802  0.41799801  1
  O  O111  1  0.33945612  0.50312031  0.07663394  1
  O  O112  1  0.12847009  0.64485999  0.08100029  1
  O  O113  1  0.49035225  0.85527412  0.08531614  1
  O  O114  1  0.34916759  0.86252027  0.58260183  1
  O  O115  1  0.50513508  0.66185745  0.58295309  1
  O  O116  1  0.13333077  0.49099837  0.58020957  1
  O  O117  1  0.29830829  0.83736842  0.25169084  1
  O  O118  1  0.50714147  0.67322642  0.25311442  1
  O  O119  1  0.15718153  0.47588659  0.25576213  1
  O  O120  1  0.30727721  0.48584860  0.75548894  1
  O  O121  1  0.15187522  0.68260220  0.75487290  1
  O  O122  1  0.51083590  0.83894139  0.75283253  1
