# generated using pymatgen
data_MgV8O16
_symmetry_space_group_name_H-M   'P 1'
_cell_length_a   5.23098166
_cell_length_b   5.89068207
_cell_length_c   10.48558411
_cell_angle_alpha   90.01040928
_cell_angle_beta   90.01211971
_cell_angle_gamma   87.86284179
_symmetry_Int_Tables_number   1
_chemical_formula_structural   MgV8O16
_chemical_formula_sum   'Mg1 V8 O16'
_cell_volume   322.87855538
_cell_formula_units_Z   1
loop_
 _symmetry_equiv_pos_site_id
 _symmetry_equiv_pos_as_xyz
  1  'x, y, z'
loop_
 _atom_site_type_symbol
 _atom_site_label
 _atom_site_symmetry_multiplicity
 _atom_site_fract_x
 _atom_site_fract_y
 _atom_site_fract_z
 _atom_site_occupancy
  Mg  Mg0  1  0.51585100  0.25721600  0.24998800  1
  V  V1  1  0.49356200  0.74202200  0.48487400  1
  V  V2  1  0.49350700  0.74207800  0.01513400  1
  V  V3  1  0.50861200  0.23913200  0.52156900  1
  V  V4  1  0.50849900  0.23912600  0.97843400  1
  V  V5  1  0.99974600  0.50286000  0.48663000  1
  V  V6  1  0.00184400  0.00058900  0.01270700  1
  V  V7  1  0.00198200  0.00056900  0.48728500  1
  V  V8  1  0.99968800  0.50289800  0.01336300  1
  O  O9  1  0.83876800  0.73872700  0.39489700  1
  O  O10  1  0.83876100  0.73877000  0.10510600  1
  O  O11  1  0.15368100  0.26092300  0.58339600  1
  O  O12  1  0.15349500  0.26087300  0.91659500  1
  O  O13  1  0.17607400  0.74368800  0.57672600  1
  O  O14  1  0.17593300  0.74367100  0.92329300  1
  O  O15  1  0.80421200  0.25353400  0.39630500  1
  O  O16  1  0.80417800  0.25360500  0.10369900  1
  O  O17  1  0.66297600  0.51424700  0.58576900  1
  O  O18  1  0.65754200  0.99469400  0.90738100  1
  O  O19  1  0.36298800  0.00950200  0.39501400  1
  O  O20  1  0.34478200  0.48077200  0.10658100  1
  O  O21  1  0.34477500  0.48072200  0.39340900  1
  O  O22  1  0.36298000  0.00959500  0.10498900  1
  O  O23  1  0.65772100  0.99471100  0.59262700  1
  O  O24  1  0.66284500  0.51422700  0.91423100  1
