# generated using pymatgen
data_NaScSiSn(SO6)2
_symmetry_space_group_name_H-M   'P 1'
_cell_length_a   8.86262427
_cell_length_b   8.84053494
_cell_length_c   23.19020152
_cell_angle_alpha   90.39159619
_cell_angle_beta   90.00000000
_cell_angle_gamma   120.08268885
_symmetry_Int_Tables_number   1
_chemical_formula_structural   NaScSiSn(SO6)2
_chemical_formula_sum   'Na6 Sc6 Si6 Sn6 S12 O72'
_cell_volume   1572.17186472
_cell_formula_units_Z   6
loop_
 _symmetry_equiv_pos_site_id
 _symmetry_equiv_pos_as_xyz
  1  'x, y, z'
loop_
 _atom_site_type_symbol
 _atom_site_label
 _atom_site_symmetry_multiplicity
 _atom_site_fract_x
 _atom_site_fract_y
 _atom_site_fract_z
 _atom_site_occupancy
  Na  Na0  1  0.01830269  0.01072213  0.50169520  1
  Na  Na1  1  0.99241944  0.01072213  0.00169520  1
  Na  Na2  1  0.67968640  0.32836427  0.83461422  1
  Na  Na3  1  0.64867887  0.32836427  0.33461422  1
  Na  Na4  1  0.33838898  0.68445090  0.16818862  1
  Na  Na5  1  0.34606092  0.68445090  0.66818862  1
  Sc  Sc6  1  0.99650220  0.99843281  0.64697804  1
  Sc  Sc7  1  0.00193062  0.99843281  0.14697804  1
  Sc  Sc8  1  0.68105824  0.32377604  0.97952074  1
  Sc  Sc9  1  0.64271880  0.32377604  0.47952074  1
  Sc  Sc10  1  0.33493612  0.66752939  0.31331667  1
  Sc  Sc11  1  0.33259227  0.66752939  0.81331667  1
  Si  Si12  1  0.29254401  0.99720000  0.24807320  1
  Si  Si13  1  0.70465599  0.99720000  0.74807320  1
  Si  Si14  1  0.36729645  0.03509888  0.58151583  1
  Si  Si15  1  0.66780343  0.03509888  0.08151583  1
  Si  Si16  1  0.04658613  0.37905760  0.91556842  1
  Si  Si17  1  0.33247047  0.37905760  0.41556842  1
  Sn  Sn18  1  0.01837889  0.01279039  0.35156488  1
  Sn  Sn19  1  0.99441150  0.01279039  0.85156488  1
  Sn  Sn20  1  0.66142235  0.31399651  0.68426032  1
  Sn  Sn21  1  0.65257516  0.31399651  0.18426032  1
  Sn  Sn22  1  0.33421210  0.66652299  0.01758536  1
  Sn  Sn23  1  0.33230988  0.66652299  0.51758536  1
  S  S24  1  0.71209580  0.70851130  0.24949820  1
  S  S25  1  0.99739395  0.29159326  0.24943660  1
  S  S26  1  0.29419931  0.29159326  0.74943660  1
  S  S27  1  0.99641550  0.70851130  0.74949820  1
  S  S28  1  0.95853735  0.33579215  0.58234620  1
  S  S29  1  0.66570756  0.62101718  0.58406253  1
  S  S30  1  0.95531062  0.62101718  0.08406253  1
  S  S31  1  0.37725580  0.33579215  0.08234620  1
  S  S32  1  0.62693988  0.66623650  0.91594818  1
  S  S33  1  0.32793493  0.95829898  0.91519911  1
  S  S34  1  0.63036305  0.95829898  0.41519911  1
  S  S35  1  0.03929562  0.66623650  0.41594818  1
  O  O36  1  0.21297805  0.03577301  0.30719071  1
  O  O37  1  0.81664240  0.78662404  0.30359774  1
  O  O38  1  0.95925216  0.18196907  0.30245253  1
  O  O39  1  0.22271691  0.18196907  0.80245253  1
  O  O40  1  0.96998164  0.78662404  0.80359774  1
  O  O41  1  0.82279496  0.03577301  0.80719071  1
  O  O42  1  0.80104346  0.97443579  0.69253116  1
  O  O43  1  0.18764246  0.20735002  0.69825193  1
  O  O44  1  0.02470481  0.81666526  0.69856079  1
  O  O45  1  0.79196045  0.81666526  0.19856079  1
  O  O46  1  0.01970756  0.20735002  0.19825193  1
  O  O47  1  0.17339233  0.97443579  0.19253116  1
  O  O48  1  0.88642700  0.37229105  0.63614241  1
  O  O49  1  0.48738810  0.11480998  0.64009996  1
  O  O50  1  0.63924139  0.51535986  0.63743813  1
  O  O51  1  0.87611947  0.51535986  0.13743813  1
  O  O52  1  0.62742288  0.11480998  0.14009996  1
  O  O53  1  0.48586506  0.37229105  0.13614241  1
  O  O54  1  0.46107998  0.31371903  0.03112930  1
  O  O55  1  0.84845111  0.54052401  0.03231390  1
  O  O56  1  0.69208000  0.15462685  0.02619714  1
  O  O57  1  0.46254785  0.15462685  0.52619714  1
  O  O58  1  0.69207389  0.54052401  0.53231390  1
  O  O59  1  0.85264005  0.31371903  0.53112930  1
  O  O60  1  0.55591049  0.70517271  0.96912149  1
  O  O61  1  0.16368346  0.46177267  0.97547214  1
  O  O62  1  0.29831826  0.85391802  0.96861495  1
  O  O63  1  0.55559877  0.85391802  0.46861495  1
  O  O64  1  0.29808822  0.46177267  0.47547214  1
  O  O65  1  0.14926122  0.70517271  0.46912149  1
  O  O66  1  0.12372074  0.64527299  0.36471386  1
  O  O67  1  0.51940986  0.87894404  0.36441276  1
  O  O68  1  0.35507697  0.49628488  0.36005274  1
  O  O69  1  0.14120691  0.49628488  0.86005274  1
  O  O70  1  0.35953319  0.87894404  0.86441276  1
  O  O71  1  0.52155125  0.64527299  0.86471386  1
  O  O72  1  0.01492311  0.82221585  0.41084974  1
  O  O73  1  0.80354764  0.96886677  0.40811081  1
  O  O74  1  0.15220891  0.18318217  0.41369499  1
  O  O75  1  0.03097325  0.18318217  0.91369499  1
  O  O76  1  0.16531913  0.96886677  0.90811081  1
  O  O77  1  0.80729275  0.82221585  0.91084974  1
  O  O78  1  0.97474909  0.17925319  0.58920827  1
  O  O79  1  0.17668411  0.01396443  0.58978294  1
  O  O80  1  0.82021736  0.79607060  0.58969520  1
  O  O81  1  0.97585324  0.79607060  0.08969520  1
  O  O82  1  0.83728032  0.01396443  0.08978294  1
  O  O83  1  0.20450410  0.17925319  0.08920827  1
  O  O84  1  0.69374263  0.18057269  0.74616301  1
  O  O85  1  0.47381670  0.31705357  0.74402421  1
  O  O86  1  0.83430402  0.53323853  0.74278069  1
  O  O87  1  0.69893550  0.53323853  0.24278069  1
  O  O88  1  0.84323787  0.31705357  0.24402421  1
  O  O89  1  0.48683106  0.18057269  0.24616301  1
  O  O90  1  0.63905200  0.50805710  0.92343994  1
  O  O91  1  0.85417484  0.35859668  0.92115221  1
  O  O92  1  0.47901512  0.13557092  0.92242268  1
  O  O93  1  0.65655679  0.13557092  0.42242268  1
  O  O94  1  0.50442284  0.35859668  0.42115221  1
  O  O95  1  0.86900610  0.50805710  0.42343994  1
  O  O96  1  0.35735600  0.49368378  0.07863705  1
  O  O97  1  0.13090770  0.63729024  0.07915422  1
  O  O98  1  0.48592515  0.83989810  0.07508121  1
  O  O99  1  0.35397195  0.83989810  0.57508121  1
  O  O100  1  0.50638154  0.63729024  0.57915422  1
  O  O101  1  0.13632679  0.49368378  0.57863705  1
  O  O102  1  0.31554239  0.82775274  0.25604628  1
  O  O103  1  0.53697032  0.68644893  0.25571798  1
  O  O104  1  0.15501923  0.46337915  0.25637263  1
  O  O105  1  0.30835892  0.46337915  0.75637263  1
  O  O106  1  0.14947762  0.68644893  0.75571798  1
  O  O107  1  0.51220934  0.82775274  0.75604628  1
