# generated using pymatgen
data_Na10ScNb7(SiO4)12
_symmetry_space_group_name_H-M   'P 1'
_cell_length_a   18.14909353
_cell_length_b   9.08368074
_cell_length_c   22.59491782
_cell_angle_alpha   90.00309376
_cell_angle_beta   90.00137683
_cell_angle_gamma   120.04667984
_symmetry_Int_Tables_number   1
_chemical_formula_structural   Na10ScNb7(SiO4)12
_chemical_formula_sum   'Na30 Sc3 Nb21 Si36 O144'
_cell_volume   3224.43571207
_cell_formula_units_Z   3
loop_
 _symmetry_equiv_pos_site_id
 _symmetry_equiv_pos_as_xyz
  1  'x, y, z'
loop_
 _atom_site_type_symbol
 _atom_site_label
 _atom_site_symmetry_multiplicity
 _atom_site_fract_x
 _atom_site_fract_y
 _atom_site_fract_z
 _atom_site_occupancy
  Na  Na0  1  0.81526271  0.01040422  0.24653137  1
  Na  Na1  1  0.18437675  0.36733734  0.24882068  1
  Na  Na2  1  0.68864664  0.36687899  0.24592565  1
  Na  Na3  1  0.99470966  0.61899603  0.24667276  1
  Na  Na4  1  0.31546939  0.62021880  0.74706883  1
  Na  Na5  1  0.81597375  0.62045185  0.74647466  1
  Na  Na6  1  0.99419898  0.36706394  0.74615530  1
  Na  Na7  1  0.49409357  0.36626001  0.74617632  1
  Na  Na8  1  0.18984561  0.01178901  0.74760270  1
  Na  Na9  1  0.68991858  0.01234396  0.74689581  1
  Na  Na10  1  0.15356027  0.33813320  0.58463608  1
  Na  Na11  1  0.65496605  0.33807091  0.58366709  1
  Na  Na12  1  0.33322512  0.97252832  0.58379477  1
  Na  Na13  1  0.83374814  0.97485497  0.58348768  1
  Na  Na14  1  0.65224428  0.96971622  0.08539361  1
  Na  Na15  1  0.83174228  0.69186476  0.08398540  1
  Na  Na16  1  0.01612432  0.33713347  0.08282756  1
  Na  Na17  1  0.48277415  0.29819741  0.41699362  1
  Na  Na18  1  0.99987357  0.98942783  0.49663962  1
  Na  Na19  1  0.50167894  0.98198770  0.49782519  1
  Na  Na20  1  0.00600400  0.99944705  0.99702355  1
  Na  Na21  1  0.49448907  0.00106183  0.99928739  1
  Na  Na22  1  0.33281549  0.33283251  0.83463992  1
  Na  Na23  1  0.83350034  0.33311577  0.83378122  1
  Na  Na24  1  0.33313598  0.33304821  0.33199123  1
  Na  Na25  1  0.83280362  0.33202561  0.33288869  1
  Na  Na26  1  0.17680661  0.68909283  0.16384457  1
  Na  Na27  1  0.65549866  0.65292170  0.16605900  1
  Na  Na28  1  0.16088038  0.66682602  0.66524632  1
  Na  Na29  1  0.66095582  0.66710845  0.66489629  1
  Sc  Sc30  1  0.33423149  0.33384761  0.68612528  1
  Sc  Sc31  1  0.83416199  0.33433031  0.68577662  1
  Sc  Sc32  1  0.83258746  0.33298835  0.18600305  1
  Nb  Nb33  1  0.00044369  0.00100585  0.35698611  1
  Nb  Nb34  1  0.49874094  0.99541727  0.35495468  1
  Nb  Nb35  1  0.00006172  0.00117684  0.85828947  1
  Nb  Nb36  1  0.50005482  0.99942462  0.85818441  1
  Nb  Nb37  1  0.99978251  0.99592055  0.64475517  1
  Nb  Nb38  1  0.50035050  0.99715366  0.64481019  1
  Nb  Nb39  1  0.00338111  0.00049515  0.14440371  1
  Nb  Nb40  1  0.49650809  0.99825104  0.14380372  1
  Nb  Nb41  1  0.33667736  0.33385474  0.18773095  1
  Nb  Nb42  1  0.33267359  0.33280437  0.97696523  1
  Nb  Nb43  1  0.83361713  0.33393531  0.97775483  1
  Nb  Nb44  1  0.33047101  0.33541218  0.47882446  1
  Nb  Nb45  1  0.83436880  0.33405702  0.47754083  1
  Nb  Nb46  1  0.17055443  0.67376001  0.02113472  1
  Nb  Nb47  1  0.66295286  0.65958266  0.01936437  1
  Nb  Nb48  1  0.16428439  0.66603175  0.51839175  1
  Nb  Nb49  1  0.66560607  0.66869142  0.51881837  1
  Nb  Nb50  1  0.16955225  0.67188081  0.31232535  1
  Nb  Nb51  1  0.66454065  0.66629870  0.31194403  1
  Nb  Nb52  1  0.16676633  0.66614080  0.81458660  1
  Nb  Nb53  1  0.66686904  0.66662482  0.81452301  1
  Si  Si54  1  0.14510220  0.00008367  0.25124223  1
  Si  Si55  1  0.64250404  0.99705716  0.24891013  1
  Si  Si56  1  0.35612983  0.71107933  0.24991724  1
  Si  Si57  1  0.85603492  0.71319299  0.25027531  1
  Si  Si58  1  0.00053469  0.28926866  0.25055062  1
  Si  Si59  1  0.49869829  0.28554493  0.25114188  1
  Si  Si60  1  0.14325045  0.28837149  0.75051104  1
  Si  Si61  1  0.64340616  0.28863081  0.75069678  1
  Si  Si62  1  0.00074344  0.71299055  0.75205395  1
  Si  Si63  1  0.50076681  0.71273530  0.75176259  1
  Si  Si64  1  0.35560135  0.99819076  0.75093493  1
  Si  Si65  1  0.85555114  0.99862238  0.75095985  1
  Si  Si66  1  0.47933850  0.33646441  0.58424507  1
  Si  Si67  1  0.97908767  0.33644738  0.58537888  1
  Si  Si68  1  0.18767533  0.04023903  0.58525895  1
  Si  Si69  1  0.68881284  0.04320711  0.58453687  1
  Si  Si70  1  0.33371630  0.62493206  0.58481769  1
  Si  Si71  1  0.83408211  0.62291907  0.58388496  1
  Si  Si72  1  0.47645749  0.62160258  0.08205744  1
  Si  Si73  1  0.97919813  0.62286923  0.08465580  1
  Si  Si74  1  0.33323858  0.04770255  0.08248279  1
  Si  Si75  1  0.83281472  0.04224150  0.08446326  1
  Si  Si76  1  0.19156066  0.33690240  0.08418727  1
  Si  Si77  1  0.68733897  0.33222237  0.08451773  1
  Si  Si78  1  0.31195336  0.66471053  0.91650713  1
  Si  Si79  1  0.81176825  0.66573506  0.91755322  1
  Si  Si80  1  0.02216959  0.37853465  0.91864401  1
  Si  Si81  1  0.51917624  0.37429611  0.91537309  1
  Si  Si82  1  0.16730688  0.95736699  0.91659995  1
  Si  Si83  1  0.66724554  0.95810589  0.91754574  1
  Si  Si84  1  0.31192951  0.95862067  0.41771181  1
  Si  Si85  1  0.81163847  0.95706939  0.41598178  1
  Si  Si86  1  0.16674480  0.37679327  0.41585449  1
  Si  Si87  1  0.66870078  0.37713905  0.41544485  1
  Si  Si88  1  0.02100535  0.66466433  0.41428379  1
  Si  Si89  1  0.52077289  0.66850870  0.41646068  1
  O  O90  1  0.09870506  0.03043517  0.30793484  1
  O  O91  1  0.59056552  0.01954486  0.30527435  1
  O  O92  1  0.41390608  0.80822360  0.30833097  1
  O  O93  1  0.91903889  0.81534517  0.30590004  1
  O  O94  1  0.48657592  0.17496664  0.31152318  1
  O  O95  1  0.99038217  0.16620683  0.30652451  1
  O  O96  1  0.09284165  0.16464221  0.80634881  1
  O  O97  1  0.59298958  0.16425859  0.80629070  1
  O  O98  1  0.48892580  0.81085620  0.80798637  1
  O  O99  1  0.98907808  0.81211517  0.80806860  1
  O  O100  1  0.41763765  0.02055961  0.80648638  1
  O  O101  1  0.91729015  0.02048977  0.80667051  1
  O  O102  1  0.40016760  0.96925011  0.69060437  1
  O  O103  1  0.89993903  0.96916095  0.69072960  1
  O  O104  1  0.08400596  0.20029244  0.69030566  1
  O  O105  1  0.58411750  0.20098983  0.69039234  1
  O  O106  1  0.01548098  0.83765432  0.69342452  1
  O  O107  1  0.51554771  0.83804371  0.69338801  1
  O  O108  1  0.40341850  0.83029790  0.19223346  1
  O  O109  1  0.90089374  0.83291616  0.19077639  1
  O  O110  1  0.01563735  0.19905484  0.19120164  1
  O  O111  1  0.51453856  0.19041547  0.19472027  1
  O  O112  1  0.08237343  0.96880645  0.19327997  1
  O  O113  1  0.58657841  0.97418783  0.18908706  1
  O  O114  1  0.44120933  0.36435508  0.64480074  1
  O  O115  1  0.94287082  0.36553109  0.64672165  1
  O  O116  1  0.24376936  0.11199728  0.64486085  1
  O  O117  1  0.74393415  0.11193205  0.64492484  1
  O  O118  1  0.31200397  0.51029240  0.64381919  1
  O  O119  1  0.81176548  0.51096873  0.64389611  1
  O  O120  1  0.42939890  0.50303452  0.14078708  1
  O  O121  1  0.94254949  0.51116869  0.14467645  1
  O  O122  1  0.32137667  0.14248460  0.14112801  1
  O  O123  1  0.81188321  0.11312145  0.14432269  1
  O  O124  1  0.24665440  0.35807175  0.14451898  1
  O  O125  1  0.74395661  0.37678963  0.14454741  1
  O  O126  1  0.23810330  0.30982471  0.02696544  1
  O  O127  1  0.73730700  0.30270549  0.02878711  1
  O  O128  1  0.41756824  0.52606049  0.02483073  1
  O  O129  1  0.91412041  0.52746500  0.02872376  1
  O  O130  1  0.34591902  0.16571282  0.02494032  1
  O  O131  1  0.84943601  0.17244112  0.02895556  1
  O  O132  1  0.23749995  0.16920500  0.52866306  1
  O  O133  1  0.73684809  0.17117202  0.52854346  1
  O  O134  1  0.34546707  0.52438275  0.52775161  1
  O  O135  1  0.84585892  0.52354250  0.52738612  1
  O  O136  1  0.41765865  0.30488390  0.52614636  1
  O  O137  1  0.91431783  0.30289212  0.52952570  1
  O  O138  1  0.26219244  0.68781477  0.97310262  1
  O  O139  1  0.76356093  0.68844202  0.97515291  1
  O  O140  1  0.08063758  0.46992742  0.97685566  1
  O  O141  1  0.58118876  0.47666242  0.97171918  1
  O  O142  1  0.15655036  0.83426636  0.97272386  1
  O  O143  1  0.65530977  0.84045622  0.97578566  1
  O  O144  1  0.26644400  0.84357351  0.47644745  1
  O  O145  1  0.76472613  0.83918781  0.47449667  1
  O  O146  1  0.15727446  0.47168409  0.47476882  1
  O  O147  1  0.65344138  0.47003215  0.47317164  1
  O  O148  1  0.08277309  0.68688822  0.47118942  1
  O  O149  1  0.58097013  0.68992029  0.47372702  1
  O  O150  1  0.06806410  0.64171294  0.35549733  1
  O  O151  1  0.56908272  0.63822837  0.35982638  1
  O  O152  1  0.25097876  0.85770695  0.36046387  1
  O  O153  1  0.75178986  0.86018668  0.35769935  1
  O  O154  1  0.17853146  0.49426564  0.35722947  1
  O  O155  1  0.67833569  0.49387688  0.35677117  1
  O  O156  1  0.06977559  0.49637696  0.85897153  1
  O  O157  1  0.56783102  0.49267038  0.85631024  1
  O  O158  1  0.17835790  0.86287203  0.85676216  1
  O  O159  1  0.67817405  0.86099890  0.85846512  1
  O  O160  1  0.25343153  0.64254927  0.85669985  1
  O  O161  1  0.75260107  0.64335695  0.85818418  1
  O  O162  1  0.01370713  0.83603705  0.41022515  1
  O  O163  1  0.51166395  0.83694132  0.41171411  1
  O  O164  1  0.40755990  0.98352011  0.41248782  1
  O  O165  1  0.90534819  0.97356660  0.41036888  1
  O  O166  1  0.08195866  0.18920270  0.41152979  1
  O  O167  1  0.57999344  0.19274012  0.41066189  1
  O  O168  1  0.01328805  0.19091395  0.91110020  1
  O  O169  1  0.51307569  0.18955035  0.91102676  1
  O  O170  1  0.08184847  0.97360823  0.91129667  1
  O  O171  1  0.58202728  0.97417302  0.91100550  1
  O  O172  1  0.40503068  0.83666366  0.91111763  1
  O  O173  1  0.90499398  0.83697754  0.91155576  1
  O  O174  1  0.48743420  0.16128403  0.58731898  1
  O  O175  1  0.98755416  0.16171581  0.58789528  1
  O  O176  1  0.09521202  0.03295705  0.58784676  1
  O  O177  1  0.59524385  0.03238592  0.58837869  1
  O  O178  1  0.41761011  0.81767442  0.58739847  1
  O  O179  1  0.91718607  0.81741979  0.58778510  1
  O  O180  1  0.48957993  0.81375521  0.08836491  1
  O  O181  1  0.98468594  0.81045816  0.08846449  1
  O  O182  1  0.41812201  0.02828679  0.09041823  1
  O  O183  1  0.91967015  0.02575922  0.08776117  1
  O  O184  1  0.09449108  0.16718636  0.08993847  1
  O  O185  1  0.59418446  0.15706023  0.08768626  1
  O  O186  1  0.34515861  0.16475278  0.74894717  1
  O  O187  1  0.84486294  0.16486145  0.74924255  1
  O  O188  1  0.23699934  0.30907946  0.74808736  1
  O  O189  1  0.73715658  0.30918759  0.74822352  1
  O  O190  1  0.41737114  0.52598428  0.74814783  1
  O  O191  1  0.91720718  0.52626857  0.74841304  1
  O  O192  1  0.34233888  0.51901101  0.24578322  1
  O  O193  1  0.84630134  0.52632952  0.24864570  1
  O  O194  1  0.41556601  0.30925300  0.24459721  1
  O  O195  1  0.91625714  0.30669717  0.24879237  1
  O  O196  1  0.23736950  0.17283263  0.24476712  1
  O  O197  1  0.73604574  0.16651476  0.24896324  1
  O  O198  1  0.31919196  0.49422336  0.92144718  1
  O  O199  1  0.81895060  0.49441202  0.92306752  1
  O  O200  1  0.42686498  0.35968385  0.92086583  1
  O  O201  1  0.92867837  0.36309716  0.92347169  1
  O  O202  1  0.25204413  0.14362933  0.92181434  1
  O  O203  1  0.75304377  0.14385834  0.92299862  1
  O  O204  1  0.32348940  0.14931790  0.42226225  1
  O  O205  1  0.81938980  0.14308612  0.42324242  1
  O  O206  1  0.25279373  0.36056189  0.42223909  1
  O  O207  1  0.75252224  0.35795980  0.42194920  1
  O  O208  1  0.42953977  0.49184859  0.42262312  1
  O  O209  1  0.92835159  0.49396683  0.42274931  1
  O  O210  1  0.17605820  0.50007409  0.07896924  1
  O  O211  1  0.67734671  0.50108716  0.07395610  1
  O  O212  1  0.07296196  0.64219784  0.07454927  1
  O  O213  1  0.57361321  0.64926483  0.07815805  1
  O  O214  1  0.24905235  0.85742062  0.07774947  1
  O  O215  1  0.75020401  0.84995824  0.07506652  1
  O  O216  1  0.17764983  0.85256390  0.57449582  1
  O  O217  1  0.67856156  0.85413755  0.57436743  1
  O  O218  1  0.25066552  0.65066328  0.57479535  1
  O  O219  1  0.75091549  0.64991961  0.57374992  1
  O  O220  1  0.07714774  0.49535237  0.57570876  1
  O  O221  1  0.57760647  0.49502267  0.57564395  1
  O  O222  1  0.14978482  0.82465243  0.25514066  1
  O  O223  1  0.65273830  0.82711294  0.25581741  1
  O  O224  1  0.26022422  0.68822486  0.25539641  1
  O  O225  1  0.76190080  0.69982782  0.25485944  1
  O  O226  1  0.08803431  0.47692285  0.25500587  1
  O  O227  1  0.58754894  0.47176622  0.25537083  1
  O  O228  1  0.14863617  0.47553503  0.75470305  1
  O  O229  1  0.64930741  0.47625546  0.75484924  1
  O  O230  1  0.08849220  0.70109836  0.75457845  1
  O  O231  1  0.58897008  0.70228662  0.75450805  1
  O  O232  1  0.26180387  0.82204310  0.75462749  1
  O  O233  1  0.76175753  0.82206173  0.75488242  1
