# generated using pymatgen
data_Na6Mg3ZrSi2(SO6)4
_symmetry_space_group_name_H-M   'P 1'
_cell_length_a   9.06684752
_cell_length_b   9.06552373
_cell_length_c   22.55338010
_cell_angle_alpha   89.72154329
_cell_angle_beta   90.17645076
_cell_angle_gamma   120.03113185
_symmetry_Int_Tables_number   1
_chemical_formula_structural   Na6Mg3ZrSi2(SO6)4
_chemical_formula_sum   'Na18 Mg9 Zr3 Si6 S12 O72'
_cell_volume   1604.90712762
_cell_formula_units_Z   3
loop_
 _symmetry_equiv_pos_site_id
 _symmetry_equiv_pos_as_xyz
  1  'x, y, z'
loop_
 _atom_site_type_symbol
 _atom_site_label
 _atom_site_symmetry_multiplicity
 _atom_site_fract_x
 _atom_site_fract_y
 _atom_site_fract_z
 _atom_site_occupancy
  Na  Na0  1  0.63072702  0.99441273  0.25847347  1
  Na  Na1  1  0.36902323  0.36491457  0.24310026  1
  Na  Na2  1  0.64334896  0.64935810  0.73968089  1
  Na  Na3  1  0.31531751  0.34517288  0.58913379  1
  Na  Na4  1  0.02069721  0.69965752  0.58424696  1
  Na  Na5  1  0.66813231  0.94886239  0.58602575  1
  Na  Na6  1  0.29768476  0.97542658  0.07749513  1
  Na  Na7  1  0.05059540  0.33732311  0.07664534  1
  Na  Na8  1  0.98624770  0.67202526  0.91420818  1
  Na  Na9  1  0.70902674  0.03755176  0.90343454  1
  Na  Na10  1  0.30889999  0.28589546  0.91781748  1
  Na  Na11  1  0.69635400  0.68442292  0.42048985  1
  Na  Na12  1  0.98165914  0.99503765  0.49635881  1
  Na  Na13  1  0.01426975  0.01346155  0.99687854  1
  Na  Na14  1  0.67222514  0.30532113  0.82432103  1
  Na  Na15  1  0.67455880  0.32120785  0.33345506  1
  Na  Na16  1  0.33699156  0.65613530  0.16238925  1
  Na  Na17  1  0.35097549  0.67615756  0.66728611  1
  Mg  Mg18  1  0.99593163  0.00404768  0.35225277  1
  Mg  Mg19  1  0.00165333  0.01592985  0.84910405  1
  Mg  Mg20  1  0.98062826  0.98773426  0.65312573  1
  Mg  Mg21  1  0.00556466  0.00160925  0.14890644  1
  Mg  Mg22  1  0.66266507  0.32604925  0.68695033  1
  Mg  Mg23  1  0.66618806  0.34531177  0.18145664  1
  Mg  Mg24  1  0.32897171  0.65573821  0.01654092  1
  Mg  Mg25  1  0.35333478  0.67295811  0.51414176  1
  Mg  Mg26  1  0.33319063  0.67986175  0.32081386  1
  Zr  Zr27  1  0.65539862  0.32430695  0.98242150  1
  Zr  Zr28  1  0.66774716  0.32914159  0.47961217  1
  Zr  Zr29  1  0.32812967  0.67897384  0.81393850  1
  Si  Si30  1  0.70728012  0.00739128  0.74939235  1
  Si  Si31  1  0.66639385  0.62854164  0.58586135  1
  Si  Si32  1  0.36540618  0.33857559  0.08866326  1
  Si  Si33  1  0.03912165  0.36924288  0.91974732  1
  Si  Si34  1  0.32527070  0.95682428  0.92141971  1
  Si  Si35  1  0.63344488  0.96136283  0.41421800  1
  S  S36  1  0.29038421  0.99593336  0.24985911  1
  S  S37  1  0.71002009  0.70602391  0.25037652  1
  S  S38  1  0.00033435  0.29481873  0.24920520  1
  S  S39  1  0.29475724  0.29120314  0.74906748  1
  S  S40  1  0.99646624  0.70777477  0.74914626  1
  S  S41  1  0.96439382  0.33724943  0.58453588  1
  S  S42  1  0.37034526  0.03840707  0.58498025  1
  S  S43  1  0.95954638  0.62936151  0.08612436  1
  S  S44  1  0.66722376  0.03628387  0.08751423  1
  S  S45  1  0.62670584  0.66854236  0.91737650  1
  S  S46  1  0.32739370  0.37130995  0.41523602  1
  S  S47  1  0.04559393  0.66988200  0.41694227  1
  O  O48  1  0.20599070  0.02309157  0.30146962  1
  O  O49  1  0.80811855  0.78528500  0.30503639  1
  O  O50  1  0.97266907  0.18323717  0.30120981  1
  O  O51  1  0.21439418  0.19103187  0.80309170  1
  O  O52  1  0.98099034  0.79034621  0.80303971  1
  O  O53  1  0.80697671  0.01400480  0.81028098  1
  O  O54  1  0.78044454  0.96322829  0.68990580  1
  O  O55  1  0.19403153  0.21037543  0.69471791  1
  O  O56  1  0.02501289  0.81203198  0.69490070  1
  O  O57  1  0.79382326  0.81699409  0.19841946  1
  O  O58  1  0.02657520  0.21737732  0.19495691  1
  O  O59  1  0.19357808  0.97884792  0.19492271  1
  O  O60  1  0.88234309  0.36286293  0.63578392  1
  O  O61  1  0.48304343  0.11626396  0.63563562  1
  O  O62  1  0.63813584  0.50453318  0.64183834  1
  O  O63  1  0.87459545  0.51334534  0.13612388  1
  O  O64  1  0.64465604  0.12247778  0.13933015  1
  O  O65  1  0.47713996  0.35336611  0.14655950  1
  O  O66  1  0.46223289  0.30823337  0.02914110  1
  O  O67  1  0.86085343  0.55093283  0.02998506  1
  O  O68  1  0.69858996  0.14805042  0.03275026  1
  O  O69  1  0.45340006  0.14614164  0.53031206  1
  O  O70  1  0.69097797  0.53218386  0.52547343  1
  O  O71  1  0.85078733  0.30155016  0.53060668  1
  O  O72  1  0.54596613  0.69639837  0.96915896  1
  O  O73  1  0.15227291  0.45094276  0.97830980  1
  O  O74  1  0.30579446  0.84944694  0.98085168  1
  O  O75  1  0.54750301  0.84950742  0.47391493  1
  O  O76  1  0.30426829  0.44731506  0.46961263  1
  O  O77  1  0.13777196  0.68363397  0.47228973  1
  O  O78  1  0.12251924  0.63970149  0.36485159  1
  O  O79  1  0.52341676  0.88341147  0.35380599  1
  O  O80  1  0.35627547  0.47925899  0.36212137  1
  O  O81  1  0.13171740  0.49628395  0.86233601  1
  O  O82  1  0.37189407  0.87329808  0.86421383  1
  O  O83  1  0.52003365  0.63327044  0.86310167  1
  O  O84  1  0.02324264  0.82060850  0.41021032  1
  O  O85  1  0.82162058  0.97609562  0.41033949  1
  O  O86  1  0.18406848  0.19731437  0.40852447  1
  O  O87  1  0.01012354  0.17815536  0.91303483  1
  O  O88  1  0.15845171  0.97493538  0.91008989  1
  O  O89  1  0.79952879  0.81427125  0.91070363  1
  O  O90  1  0.99067185  0.18860066  0.58890742  1
  O  O91  1  0.20356638  0.03131605  0.59019954  1
  O  O92  1  0.84256417  0.81672513  0.58539881  1
  O  O93  1  0.97466041  0.79866143  0.09207756  1
  O  O94  1  0.82163561  0.02171024  0.09218147  1
  O  O95  1  0.17733199  0.15964229  0.08818037  1
  O  O96  1  0.68044185  0.17002877  0.74338130  1
  O  O97  1  0.46982744  0.31893021  0.74543832  1
  O  O98  1  0.84121156  0.53976564  0.74426103  1
  O  O99  1  0.68920330  0.53198890  0.24560819  1
  O  O100  1  0.84267819  0.30850858  0.24319435  1
  O  O101  1  0.46780334  0.15081142  0.24659652  1
  O  O102  1  0.64310790  0.51179664  0.92408180  1
  O  O103  1  0.85019095  0.36011157  0.92391526  1
  O  O104  1  0.49994054  0.15135293  0.92261238  1
  O  O105  1  0.65416825  0.15653243  0.42176754  1
  O  O106  1  0.49212416  0.36401445  0.42098894  1
  O  O107  1  0.86464418  0.51549031  0.42074040  1
  O  O108  1  0.34312941  0.50494794  0.08197882  1
  O  O109  1  0.13276227  0.65087666  0.08173077  1
  O  O110  1  0.51093691  0.87162707  0.07960233  1
  O  O111  1  0.34146200  0.86329537  0.57704036  1
  O  O112  1  0.49202819  0.64301199  0.57998326  1
  O  O113  1  0.13135474  0.49463999  0.57466359  1
  O  O114  1  0.31033646  0.84279683  0.25474894  1
  O  O115  1  0.53306540  0.68334042  0.25374231  1
  O  O116  1  0.15652079  0.46476238  0.25657296  1
  O  O117  1  0.31292369  0.46618831  0.75348172  1
  O  O118  1  0.15026261  0.68510033  0.75241692  1
  O  O119  1  0.51406249  0.81907993  0.75450609  1
