# generated using pymatgen
data_Na2MgGaP(SO6)2
_symmetry_space_group_name_H-M   'P 1'
_cell_length_a   8.72701087
_cell_length_b   8.70011755
_cell_length_c   21.98956448
_cell_angle_alpha   90.55659965
_cell_angle_beta   90.00000000
_cell_angle_gamma   120.10230705
_symmetry_Int_Tables_number   1
_chemical_formula_structural   Na2MgGaP(SO6)2
_chemical_formula_sum   'Na12 Mg6 Ga6 P6 S12 O72'
_cell_volume   1444.31483704
_cell_formula_units_Z   6
loop_
 _symmetry_equiv_pos_site_id
 _symmetry_equiv_pos_as_xyz
  1  'x, y, z'
loop_
 _atom_site_type_symbol
 _atom_site_label
 _atom_site_symmetry_multiplicity
 _atom_site_fract_x
 _atom_site_fract_y
 _atom_site_fract_z
 _atom_site_occupancy
  Na  Na0  1  0.00015865  0.63837912  0.24406666  1
  Na  Na1  1  0.63822047  0.63837912  0.74406666  1
  Na  Na2  1  0.66193263  0.96412863  0.58102974  1
  Na  Na3  1  0.30219700  0.96412863  0.08102974  1
  Na  Na4  1  0.69371082  0.02789115  0.91131338  1
  Na  Na5  1  0.33417933  0.02789115  0.41131338  1
  Na  Na6  1  0.98476999  0.99166988  0.49803871  1
  Na  Na7  1  0.00689989  0.99166988  0.99803871  1
  Na  Na8  1  0.65961810  0.31775637  0.83144736  1
  Na  Na9  1  0.65813927  0.31775637  0.33144736  1
  Na  Na10  1  0.33616280  0.65647408  0.16493430  1
  Na  Na11  1  0.32031028  0.65647408  0.66493430  1
  Mg  Mg12  1  0.99508826  0.00392698  0.35229902  1
  Mg  Mg13  1  0.00883873  0.00392698  0.85229902  1
  Mg  Mg14  1  0.66708916  0.32842655  0.68521823  1
  Mg  Mg15  1  0.66133840  0.32842655  0.18521823  1
  Mg  Mg16  1  0.32423173  0.66490698  0.01872593  1
  Mg  Mg17  1  0.34067425  0.66490698  0.51872593  1
  Ga  Ga18  1  0.99058312  0.98859990  0.65117096  1
  Ga  Ga19  1  0.99801678  0.98859990  0.15117096  1
  Ga  Ga20  1  0.66709901  0.34163607  0.98422394  1
  Ga  Ga21  1  0.67453806  0.34163607  0.48422394  1
  Ga  Ga22  1  0.34792516  0.68591333  0.31762564  1
  Ga  Ga23  1  0.33798717  0.68591333  0.81762564  1
  P  P24  1  0.29661708  -0.00057774  0.25255671  1
  P  P25  1  0.70280518  -0.00057774  0.75255671  1
  P  P26  1  0.67044702  0.62521392  0.58649527  1
  P  P27  1  0.95476790  0.62521392  0.08649527  1
  P  P28  1  0.33744087  0.97014415  0.92150086  1
  P  P29  1  0.63270228  0.97014415  0.42150086  1
  S  S30  1  0.70149933  0.70879056  0.25081511  1
  S  S31  1  0.00600603  0.29306678  0.24988949  1
  S  S32  1  0.28706076  0.29306678  0.74988949  1
  S  S33  1  0.00729124  0.70879056  0.75081511  1
  S  S34  1  0.96229464  0.33330447  0.58425785  1
  S  S35  1  0.36398996  0.04077155  0.58275145  1
  S  S36  1  0.67678259  0.04077155  0.08275145  1
  S  S37  1  0.37101084  0.33330447  0.08425785  1
  S  S38  1  0.62228475  0.65941136  0.91622137  1
  S  S39  1  0.04239276  0.37988153  0.91580198  1
  S  S40  1  0.33748777  0.37988153  0.41580198  1
  S  S41  1  0.03712560  0.65941136  0.41622137  1
  O  O42  1  0.20605583  0.01491591  0.30950759  1
  O  O43  1  0.81353532  0.79506672  0.30390231  1
  O  O44  1  0.98180650  0.18823637  0.30365870  1
  O  O45  1  0.20642987  0.18823637  0.80365870  1
  O  O46  1  0.98153140  0.79506672  0.80390231  1
  O  O47  1  0.80886008  0.01491591  0.80950759  1
  O  O48  1  0.78564528  0.96006095  0.69426088  1
  O  O49  1  0.18086007  0.20781975  0.69331846  1
  O  O50  1  0.03870011  0.81602389  0.69455535  1
  O  O51  1  0.77732378  0.81602389  0.19455535  1
  O  O52  1  0.02695968  0.20781975  0.19331846  1
  O  O53  1  0.17441567  0.96006095  0.19426088  1
  O  O54  1  0.87841721  0.35492817  0.63848694  1
  O  O55  1  0.48489184  0.12818983  0.63422928  1
  O  O56  1  0.65427151  0.52489402  0.64436762  1
  O  O57  1  0.87062351  0.52489402  0.14436762  1
  O  O58  1  0.64329899  0.12818983  0.13422928  1
  O  O59  1  0.47651195  0.35492817  0.13848694  1
  O  O60  1  0.44786725  0.29242376  0.02900277  1
  O  O61  1  0.83839858  0.53539420  0.02865905  1
  O  O62  1  0.70082652  0.14128058  0.02495608  1
  O  O63  1  0.44045507  0.14128058  0.52495608  1
  O  O64  1  0.69699663  0.53539420  0.52865905  1
  O  O65  1  0.84455751  0.29242376  0.52900277  1
  O  O66  1  0.53227422  0.68408553  0.96815600  1
  O  O67  1  0.14623167  0.46109086  0.97031551  1
  O  O68  1  0.31864632  0.86565623  0.97858176  1
  O  O69  1  0.54700891  0.86565623  0.47858176  1
  O  O70  1  0.31485819  0.46109086  0.47031551  1
  O  O71  1  0.15181031  0.68408553  0.46815600  1
  O  O72  1  0.11271017  0.63232648  0.35795403  1
  O  O73  1  0.50340489  0.88478978  0.36504645  1
  O  O74  1  0.35802157  0.48526269  0.35989700  1
  O  O75  1  0.12724013  0.48526269  0.85989700  1
  O  O76  1  0.38138389  0.88478978  0.86504645  1
  O  O77  1  0.51961531  0.63232648  0.85795403  1
  O  O78  1  0.02233640  0.82168572  0.41168356  1
  O  O79  1  0.81414711  0.99181462  0.41142433  1
  O  O80  1  0.18372008  0.19654816  0.41041584  1
  O  O81  1  0.01282807  0.19654816  0.91041584  1
  O  O82  1  0.17766751  0.99181462  0.91142433  1
  O  O83  1  0.79934932  0.82168572  0.91168356  1
  O  O84  1  0.97814706  0.16924195  0.58916133  1
  O  O85  1  0.18898282  0.02850028  0.59025930  1
  O  O86  1  0.84038052  0.81880523  0.58855509  1
  O  O87  1  0.97842471  0.81880523  0.08855509  1
  O  O88  1  0.83951746  0.02850028  0.09025930  1
  O  O89  1  0.19109489  0.16924195  0.08916133  1
  O  O90  1  0.67902826  0.15919620  0.74448337  1
  O  O91  1  0.46938559  0.32123041  0.74433725  1
  O  O92  1  0.84569222  0.53216262  0.74441199  1
  O  O93  1  0.68647140  0.53216262  0.24441199  1
  O  O94  1  0.85184583  0.32123041  0.24433725  1
  O  O95  1  0.48016894  0.15919620  0.24448337  1
  O  O96  1  0.64248026  0.50013820  0.92122108  1
  O  O97  1  0.86098306  0.36037308  0.91929170  1
  O  O98  1  0.51538686  0.15709487  0.92570414  1
  O  O99  1  0.64170901  0.15709487  0.42570414  1
  O  O100  1  0.49939102  0.36037308  0.41929170  1
  O  O101  1  0.85765893  0.50013820  0.42122108  1
  O  O102  1  0.35399590  0.49054732  0.07590910  1
  O  O103  1  0.14292047  0.65329876  0.08001107  1
  O  O104  1  0.51933905  0.86016299  0.07754740  1
  O  O105  1  0.34082294  0.86016299  0.57754740  1
  O  O106  1  0.51037729  0.65329876  0.58001107  1
  O  O107  1  0.13655041  0.49054732  0.57590910  1
  O  O108  1  0.30586117  0.82137776  0.25567847  1
  O  O109  1  0.52100769  0.68593860  0.25653549  1
  O  O110  1  0.16835275  0.47442190  0.25412973  1
  O  O111  1  0.30606815  0.47442190  0.75412973  1
  O  O112  1  0.16492991  0.68593860  0.75653549  1
  O  O113  1  0.51551559  0.82137776  0.75567847  1
