# generated using pymatgen
data_Na2Ti3ZnSi2(SO6)4
_symmetry_space_group_name_H-M   'P 1'
_cell_length_a   8.69638803
_cell_length_b   8.68485229
_cell_length_c   22.55037198
_cell_angle_alpha   89.70396192
_cell_angle_beta   89.96065390
_cell_angle_gamma   120.06288609
_symmetry_Int_Tables_number   1
_chemical_formula_structural   Na2Ti3ZnSi2(SO6)4
_chemical_formula_sum   'Na6 Ti9 Zn3 Si6 S12 O72'
_cell_volume   1474.01270735
_cell_formula_units_Z   3
loop_
 _symmetry_equiv_pos_site_id
 _symmetry_equiv_pos_as_xyz
  1  'x, y, z'
loop_
 _atom_site_type_symbol
 _atom_site_label
 _atom_site_symmetry_multiplicity
 _atom_site_fract_x
 _atom_site_fract_y
 _atom_site_fract_z
 _atom_site_occupancy
  Na  Na0  1  0.99425107  0.99391946  0.50491145  1
  Na  Na1  1  0.00952063  0.00649413  0.00125603  1
  Na  Na2  1  0.66929685  0.32914275  0.83408392  1
  Na  Na3  1  0.66527096  0.32669586  0.33418615  1
  Na  Na4  1  0.33383321  0.66501299  0.16613886  1
  Na  Na5  1  0.34098220  0.67038504  0.66930494  1
  Ti  Ti6  1  0.98779509  0.99953560  0.35416120  1
  Ti  Ti7  1  0.99903741  0.01807884  0.85596422  1
  Ti  Ti8  1  0.66394764  0.33615493  0.69019461  1
  Ti  Ti9  1  0.65539699  0.33484556  0.18235394  1
  Ti  Ti10  1  0.65021354  0.31756442  0.97595604  1
  Ti  Ti11  1  0.67308881  0.33843357  0.48212994  1
  Ti  Ti12  1  0.31806360  0.65066776  0.01763438  1
  Ti  Ti13  1  0.35902373  0.67775652  0.52182571  1
  Ti  Ti14  1  0.33338765  0.68353202  0.81532681  1
  Zn  Zn15  1  0.98041074  0.98536465  0.64840653  1
  Zn  Zn16  1  0.00946574  0.00792666  0.14604423  1
  Zn  Zn17  1  0.33799306  0.67521034  0.31730367  1
  Si  Si18  1  0.70802829  0.99733491  0.74898744  1
  Si  Si19  1  0.67501463  0.62582749  0.58399585  1
  Si  Si20  1  0.37054522  0.33448737  0.08055015  1
  Si  Si21  1  0.04130019  0.38166711  0.91515660  1
  Si  Si22  1  0.32359661  0.95019763  0.91808814  1
  Si  Si23  1  0.62076261  0.96230653  0.41472573  1
  S  S24  1  0.28926723  0.99836235  0.24973743  1
  S  S25  1  0.71045995  0.71028064  0.24866322  1
  S  S26  1  0.00147802  0.29384967  0.24985901  1
  S  S27  1  0.28774410  0.29097778  0.74906762  1
  S  S28  1  0.00105726  0.71180332  0.75017824  1
  S  S29  1  0.95733659  0.33683321  0.58312594  1
  S  S30  1  0.37854837  0.04647772  0.58328769  1
  S  S31  1  0.95209647  0.61977806  0.08252352  1
  S  S32  1  0.66515614  0.04438268  0.08310692  1
  S  S33  1  0.62129508  0.66702390  0.91654397  1
  S  S34  1  0.33385289  0.37586214  0.41650043  1
  S  S35  1  0.04438913  0.66716516  0.41657626  1
  O  O36  1  0.20803803  0.02989586  0.30360809  1
  O  O37  1  0.82403959  0.79528320  0.30323280  1
  O  O38  1  0.97264276  0.17573722  0.30446149  1
  O  O39  1  0.21077596  0.17824384  0.80330177  1
  O  O40  1  0.97019167  0.78805383  0.80331922  1
  O  O41  1  0.83459628  0.02999672  0.80831766  1
  O  O42  1  0.78451242  0.96169777  0.69092672  1
  O  O43  1  0.18643221  0.21397733  0.69500011  1
  O  O44  1  0.03760213  0.81546471  0.69540477  1
  O  O45  1  0.79313631  0.81851986  0.19567837  1
  O  O46  1  0.02776805  0.21291933  0.19715104  1
  O  O47  1  0.18412141  0.97392871  0.19645208  1
  O  O48  1  0.87268761  0.36295718  0.63617813  1
  O  O49  1  0.49013296  0.12149989  0.63679268  1
  O  O50  1  0.63486731  0.49079157  0.64081976  1
  O  O51  1  0.87041396  0.50632869  0.13811595  1
  O  O52  1  0.64076026  0.13332443  0.13748347  1
  O  O53  1  0.50433164  0.36359245  0.14006904  1
  O  O54  1  0.48313478  0.31263432  0.02629836  1
  O  O55  1  0.84660158  0.53547650  0.03003698  1
  O  O56  1  0.69545428  0.15650040  0.02974935  1
  O  O57  1  0.46555876  0.15352658  0.52914284  1
  O  O58  1  0.68437897  0.51586024  0.52582795  1
  O  O59  1  0.84397418  0.30836147  0.52906182  1
  O  O60  1  0.54275765  0.69754011  0.97058963  1
  O  O61  1  0.16780992  0.46540163  0.97455070  1
  O  O62  1  0.30571618  0.82974474  0.97610145  1
  O  O63  1  0.53284752  0.83240209  0.47452256  1
  O  O64  1  0.29959081  0.45460608  0.46991077  1
  O  O65  1  0.15214042  0.69528203  0.46996236  1
  O  O66  1  0.11227286  0.63066880  0.36239241  1
  O  O67  1  0.50848337  0.88119118  0.35719472  1
  O  O68  1  0.36463859  0.47992168  0.36231787  1
  O  O69  1  0.14109201  0.50242202  0.85787728  1
  O  O70  1  0.36861058  0.86783573  0.85962624  1
  O  O71  1  0.51208937  0.63485572  0.86310976  1
  O  O72  1  0.02539469  0.82969049  0.40904901  1
  O  O73  1  0.82211026  0.97910488  0.40622573  1
  O  O74  1  0.17241563  0.19356467  0.41009654  1
  O  O75  1  0.02409746  0.18503522  0.90964875  1
  O  O76  1  0.15210754  0.97081735  0.90657598  1
  O  O77  1  0.80077450  0.82515200  0.91028383  1
  O  O78  1  0.97900122  0.18116370  0.58642276  1
  O  O79  1  0.20415366  0.03090393  0.58847461  1
  O  O80  1  0.84585002  0.81744115  0.58303453  1
  O  O81  1  0.96837331  0.79464700  0.08994728  1
  O  O82  1  0.82249027  0.02608042  0.08981425  1
  O  O83  1  0.18342208  0.15886587  0.08711684  1
  O  O84  1  0.68554851  0.17646232  0.74072341  1
  O  O85  1  0.46938993  0.30637750  0.74441989  1
  O  O86  1  0.83858885  0.52853804  0.74372542  1
  O  O87  1  0.70106263  0.53122466  0.24484704  1
  O  O88  1  0.83622337  0.30558785  0.24569675  1
  O  O89  1  0.47289578  0.16494676  0.24378611  1
  O  O90  1  0.64218437  0.50826753  0.92341133  1
  O  O91  1  0.84938574  0.36178448  0.92711915  1
  O  O92  1  0.50347013  0.14682393  0.92428695  1
  O  O93  1  0.65386207  0.15965296  0.42878952  1
  O  O94  1  0.49112797  0.35304858  0.42498410  1
  O  O95  1  0.86133305  0.50938380  0.42455185  1
  O  O96  1  0.36846890  0.52141266  0.07653033  1
  O  O97  1  0.13172712  0.63605923  0.07939788  1
  O  O98  1  0.50191877  0.87025301  0.07889284  1
  O  O99  1  0.35813241  0.86438907  0.57569648  1
  O  O100  1  0.48553880  0.63161128  0.57487801  1
  O  O101  1  0.13144387  0.50207236  0.57470431  1
  O  O102  1  0.31073904  0.84218309  0.25539596  1
  O  O103  1  0.53206611  0.68371028  0.25561572  1
  O  O104  1  0.15827835  0.46922352  0.25874469  1
  O  O105  1  0.31281080  0.46991647  0.75742730  1
  O  O106  1  0.15685090  0.68363172  0.75685483  1
  O  O107  1  0.50965177  0.82318955  0.76038705  1
