# generated using pymatgen
data_Sn3BrF5
_symmetry_space_group_name_H-M   'P 1'
_cell_length_a   12.65411270
_cell_length_b   4.25930922
_cell_length_c   13.38500699
_cell_angle_alpha   71.66885487
_cell_angle_beta   90.00000000
_cell_angle_gamma   90.00000000
_symmetry_Int_Tables_number   1
_chemical_formula_structural   Sn3BrF5
_chemical_formula_sum   'Sn12 Br4 F20'
_cell_volume   684.81333259
_cell_formula_units_Z   4
loop_
 _symmetry_equiv_pos_site_id
 _symmetry_equiv_pos_as_xyz
  1  'x, y, z'
loop_
 _atom_site_type_symbol
 _atom_site_label
 _atom_site_symmetry_multiplicity
 _atom_site_fract_x
 _atom_site_fract_y
 _atom_site_fract_z
 _atom_site_occupancy
  Sn  Sn0  1  0.12407034  0.03177650  0.34263216  1
  Sn  Sn1  1  0.62407034  0.96822350  0.15736784  1
  Sn  Sn2  1  0.87592966  0.96822350  0.65736784  1
  Sn  Sn3  1  0.37592966  0.03177650  0.84263216  1
  Sn  Sn4  1  0.34230742  0.44705693  0.12784726  1
  Sn  Sn5  1  0.84230742  0.55294307  0.37215274  1
  Sn  Sn6  1  0.65769258  0.55294307  0.87215274  1
  Sn  Sn7  1  0.15769258  0.44705693  0.62784726  1
  Sn  Sn8  1  0.39757455  0.54046514  0.39813816  1
  Sn  Sn9  1  0.89757455  0.45953486  0.10186184  1
  Sn  Sn10  1  0.60242545  0.45953486  0.60186184  1
  Sn  Sn11  1  0.10242545  0.54046514  0.89813816  1
  Br  Br12  1  0.12257168  0.86479577  0.12261567  1
  Br  Br13  1  0.62257168  0.13520423  0.37738433  1
  Br  Br14  1  0.87742832  0.13520423  0.87738433  1
  Br  Br15  1  0.37742832  0.86479577  0.62261567  1
  F  F16  1  0.34324254  0.14194817  0.34197367  1
  F  F17  1  0.84324254  0.85805183  0.15802633  1
  F  F18  1  0.65675746  0.85805183  0.65802633  1
  F  F19  1  0.15675746  0.14194817  0.84197367  1
  F  F20  1  0.01133041  0.62706621  0.37828901  1
  F  F21  1  0.51133041  0.37293379  0.12171099  1
  F  F22  1  0.98866959  0.37293379  0.62171099  1
  F  F23  1  0.48866959  0.62706621  0.87828901  1
  F  F24  1  0.38230261  0.91937359  0.01262723  1
  F  F25  1  0.88230261  0.08062641  0.48737277  1
  F  F26  1  0.61769739  0.08062641  0.98737277  1
  F  F27  1  0.11769739  0.91937359  0.51262723  1
  F  F28  1  0.22504842  0.59237395  0.39627120  1
  F  F29  1  0.72504842  0.40762605  0.10372880  1
  F  F30  1  0.77495158  0.40762605  0.60372880  1
  F  F31  1  0.27495158  0.59237395  0.89627120  1
  F  F32  1  0.10134213  0.73913996  0.72553961  1
  F  F33  1  0.60134213  0.26086004  0.77446039  1
  F  F34  1  0.89865787  0.26086004  0.27446039  1
  F  F35  1  0.39865787  0.73913996  0.22553961  1
