# generated using pymatgen
data_Na5Ta2Si5Sn2PO24
_symmetry_space_group_name_H-M   'P 1'
_cell_length_a   9.00687780
_cell_length_b   9.01693849
_cell_length_c   22.48387458
_cell_angle_alpha   90.03405634
_cell_angle_beta   90.10216619
_cell_angle_gamma   120.02840257
_symmetry_Int_Tables_number   1
_chemical_formula_structural   Na5Ta2Si5Sn2PO24
_chemical_formula_sum   'Na15 Ta6 Si15 Sn6 P3 O72'
_cell_volume   1580.91843949
_cell_formula_units_Z   3
loop_
 _symmetry_equiv_pos_site_id
 _symmetry_equiv_pos_as_xyz
  1  'x, y, z'
loop_
 _atom_site_type_symbol
 _atom_site_label
 _atom_site_symmetry_multiplicity
 _atom_site_fract_x
 _atom_site_fract_y
 _atom_site_fract_z
 _atom_site_occupancy
  Na  Na0  1  0.64211679  0.00519874  0.25006570  1
  Na  Na1  1  0.36687939  0.36104018  0.24753705  1
  Na  Na2  1  0.99177080  0.63179747  0.24815656  1
  Na  Na3  1  0.99690741  0.36151308  0.74932274  1
  Na  Na4  1  0.03484296  0.70033249  0.57830273  1
  Na  Na5  1  0.66138161  0.96340134  0.57850816  1
  Na  Na6  1  0.96985167  0.66883774  0.92034226  1
  Na  Na7  1  0.70277809  0.03559009  0.91723347  1
  Na  Na8  1  0.32652693  0.29644249  0.92095451  1
  Na  Na9  1  0.00605474  0.00625907  0.49142859  1
  Na  Na10  1  0.00698120  0.00309582  0.00525650  1
  Na  Na11  1  0.65691487  0.33033776  0.83086964  1
  Na  Na12  1  0.66913992  0.33452709  0.33454193  1
  Na  Na13  1  0.32913485  0.65984877  0.15991907  1
  Na  Na14  1  0.34305756  0.66459802  0.66313867  1
  Ta  Ta15  1  0.00249465  0.00273257  0.64518970  1
  Ta  Ta16  1  0.00325306  0.99889419  0.14503775  1
  Ta  Ta17  1  0.66278471  0.33387186  0.68677540  1
  Ta  Ta18  1  0.66808087  0.33186715  0.47605086  1
  Ta  Ta19  1  0.33140424  0.66815387  0.31444326  1
  Ta  Ta20  1  0.33255816  0.67268915  0.80951185  1
  Si  Si21  1  0.28968392  0.00122228  0.25090340  1
  Si  Si22  1  0.71051024  0.71003256  0.24990054  1
  Si  Si23  1  0.99876709  0.28673999  0.25024533  1
  Si  Si24  1  0.29454802  0.29141092  0.75136884  1
  Si  Si25  1  0.99686237  0.70985189  0.75050924  1
  Si  Si26  1  0.70836507  0.99796615  0.74963956  1
  Si  Si27  1  0.95666362  0.33363946  0.58316308  1
  Si  Si28  1  0.37780500  0.04806389  0.58172743  1
  Si  Si29  1  0.66341611  0.61949667  0.58208272  1
  Si  Si30  1  0.96133062  0.62871495  0.08324175  1
  Si  Si31  1  0.37169602  0.33469506  0.08265325  1
  Si  Si32  1  0.04204116  0.37384069  0.91577327  1
  Si  Si33  1  0.33292009  0.95681088  0.91765716  1
  Si  Si34  1  0.62876332  0.95887580  0.41856035  1
  Si  Si35  1  0.04145335  0.67067119  0.41849550  1
  Sn  Sn36  1  0.99777341  0.99738631  0.35398608  1
  Sn  Sn37  1  0.00433916  0.00173889  0.85018910  1
  Sn  Sn38  1  0.66697631  0.33499708  0.18316457  1
  Sn  Sn39  1  0.66592622  0.33291470  0.98351206  1
  Sn  Sn40  1  0.32590670  0.66109041  0.02235759  1
  Sn  Sn41  1  0.33367756  0.66500803  0.51942109  1
  P  P42  1  0.66776434  0.03731907  0.08299930  1
  P  P43  1  0.61935960  0.66830432  0.91609639  1
  P  P44  1  0.33302114  0.37630264  0.41690852  1
  O  O45  1  0.21408186  0.05169664  0.30729489  1
  O  O46  1  0.83627854  0.78601998  0.30678968  1
  O  O47  1  0.95302387  0.16451528  0.30767691  1
  O  O48  1  0.22368638  0.18567969  0.81327915  1
  O  O49  1  0.96226532  0.78214974  0.81199229  1
  O  O50  1  0.82648239  0.04304316  0.80969323  1
  O  O51  1  0.80360755  0.97245358  0.69177672  1
  O  O52  1  0.16063363  0.19306414  0.69597771  1
  O  O53  1  0.02540830  0.83159219  0.69291301  1
  O  O54  1  0.79949842  0.83983899  0.19335607  1
  O  O55  1  0.03734992  0.19757982  0.19334777  1
  O  O56  1  0.16039921  0.96062718  0.19367163  1
  O  O57  1  0.86808834  0.36281376  0.64266970  1
  O  O58  1  0.50347352  0.14162097  0.63924697  1
  O  O59  1  0.64402838  0.50222354  0.64050412  1
  O  O60  1  0.87813010  0.51451789  0.14291399  1
  O  O61  1  0.63994215  0.11932126  0.13919939  1
  O  O62  1  0.48094100  0.35711554  0.14317787  1
  O  O63  1  0.44780208  0.29627365  0.02115765  1
  O  O64  1  0.84935737  0.54941239  0.02137484  1
  O  O65  1  0.69923017  0.14611082  0.02523803  1
  O  O66  1  0.47127481  0.16916636  0.52462968  1
  O  O67  1  0.70069926  0.52948291  0.52573052  1
  O  O68  1  0.82704124  0.29890527  0.52673189  1
  O  O69  1  0.54466838  0.70519609  0.97146423  1
  O  O70  1  0.17190941  0.45440871  0.97139694  1
  O  O71  1  0.29596208  0.83313910  0.97389855  1
  O  O72  1  0.54712577  0.84921792  0.47933134  1
  O  O73  1  0.30500090  0.45767057  0.47273258  1
  O  O74  1  0.14886608  0.69310427  0.47949913  1
  O  O75  1  0.13865072  0.64199891  0.35987502  1
  O  O76  1  0.50454516  0.85712838  0.35996072  1
  O  O77  1  0.35607595  0.48902111  0.36041618  1
  O  O78  1  0.13402189  0.49604727  0.85664672  1
  O  O79  1  0.36389411  0.86153877  0.85950227  1
  O  O80  1  0.50289513  0.64141324  0.86114763  1
  O  O81  1  0.02814823  0.84203126  0.41313738  1
  O  O82  1  0.81934866  0.98573768  0.41347758  1
  O  O83  1  0.17615634  0.19810727  0.41101750  1
  O  O84  1  0.01328621  0.17866607  0.91163098  1
  O  O85  1  0.16009716  0.97415276  0.91257577  1
  O  O86  1  0.80166662  0.82741899  0.90992964  1
  O  O87  1  0.96424757  0.15582912  0.58993849  1
  O  O88  1  0.18551652  0.02332004  0.59043368  1
  O  O89  1  0.83897063  0.80971783  0.59067144  1
  O  O90  1  0.97085774  0.81546060  0.08995025  1
  O  O91  1  0.83148245  0.02423198  0.08999408  1
  O  O92  1  0.18037177  0.16236985  0.08978113  1
  O  O93  1  0.69358743  0.17030001  0.74127778  1
  O  O94  1  0.48382571  0.31536424  0.74199549  1
  O  O95  1  0.83766264  0.51393446  0.74307693  1
  O  O96  1  0.68186074  0.51604825  0.24448168  1
  O  O97  1  0.83205046  0.31281197  0.24318085  1
  O  O98  1  0.48478482  0.16125640  0.24272929  1
  O  O99  1  0.63337877  0.50308379  0.91886675  1
  O  O100  1  0.85341028  0.36274972  0.92007807  1
  O  O101  1  0.50771397  0.14723282  0.91972695  1
  O  O102  1  0.63359137  0.14469271  0.42167047  1
  O  O103  1  0.50007799  0.36668695  0.42163499  1
  O  O104  1  0.85235028  0.49374512  0.42227378  1
  O  O105  1  0.36243514  0.50992045  0.07965145  1
  O  O106  1  0.15290946  0.65402893  0.08123037  1
  O  O107  1  0.50905964  0.85862424  0.07774497  1
  O  O108  1  0.35909702  0.85795442  0.58051771  1
  O  O109  1  0.50033340  0.64951172  0.58039206  1
  O  O110  1  0.14231094  0.50733321  0.57957759  1
  O  O111  1  0.30303407  0.82473946  0.25769149  1
  O  O112  1  0.51858758  0.69148166  0.25733061  1
  O  O113  1  0.17327120  0.47775719  0.25726916  1
  O  O114  1  0.30311651  0.47778903  0.75637187  1
  O  O115  1  0.16907565  0.68853846  0.75584844  1
  O  O116  1  0.52013373  0.82610649  0.75615277  1
