# generated using pymatgen
data_NaTi2Nb2SiP5O24
_symmetry_space_group_name_H-M   'P 1'
_cell_length_a   8.71937469
_cell_length_b   8.72062705
_cell_length_c   22.50462485
_cell_angle_alpha   90.00083375
_cell_angle_beta   89.91592882
_cell_angle_gamma   120.00805585
_symmetry_Int_Tables_number   1
_chemical_formula_structural   NaTi2Nb2SiP5O24
_chemical_formula_sum   'Na3 Ti6 Nb6 Si3 P15 O72'
_cell_volume   1481.83410532
_cell_formula_units_Z   3
loop_
 _symmetry_equiv_pos_site_id
 _symmetry_equiv_pos_as_xyz
  1  'x, y, z'
loop_
 _atom_site_type_symbol
 _atom_site_label
 _atom_site_symmetry_multiplicity
 _atom_site_fract_x
 _atom_site_fract_y
 _atom_site_fract_z
 _atom_site_occupancy
  Na  Na0  1  0.99988877  0.99950150  0.99945381  1
  Na  Na1  1  0.66644423  0.33307092  0.83010115  1
  Na  Na2  1  0.66650628  0.33309332  0.33703312  1
  Ti  Ti3  1  0.00014085  0.99559215  0.85515264  1
  Ti  Ti4  1  0.00200785  0.00436785  0.14950930  1
  Ti  Ti5  1  0.66597609  0.33340541  0.68497079  1
  Ti  Ti6  1  0.66736586  0.33362290  0.47977145  1
  Ti  Ti7  1  0.33338368  0.66707146  0.52219693  1
  Ti  Ti8  1  0.32964484  0.66321956  0.31025485  1
  Nb  Nb9  1  0.99827533  0.00300874  0.35951115  1
  Nb  Nb10  1  0.00033500  0.00041170  0.64168327  1
  Nb  Nb11  1  0.66805962  0.33411594  0.18989725  1
  Nb  Nb12  1  0.66491069  0.33371811  0.97675942  1
  Nb  Nb13  1  0.33617461  0.67144555  0.02284038  1
  Nb  Nb14  1  0.33851654  0.66989088  0.80820901  1
  Si  Si15  1  0.00644356  0.28993833  0.25048589  1
  Si  Si16  1  0.62447646  0.67298620  0.91543836  1
  Si  Si17  1  0.32782833  0.95211090  0.91548105  1
  P  P18  1  0.28235454  0.99459599  0.25051020  1
  P  P19  1  0.71212071  0.71813934  0.25056301  1
  P  P20  1  0.28806314  0.28244847  0.75009153  1
  P  P21  1  0.99393715  0.71034456  0.74985175  1
  P  P22  1  0.71883437  0.00748923  0.75005832  1
  P  P23  1  0.95313641  0.33905595  0.58249815  1
  P  P24  1  0.38588072  0.04693971  0.58243843  1
  P  P25  1  0.66121693  0.61442214  0.58242405  1
  P  P26  1  0.95452023  0.62586011  0.08381550  1
  P  P27  1  0.67211958  0.04630987  0.08403757  1
  P  P28  1  0.37357396  0.32841473  0.08406284  1
  P  P29  1  0.04927964  0.37791688  0.91590491  1
  P  P30  1  0.61130020  0.95116466  0.41717281  1
  P  P31  1  0.33994111  0.38784193  0.41732459  1
  P  P32  1  0.04850151  0.66171225  0.41727644  1
  O  O33  1  0.20111770  0.03241991  0.30538192  1
  O  O34  1  0.83175555  0.79650406  0.30551384  1
  O  O35  1  0.96680618  0.16150207  0.30781857  1
  O  O36  1  0.20180788  0.16860809  0.80521197  1
  O  O37  1  0.96633744  0.79771502  0.80517107  1
  O  O38  1  0.83066792  0.03338060  0.80523966  1
  O  O39  1  0.80228269  0.97394163  0.69441355  1
  O  O40  1  0.17148625  0.19711795  0.69443883  1
  O  O41  1  0.02665561  0.82823813  0.69458047  1
  O  O42  1  0.80091876  0.82906712  0.19453000  1
  O  O43  1  0.03063605  0.19368715  0.19183485  1
  O  O44  1  0.17044399  0.96891154  0.19440323  1
  O  O45  1  0.86487487  0.36446456  0.63837468  1
  O  O46  1  0.49929744  0.13486603  0.63828137  1
  O  O47  1  0.63543445  0.50049053  0.63827356  1
  O  O48  1  0.86504165  0.50583467  0.13861985  1
  O  O49  1  0.63966542  0.13376431  0.13863680  1
  O  O50  1  0.49239910  0.36020533  0.13842611  1
  O  O51  1  0.46469136  0.30169186  0.02864103  1
  O  O52  1  0.83779680  0.53550701  0.02876351  1
  O  O53  1  0.69905990  0.16165189  0.02875832  1
  O  O54  1  0.46909912  0.16653612  0.52787571  1
  O  O55  1  0.69760243  0.53097063  0.52790204  1
  O  O56  1  0.83358562  0.30254873  0.52799814  1
  O  O57  1  0.53032908  0.69775682  0.97452482  1
  O  O58  1  0.16090313  0.46313115  0.97218100  1
  O  O59  1  0.29862330  0.83201491  0.97468576  1
  O  O60  1  0.52988420  0.83625750  0.47275964  1
  O  O61  1  0.30534759  0.46877301  0.47261670  1
  O  O62  1  0.16359749  0.69399161  0.47255673  1
  O  O63  1  0.13261035  0.63335194  0.36144332  1
  O  O64  1  0.50220764  0.86891883  0.36136162  1
  O  O65  1  0.36726780  0.49885840  0.36143822  1
  O  O66  1  0.12908549  0.49491664  0.86079630  1
  O  O67  1  0.36439211  0.86223958  0.85819475  1
  O  O68  1  0.49725488  0.63170828  0.85804528  1
  O  O69  1  0.02705667  0.82693623  0.40738814  1
  O  O70  1  0.79926724  0.97064897  0.40861536  1
  O  O71  1  0.17385732  0.19914414  0.40808186  1
  O  O72  1  0.02597350  0.19345884  0.90888463  1
  O  O73  1  0.15937254  0.97921913  0.90793415  1
  O  O74  1  0.81748491  0.84500179  0.90790913  1
  O  O75  1  0.97234553  0.17225015  0.59306684  1
  O  O76  1  0.19978729  0.02750874  0.59302355  1
  O  O77  1  0.82791546  0.80022822  0.59315420  1
  O  O78  1  0.97437001  0.80880781  0.09093800  1
  O  O79  1  0.83417547  0.02369365  0.09094490  1
  O  O80  1  0.19106603  0.16213086  0.09020419  1
  O  O81  1  0.69301751  0.16833088  0.74160959  1
  O  O82  1  0.47440295  0.30664164  0.74152143  1
  O  O83  1  0.83050506  0.52513849  0.74173365  1
  O  O84  1  0.69090375  0.52967465  0.24166658  1
  O  O85  1  0.82919206  0.30907046  0.24178731  1
  O  O86  1  0.46881143  0.16411929  0.24160836  1
  O  O87  1  0.64555427  0.49805850  0.92465552  1
  O  O88  1  0.86352858  0.35963350  0.92474431  1
  O  O89  1  0.50602829  0.14535966  0.92474442  1
  O  O90  1  0.64087083  0.14068538  0.42543045  1
  O  O91  1  0.50118015  0.36040633  0.42515826  1
  O  O92  1  0.86011704  0.49919654  0.42529241  1
  O  O93  1  0.35632357  0.49329563  0.07487049  1
  O  O94  1  0.13473971  0.63724103  0.07570410  1
  O  O95  1  0.50363947  0.86399051  0.07621421  1
  O  O96  1  0.36093172  0.86221863  0.57300434  1
  O  O97  1  0.50127945  0.63890054  0.57290049  1
  O  O98  1  0.13783801  0.49878866  0.57295668  1
  O  O99  1  0.30861015  0.83674581  0.25989727  1
  O  O100  1  0.52958881  0.69570862  0.25994321  1
  O  O101  1  0.17497322  0.48315781  0.26128412  1
  O  O102  1  0.30422016  0.46643927  0.75783619  1
  O  O103  1  0.15941617  0.69108119  0.75833293  1
  O  O104  1  0.53286363  0.83898357  0.75715155  1
