# generated using pymatgen
data_Na7Si5Ge4PO24
_symmetry_space_group_name_H-M   'P 1'
_cell_length_a   8.74564061
_cell_length_b   8.74966950
_cell_length_c   21.54365258
_cell_angle_alpha   90.15138578
_cell_angle_beta   89.49835543
_cell_angle_gamma   120.09099072
_symmetry_Int_Tables_number   1
_chemical_formula_structural   Na7Si5Ge4PO24
_chemical_formula_sum   'Na21 Si15 Ge12 P3 O72'
_cell_volume   1426.31938485
_cell_formula_units_Z   3
loop_
 _symmetry_equiv_pos_site_id
 _symmetry_equiv_pos_as_xyz
  1  'x, y, z'
loop_
 _atom_site_type_symbol
 _atom_site_label
 _atom_site_symmetry_multiplicity
 _atom_site_fract_x
 _atom_site_fract_y
 _atom_site_fract_z
 _atom_site_occupancy
  Na  Na0  1  0.63315630  0.99964331  0.25044136  1
  Na  Na1  1  0.36805676  0.36743254  0.24921080  1
  Na  Na2  1  0.00051523  0.63079753  0.25030391  1
  Na  Na3  1  0.63207226  0.63153569  0.74947386  1
  Na  Na4  1  0.99967062  0.36843123  0.75020433  1
  Na  Na5  1  0.36962006  0.00118260  0.75051214  1
  Na  Na6  1  0.29863144  0.33290636  0.58336157  1
  Na  Na7  1  0.03553514  0.70272644  0.58334193  1
  Na  Na8  1  0.66837423  0.96535402  0.58343122  1
  Na  Na9  1  0.29610245  0.96684198  0.08218205  1
  Na  Na10  1  0.03621118  0.33582676  0.08456015  1
  Na  Na11  1  0.96665487  0.66831515  0.91691981  1
  Na  Na12  1  0.33248545  0.29656086  0.91808620  1
  Na  Na13  1  0.33084756  0.03361349  0.41666652  1
  Na  Na14  1  0.70168061  0.66572943  0.41796461  1
  Na  Na15  1  0.99784485  0.00657476  0.49877471  1
  Na  Na16  1  0.98521442  0.99358243  0.00011338  1
  Na  Na17  1  0.66767434  0.32348872  0.83449888  1
  Na  Na18  1  0.67660558  0.33218570  0.33470850  1
  Na  Na19  1  0.34200868  0.66653709  0.16527518  1
  Na  Na20  1  0.33408447  0.66705745  0.66670658  1
  Si  Si21  1  0.28723014  0.00060680  0.25002201  1
  Si  Si22  1  0.71425777  0.71467336  0.25015846  1
  Si  Si23  1  -0.00013282  0.28439269  0.24972642  1
  Si  Si24  1  0.28780793  0.28739168  0.75020475  1
  Si  Si25  1  0.99913002  0.71458771  0.75037756  1
  Si  Si26  1  0.71486292  -0.00013216  0.75072430  1
  Si  Si27  1  0.95505752  0.33306072  0.58360349  1
  Si  Si28  1  0.38208751  0.04968735  0.58299727  1
  Si  Si29  1  0.66634678  0.61877593  0.58272775  1
  Si  Si30  1  0.94811519  0.62218989  0.08252757  1
  Si  Si31  1  0.38365001  0.33984909  0.08326197  1
  Si  Si32  1  0.03966964  0.37261052  0.91659130  1
  Si  Si33  1  0.33827471  0.95534698  0.91720931  1
  Si  Si34  1  0.62476884  0.95846476  0.41631799  1
  Si  Si35  1  0.04426087  0.66255029  0.41668500  1
  Ge  Ge36  1  0.99434074  0.99723419  0.35318408  1
  Ge  Ge37  1  0.00181635  0.00452866  0.85364757  1
  Ge  Ge38  1  0.99988571  0.00049515  0.64611907  1
  Ge  Ge39  1  0.00109040  0.99717247  0.14659709  1
  Ge  Ge40  1  0.66790405  0.33420817  0.68740887  1
  Ge  Ge41  1  0.66751248  0.33818095  0.18769813  1
  Ge  Ge42  1  0.66700818  0.32721807  0.98023442  1
  Ge  Ge43  1  0.67758227  0.33097512  0.48040398  1
  Ge  Ge44  1  0.32650569  0.65858058  0.01973796  1
  Ge  Ge45  1  0.33583468  0.67175363  0.52046833  1
  Ge  Ge46  1  0.33040202  0.66979853  0.31236867  1
  Ge  Ge47  1  0.32987932  0.66988641  0.81271201  1
  P  P48  1  0.66668182  0.04307977  0.08335676  1
  P  P49  1  0.61880599  0.67156702  0.91681165  1
  P  P50  1  0.32816272  0.37917699  0.41642240  1
  O  O51  1  0.20567201  0.04664924  0.31138316  1
  O  O52  1  0.83851142  0.79012036  0.31190516  1
  O  O53  1  0.95282207  0.15221016  0.30881992  1
  O  O54  1  0.20843011  0.16052244  0.81135818  1
  O  O55  1  0.95574631  0.79669020  0.81198350  1
  O  O56  1  0.84758205  0.04654342  0.80902673  1
  O  O57  1  0.79275725  0.95386181  0.68806814  1
  O  O58  1  0.16108679  0.20737855  0.68923755  1
  O  O59  1  0.04393707  0.84070683  0.68899889  1
  O  O60  1  0.79840426  0.84867394  0.19138290  1
  O  O61  1  0.04458487  0.20581900  0.18724201  1
  O  O62  1  0.16180117  0.95545380  0.18908955  1
  O  O63  1  0.87633808  0.38139416  0.64534108  1
  O  O64  1  0.50795068  0.13013805  0.64411170  1
  O  O65  1  0.62238032  0.49394835  0.64439427  1
  O  O66  1  0.86927811  0.49196196  0.14359742  1
  O  O67  1  0.62618748  0.12069786  0.14261964  1
  O  O68  1  0.49944939  0.36711878  0.14566232  1
  O  O69  1  0.46579218  0.29148641  0.02253580  1
  O  O70  1  0.83030552  0.53228760  0.02077410  1
  O  O71  1  0.70778491  0.16699499  0.02675295  1
  O  O72  1  0.46396781  0.17675573  0.52172690  1
  O  O73  1  0.70825618  0.53414299  0.52154752  1
  O  O74  1  0.82310610  0.28231079  0.52486697  1
  O  O75  1  0.53243812  0.70157663  0.97427923  1
  O  O76  1  0.16818250  0.45598074  0.97742496  1
  O  O77  1  0.29580693  0.82735854  0.97807419  1
  O  O78  1  0.54029019  0.82888355  0.47753882  1
  O  O79  1  0.29997773  0.46171216  0.47591873  1
  O  O80  1  0.17192977  0.70658475  0.47741364  1
  O  O81  1  0.12895526  0.62879012  0.35403658  1
  O  O82  1  0.49661560  0.87083106  0.35559674  1
  O  O83  1  0.36615219  0.49813815  0.35826092  1
  O  O84  1  0.12720180  0.50301625  0.85572061  1
  O  O85  1  0.37141984  0.87100731  0.85430146  1
  O  O86  1  0.50277898  0.63212001  0.85775038  1
  O  O87  1  0.02973319  0.84467993  0.41200096  1
  O  O88  1  0.81751037  0.97046790  0.41150108  1
  O  O89  1  0.16401767  0.19242649  0.41227727  1
  O  O90  1  0.02825358  0.18053057  0.91144394  1
  O  O91  1  0.15599448  0.96970207  0.91265847  1
  O  O92  1  0.80649338  0.83459815  0.91235851  1
  O  O93  1  0.97508317  0.15705146  0.58901805  1
  O  O94  1  0.18476400  0.02827178  0.58821796  1
  O  O95  1  0.84343524  0.81524609  0.58762302  1
  O  O96  1  0.97425053  0.82072163  0.08804149  1
  O  O97  1  0.83636574  0.03201781  0.08833347  1
  O  O98  1  0.18342617  0.16095512  0.08763978  1
  O  O99  1  0.69324770  0.17534316  0.74500351  1
  O  O100  1  0.48397260  0.30671998  0.74465934  1
  O  O101  1  0.82247550  0.51790239  0.74556930  1
  O  O102  1  0.69371666  0.51766364  0.24463463  1
  O  O103  1  0.82332730  0.30497872  0.24365838  1
  O  O104  1  0.48583451  0.17538820  0.24406853  1
  O  O105  1  0.63701199  0.50326884  0.92078868  1
  O  O106  1  0.84840379  0.36389927  0.92275057  1
  O  O107  1  0.50918902  0.15582875  0.92258588  1
  O  O108  1  0.63104477  0.14855219  0.42199181  1
  O  O109  1  0.49635376  0.36194082  0.41962038  1
  O  O110  1  0.84360018  0.49133048  0.42156796  1
  O  O111  1  0.35978397  0.51403079  0.07756350  1
  O  O112  1  0.14893467  0.64347458  0.07805492  1
  O  O113  1  0.49755809  0.86114874  0.07681352  1
  O  O114  1  0.36136786  0.85227214  0.57805469  1
  O  O115  1  0.48911519  0.63823943  0.57734972  1
  O  O116  1  0.15203139  0.50927824  0.57649329  1
  O  O117  1  0.30828695  0.82459316  0.25456489  1
  O  O118  1  0.51542723  0.68974354  0.25715478  1
  O  O119  1  0.17733162  0.48123770  0.25561548  1
  O  O120  1  0.30998505  0.48493332  0.75715340  1
  O  O121  1  0.17571800  0.69366942  0.75452496  1
  O  O122  1  0.51789467  0.82182494  0.75619048  1
