# generated using pymatgen
data_Na8Zr2Sc2Si5SO24
_symmetry_space_group_name_H-M   'P 1'
_cell_length_a   9.25083486
_cell_length_b   9.23613394
_cell_length_c   22.85489346
_cell_angle_alpha   90.06670530
_cell_angle_beta   89.72333084
_cell_angle_gamma   119.94462203
_symmetry_Int_Tables_number   1
_chemical_formula_structural   Na8Zr2Sc2Si5SO24
_chemical_formula_sum   'Na24 Zr6 Sc6 Si15 S3 O72'
_cell_volume   1692.06696955
_cell_formula_units_Z   3
loop_
 _symmetry_equiv_pos_site_id
 _symmetry_equiv_pos_as_xyz
  1  'x, y, z'
loop_
 _atom_site_type_symbol
 _atom_site_label
 _atom_site_symmetry_multiplicity
 _atom_site_fract_x
 _atom_site_fract_y
 _atom_site_fract_z
 _atom_site_occupancy
  Na  Na0  1  0.64133845  0.00283954  0.25225098  1
  Na  Na1  1  0.35848420  0.36139653  0.24761583  1
  Na  Na2  1  0.00005525  0.63731592  0.24994051  1
  Na  Na3  1  0.63622405  0.63580396  0.74765073  1
  Na  Na4  1  0.99667523  0.36115830  0.75003996  1
  Na  Na5  1  0.36670293  0.00435438  0.74989292  1
  Na  Na6  1  0.30126012  0.33767346  0.58544089  1
  Na  Na7  1  0.03657746  0.69985667  0.58242070  1
  Na  Na8  1  0.66377421  0.96215093  0.58277900  1
  Na  Na9  1  0.28697113  0.96528471  0.08148484  1
  Na  Na10  1  0.66920773  0.69137377  0.08644314  1
  Na  Na11  1  0.04456435  0.33854743  0.08569712  1
  Na  Na12  1  0.97671826  0.66890476  0.91660303  1
  Na  Na13  1  0.70356239  0.04439262  0.91146438  1
  Na  Na14  1  0.32143360  0.28577027  0.91803869  1
  Na  Na15  1  0.96003721  0.29537161  0.41295421  1
  Na  Na16  1  0.32783154  0.02036700  0.41589362  1
  Na  Na17  1  0.71274131  0.68110987  0.41750009  1
  Na  Na18  1  0.99234471  0.99053062  0.50043893  1
  Na  Na19  1  0.01703316  0.00622328  0.99987124  1
  Na  Na20  1  0.66765553  0.32576406  0.83246025  1
  Na  Na21  1  0.67348133  0.33087591  0.33226503  1
  Na  Na22  1  0.32627107  0.65648026  0.16614360  1
  Na  Na23  1  0.33501071  0.66647471  0.66364070  1
  Zr  Zr24  1  0.99915525  0.99938038  0.64921170  1
  Zr  Zr25  1  0.66685390  0.33320292  0.68431255  1
  Zr  Zr26  1  0.67002698  0.34701822  0.18630733  1
  Zr  Zr27  1  0.67601230  0.33211295  0.48511687  1
  Zr  Zr28  1  0.32914179  0.67648662  0.31324273  1
  Zr  Zr29  1  0.32194795  0.67056504  0.81336061  1
  Sc  Sc30  1  0.99062506  0.99037747  0.34732648  1
  Sc  Sc31  1  0.01054114  0.00900031  0.84833328  1
  Sc  Sc32  1  0.01048528  0.00026339  0.15222640  1
  Sc  Sc33  1  0.66405619  0.33471503  0.98313760  1
  Sc  Sc34  1  0.30894482  0.65296179  0.01694102  1
  Sc  Sc35  1  0.33679734  0.68188390  0.52000283  1
  Si  Si36  1  0.29371155  0.00418659  0.25076567  1
  Si  Si37  1  0.70648579  0.71063459  0.24914494  1
  Si  Si38  1  0.99975750  0.29001792  0.24994923  1
  Si  Si39  1  0.29592154  0.29576393  0.75037077  1
  Si  Si40  1  0.99538960  0.70744148  0.75146751  1
  Si  Si41  1  0.70747519  0.99925055  0.75200913  1
  Si  Si42  1  0.96706523  0.33455794  0.58411670  1
  Si  Si43  1  0.37184741  0.04062850  0.58294334  1
  Si  Si44  1  0.66404937  0.62746846  0.58270072  1
  Si  Si45  1  0.95975613  0.63036850  0.08157981  1
  Si  Si46  1  0.37102902  0.33500532  0.08179236  1
  Si  Si47  1  0.03325069  0.36603173  0.91729903  1
  Si  Si48  1  0.33423433  0.96353189  0.91876490  1
  Si  Si49  1  0.63013804  0.96169258  0.41745650  1
  Si  Si50  1  0.03791212  0.66879736  0.41801672  1
  S  S51  1  0.66683109  0.04006092  0.08274383  1
  S  S52  1  0.62474436  0.66743553  0.91752344  1
  S  S53  1  0.33305878  0.37470133  0.41707002  1
  O  O54  1  0.21378094  0.03924509  0.30860664  1
  O  O55  1  0.82238767  0.78584834  0.30697899  1
  O  O56  1  0.96764222  0.17661891  0.30832025  1
  O  O57  1  0.21358085  0.17767325  0.80742299  1
  O  O58  1  0.96345087  0.78991793  0.80892703  1
  O  O59  1  0.82388696  0.03159909  0.80885665  1
  O  O60  1  0.79159363  0.96648073  0.69347380  1
  O  O61  1  0.17557548  0.21128930  0.69310419  1
  O  O62  1  0.03397463  0.82574702  0.69338164  1
  O  O63  1  0.78638466  0.82561674  0.19138459  1
  O  O64  1  0.03226517  0.20842269  0.19172085  1
  O  O65  1  0.17729688  0.96302705  0.19310673  1
  O  O66  1  0.87586314  0.36666370  0.64001789  1
  O  O67  1  0.49202249  0.12796540  0.63963949  1
  O  O68  1  0.63566076  0.50860408  0.63989611  1
  O  O69  1  0.87310899  0.50681464  0.13906563  1
  O  O70  1  0.63877592  0.11766262  0.13550600  1
  O  O71  1  0.49097495  0.36019550  0.13936976  1
  O  O72  1  0.46114665  0.30192406  0.02578309  1
  O  O73  1  0.84061749  0.53685008  0.02560107  1
  O  O74  1  0.69279846  0.14605401  0.03067088  1
  O  O75  1  0.45904650  0.16071448  0.52536988  1
  O  O76  1  0.69720518  0.53867372  0.52540997  1
  O  O77  1  0.84366361  0.29857672  0.52699439  1
  O  O78  1  0.54585775  0.69256073  0.96991309  1
  O  O79  1  0.15625326  0.45393635  0.97336825  1
  O  O80  1  0.30967326  0.84347013  0.97487024  1
  O  O81  1  0.54198840  0.84108557  0.47350737  1
  O  O82  1  0.30855840  0.45323836  0.46925394  1
  O  O83  1  0.15580710  0.69354644  0.47385529  1
  O  O84  1  0.12402298  0.63193128  0.36033491  1
  O  O85  1  0.50934442  0.87081487  0.36001791  1
  O  O86  1  0.35976112  0.47899846  0.36406984  1
  O  O87  1  0.12858349  0.49054054  0.86075660  1
  O  O88  1  0.36703281  0.87398967  0.86097749  1
  O  O89  1  0.52059073  0.64046141  0.86482349  1
  O  O90  1  0.02480187  0.83840065  0.41201593  1
  O  O91  1  0.81775359  0.98642915  0.41195970  1
  O  O92  1  0.18388116  0.20664768  0.41122770  1
  O  O93  1  0.01428201  0.18046210  0.91269385  1
  O  O94  1  0.16243976  0.97297738  0.91300277  1
  O  O95  1  0.79276894  0.81648344  0.91165552  1
  O  O96  1  0.97664029  0.16292419  0.58813041  1
  O  O97  1  0.18784208  0.02412809  0.58806497  1
  O  O98  1  0.83449986  0.81037252  0.58802454  1
  O  O99  1  0.97292953  0.81325497  0.08751436  1
  O  O100  1  0.81800255  0.02478669  0.08817399  1
  O  O101  1  0.18470435  0.16908526  0.08747490  1
  O  O102  1  0.68708358  0.16525345  0.74487280  1
  O  O103  1  0.48059407  0.31298014  0.74441435  1
  O  O104  1  0.83296600  0.52008256  0.74487050  1
  O  O105  1  0.68796980  0.52249165  0.24452702  1
  O  O106  1  0.83199307  0.30944316  0.24321326  1
  O  O107  1  0.48300485  0.16429587  0.24232012  1
  O  O108  1  0.64129141  0.51522551  0.92236006  1
  O  O109  1  0.85185317  0.35643684  0.92292557  1
  O  O110  1  0.50264245  0.14925704  0.92223258  1
  O  O111  1  0.63894425  0.14581399  0.42095059  1
  O  O112  1  0.48518239  0.35803213  0.42149599  1
  O  O113  1  0.84933164  0.49949924  0.42102636  1
  O  O114  1  0.36577136  0.51038386  0.07788508  1
  O  O115  1  0.14650655  0.64846787  0.07926596  1
  O  O116  1  0.51775041  0.87204798  0.07658850  1
  O  O117  1  0.35634543  0.85731531  0.57890466  1
  O  O118  1  0.49621235  0.64085443  0.57727548  1
  O  O119  1  0.14895947  0.49892645  0.57641659  1
  O  O120  1  0.31194411  0.83441447  0.25546600  1
  O  O121  1  0.51703434  0.68130464  0.25778703  1
  O  O122  1  0.16794286  0.47715635  0.25675311  1
  O  O123  1  0.31686253  0.48219786  0.75770241  1
  O  O124  1  0.16533957  0.69010688  0.75523091  1
  O  O125  1  0.52254882  0.82973756  0.75705510  1
