# generated using pymatgen
data_Na3LaSi3Sn3(SO8)3
_symmetry_space_group_name_H-M   'P 1'
_cell_length_a   9.02429618
_cell_length_b   9.09547942
_cell_length_c   23.36865632
_cell_angle_alpha   89.44603530
_cell_angle_beta   90.63768801
_cell_angle_gamma   120.23817854
_symmetry_Int_Tables_number   1
_chemical_formula_structural   Na3LaSi3Sn3(SO8)3
_chemical_formula_sum   'Na9 La3 Si9 Sn9 S9 O72'
_cell_volume   1657.00671256
_cell_formula_units_Z   3
loop_
 _symmetry_equiv_pos_site_id
 _symmetry_equiv_pos_as_xyz
  1  'x, y, z'
loop_
 _atom_site_type_symbol
 _atom_site_label
 _atom_site_symmetry_multiplicity
 _atom_site_fract_x
 _atom_site_fract_y
 _atom_site_fract_z
 _atom_site_occupancy
  Na  Na0  1  0.35570339  0.35708021  0.24269221  1
  Na  Na1  1  0.63200447  0.62110813  0.75783689  1
  Na  Na2  1  0.96742560  0.28777281  0.41903264  1
  Na  Na3  1  0.99506079  0.00875944  0.50110154  1
  Na  Na4  1  0.99863748  0.99086779  0.00388143  1
  Na  Na5  1  0.66099065  0.34250862  0.83402212  1
  Na  Na6  1  0.67088457  0.31908075  0.33266192  1
  Na  Na7  1  0.30937257  0.65212384  0.16101311  1
  Na  Na8  1  0.29327216  0.64031617  0.66769880  1
  La  La9  1  0.99454215  0.00099267  0.35676938  1
  La  La10  1  0.67644359  0.33505413  0.68581831  1
  La  La11  1  0.69094040  0.34736291  0.17486661  1
  Si  Si12  1  0.00669610  0.30562165  0.25267835  1
  Si  Si13  1  0.28332333  0.29098872  0.75578040  1
  Si  Si14  1  0.01306657  0.72581664  0.75166325  1
  Si  Si15  1  0.97261189  0.33239412  0.58053574  1
  Si  Si16  1  0.98332267  0.65002398  0.07971458  1
  Si  Si17  1  0.36349589  0.33500820  0.08348862  1
  Si  Si18  1  0.62640678  0.67382158  0.91450696  1
  Si  Si19  1  0.60810280  0.95279255  0.41995307  1
  Si  Si20  1  0.35000467  0.38211736  0.41956023  1
  Sn  Sn21  1  0.00194319  0.99127858  0.85422895  1
  Sn  Sn22  1  0.01701752  0.01825638  0.64951816  1
  Sn  Sn23  1  0.01362266  0.01425876  0.14465907  1
  Sn  Sn24  1  0.66237182  0.36371566  0.98462687  1
  Sn  Sn25  1  0.65955740  0.31465337  0.48118732  1
  Sn  Sn26  1  0.33809842  0.66087059  0.01658219  1
  Sn  Sn27  1  0.33471535  0.65611887  0.51778727  1
  Sn  Sn28  1  0.34025700  0.66039323  0.31720671  1
  Sn  Sn29  1  0.32070320  0.65413327  0.81455053  1
  S  S30  1  0.29311026  0.98541473  0.24953611  1
  S  S31  1  0.69610571  0.70833505  0.24771230  1
  S  S32  1  0.70897442  0.98910625  0.75347571  1
  S  S33  1  0.35893425  0.02405219  0.58038509  1
  S  S34  1  0.67198281  0.64018006  0.58172841  1
  S  S35  1  0.66695055  0.03223411  0.07760339  1
  S  S36  1  0.03133003  0.36853639  0.91716104  1
  S  S37  1  0.34026260  0.96108655  0.91694838  1
  S  S38  1  0.04118220  0.65392804  0.42008990  1
  O  O39  1  0.21333298  0.00457239  0.30071085  1
  O  O40  1  0.79260780  0.77842162  0.29999387  1
  O  O41  1  0.99501330  0.21325930  0.31269660  1
  O  O42  1  0.18801235  0.17990744  0.81269545  1
  O  O43  1  0.96797711  0.80140780  0.80732626  1
  O  O44  1  0.81298045  0.01153226  0.80531384  1
  O  O45  1  0.78662527  0.96635912  0.70037373  1
  O  O46  1  0.17659279  0.21563698  0.69564065  1
  O  O47  1  0.03210652  0.83388700  0.69199700  1
  O  O48  1  0.78541569  0.80893327  0.19573947  1
  O  O49  1  0.03908932  0.20359885  0.19779872  1
  O  O50  1  0.18598700  0.96191411  0.19695913  1
  O  O51  1  0.89539523  0.36387584  0.63704103  1
  O  O52  1  0.45677856  0.09439923  0.63269647  1
  O  O53  1  0.63984009  0.54467388  0.63555822  1
  O  O54  1  0.92991366  0.53966857  0.13731807  1
  O  O55  1  0.63407091  0.09103532  0.13121685  1
  O  O56  1  0.45572447  0.36222605  0.14486212  1
  O  O57  1  0.45471177  0.29354962  0.02929205  1
  O  O58  1  0.85305649  0.55524510  0.02465981  1
  O  O59  1  0.69498087  0.14788905  0.02798049  1
  O  O60  1  0.44234673  0.13850368  0.52981536  1
  O  O61  1  0.69032041  0.54903664  0.53231672  1
  O  O62  1  0.85115961  0.30522739  0.52228480  1
  O  O63  1  0.53367881  0.70003837  0.96909383  1
  O  O64  1  0.14138950  0.45050607  0.96770706  1
  O  O65  1  0.31105073  0.85334016  0.96787252  1
  O  O66  1  0.51440806  0.84870826  0.47720460  1
  O  O67  1  0.30249005  0.46820950  0.47095488  1
  O  O68  1  0.14342303  0.67482950  0.47197746  1
  O  O69  1  0.11936483  0.63218581  0.36691920  1
  O  O70  1  0.49769896  0.86880176  0.36032736  1
  O  O71  1  0.37568735  0.48436935  0.35786728  1
  O  O72  1  0.10550131  0.47640761  0.86452929  1
  O  O73  1  0.35913218  0.88064305  0.86429039  1
  O  O74  1  0.51227710  0.64580724  0.85562258  1
  O  O75  1  0.01646327  0.79893463  0.41794890  1
  O  O76  1  0.79993080  0.98094383  0.42210330  1
  O  O77  1  0.18249266  0.19384458  0.42003017  1
  O  O78  1  0.01839160  0.20005036  0.91108105  1
  O  O79  1  0.18528841  0.98195131  0.91301334  1
  O  O80  1  0.82006206  0.84653067  0.91120237  1
  O  O81  1  0.98413968  0.15475525  0.58644111  1
  O  O82  1  0.18578649  0.00839405  0.58357162  1
  O  O83  1  0.83018554  0.81083104  0.58589667  1
  O  O84  1  0.97977631  0.82818355  0.08945035  1
  O  O85  1  0.82317635  0.01573032  0.08346903  1
  O  O86  1  0.17101819  0.16510581  0.08378787  1
  O  O87  1  0.68374928  0.13454533  0.75107126  1
  O  O88  1  0.47596341  0.32091628  0.75404724  1
  O  O89  1  0.84349359  0.53828265  0.74934275  1
  O  O90  1  0.65812902  0.52987996  0.24473398  1
  O  O91  1  0.84294739  0.33033869  0.24953183  1
  O  O92  1  0.46239019  0.14176575  0.24456304  1
  O  O93  1  0.64254030  0.49911275  0.91905654  1
  O  O94  1  0.85723489  0.34660973  0.92361931  1
  O  O95  1  0.49783675  0.13193409  0.92246731  1
  O  O96  1  0.63781897  0.14902735  0.42054260  1
  O  O97  1  0.52984687  0.37985345  0.42818424  1
  O  O98  1  0.87195934  0.49177834  0.42336644  1
  O  O99  1  0.34961001  0.50516965  0.07278908  1
  O  O100  1  0.17424637  0.68119839  0.06588395  1
  O  O101  1  0.51606154  0.86048869  0.06884587  1
  O  O102  1  0.33763208  0.85304277  0.57249702  1
  O  O103  1  0.52057290  0.66475514  0.57516238  1
  O  O104  1  0.16370668  0.50515786  0.57477068  1
  O  O105  1  0.30900098  0.82993906  0.25348906  1
  O  O106  1  0.52663059  0.70350289  0.24987557  1
  O  O107  1  0.19366538  0.49362428  0.25435771  1
  O  O108  1  0.30736893  0.48546842  0.75731181  1
  O  O109  1  0.18995508  0.71519664  0.75913747  1
  O  O110  1  0.53939190  0.82775188  0.75710653  1
