# generated using pymatgen
data_Na2CaInP(SO6)2
_symmetry_space_group_name_H-M   'P 1'
_cell_length_a   9.17585022
_cell_length_b   9.15280135
_cell_length_c   23.35819829
_cell_angle_alpha   90.32838903
_cell_angle_beta   90.00000000
_cell_angle_gamma   120.08333745
_symmetry_Int_Tables_number   1
_chemical_formula_structural   Na2CaInP(SO6)2
_chemical_formula_sum   'Na12 Ca6 In6 P6 S12 O72'
_cell_volume   1697.44409748
_cell_formula_units_Z   6
loop_
 _symmetry_equiv_pos_site_id
 _symmetry_equiv_pos_as_xyz
  1  'x, y, z'
loop_
 _atom_site_type_symbol
 _atom_site_label
 _atom_site_symmetry_multiplicity
 _atom_site_fract_x
 _atom_site_fract_y
 _atom_site_fract_z
 _atom_site_occupancy
  Na  Na0  1  0.00183702  0.64082573  0.24366268  1
  Na  Na1  1  0.63898872  0.64082573  0.74366268  1
  Na  Na2  1  0.66219825  0.95994809  0.58013587  1
  Na  Na3  1  0.29775083  0.95994809  0.08013587  1
  Na  Na4  1  0.69163175  0.02666866  0.91080511  1
  Na  Na5  1  0.33503591  0.02666866  0.41080511  1
  Na  Na6  1  0.97987692  0.98882654  0.49876719  1
  Na  Na7  1  0.00894962  0.98882654  0.99876719  1
  Na  Na8  1  0.65933617  0.31338098  0.83199191  1
  Na  Na9  1  0.65404582  0.31338098  0.33199191  1
  Na  Na10  1  0.33243942  0.65977397  0.16575917  1
  Na  Na11  1  0.32733355  0.65977397  0.66575917  1
  Ca  Ca12  1  0.99163280  0.00400312  0.35169019  1
  Ca  Ca13  1  0.01237031  0.00400312  0.85169019  1
  Ca  Ca14  1  0.66574522  0.32724568  0.68451012  1
  Ca  Ca15  1  0.66150146  0.32724568  0.18451012  1
  Ca  Ca16  1  0.32453019  0.66022031  0.01764183  1
  Ca  Ca17  1  0.33568913  0.66022031  0.51764183  1
  In  In18  1  0.99504715  0.99375903  0.65243352  1
  In  In19  1  0.99871188  0.99375903  0.15243352  1
  In  In20  1  0.67116437  0.34429112  0.98567934  1
  In  In21  1  0.67312775  0.34429112  0.48567934  1
  In  In22  1  0.34716718  0.68091699  0.31868376  1
  In  In23  1  0.33374880  0.68091699  0.81868376  1
  P  P24  1  0.29595393  0.99195551  0.25278472  1
  P  P25  1  0.69600158  0.99195551  0.75278472  1
  P  P26  1  0.67454277  0.63693884  0.58656505  1
  P  P27  1  0.96239707  0.63693884  0.08656505  1
  P  P28  1  0.34532015  0.97651406  0.92181284  1
  P  P29  1  0.63119291  0.97651406  0.42181284  1
  S  S30  1  0.69779925  0.70471618  0.25007157  1
  S  S31  1  0.00944414  0.30464329  0.24965768  1
  S  S32  1  0.29519915  0.30464329  0.74965768  1
  S  S33  1  0.00691693  0.70471618  0.75007157  1
  S  S34  1  0.96195594  0.32618962  0.58417049  1
  S  S35  1  0.36118380  0.03752417  0.58214128  1
  S  S36  1  0.67634136  0.03752417  0.08214128  1
  S  S37  1  0.36423467  0.32618962  0.08417049  1
  S  S38  1  0.62638193  0.66013362  0.91539043  1
  S  S39  1  0.03007253  0.37134897  0.91546560  1
  S  S40  1  0.34127544  0.37134897  0.41546560  1
  S  S41  1  0.03375069  0.66013362  0.41539043  1
  O  O42  1  0.20932718  0.00532221  0.30672858  1
  O  O43  1  0.79996467  0.78777993  0.30065597  1
  O  O44  1  0.98719744  0.20414527  0.30028590  1
  O  O45  1  0.21694784  0.20414527  0.80028590  1
  O  O46  1  0.98781526  0.78777993  0.80065597  1
  O  O47  1  0.79599503  0.00532221  0.80672858  1
  O  O48  1  0.77882243  0.96297785  0.69721499  1
  O  O49  1  0.19599874  0.22216618  0.69642680  1
  O  O50  1  0.03558796  0.80825418  0.69738418  1
  O  O51  1  0.77266622  0.80825418  0.19738418  1
  O  O52  1  0.02616744  0.22216618  0.19642680  1
  O  O53  1  0.18415542  0.96297785  0.19721499  1
  O  O54  1  0.88125015  0.34492460  0.63514750  1
  O  O55  1  0.47180189  0.12234452  0.63100772  1
  O  O56  1  0.66063382  0.54357420  0.64180818  1
  O  O57  1  0.88294137  0.54357420  0.14180818  1
  O  O58  1  0.65054363  0.12234452  0.13100772  1
  O  O59  1  0.46367545  0.34492460  0.13514750  1
  O  O60  1  0.44125840  0.29529502  0.03169077  1
  O  O61  1  0.85384841  0.54809203  0.03204000  1
  O  O62  1  0.69866213  0.13448403  0.02783557  1
  O  O63  1  0.43582289  0.13448403  0.52783557  1
  O  O64  1  0.69424463  0.54809203  0.53204000  1
  O  O65  1  0.85403761  0.29529502  0.53169077  1
  O  O66  1  0.53965196  0.67901515  0.96492460  1
  O  O67  1  0.12869683  0.44966107  0.96687358  1
  O  O68  1  0.32862110  0.87840349  0.97637425  1
  O  O69  1  0.54978139  0.87840349  0.47637425  1
  O  O70  1  0.32096323  0.44966107  0.46687358  1
  O  O71  1  0.13936219  0.67901515  0.46492460  1
  O  O72  1  0.10762300  0.63508338  0.36104283  1
  O  O73  1  0.51253704  0.89156475  0.36806900  1
  O  O74  1  0.35737902  0.47089747  0.36288800  1
  O  O75  1  0.11351744  0.47089747  0.86288800  1
  O  O76  1  0.37902671  0.89156475  0.86806900  1
  O  O77  1  0.52745938  0.63508338  0.86104283  1
  O  O78  1  0.02420480  0.81710385  0.41188168  1
  O  O79  1  0.80650881  0.00006455  0.41490485  1
  O  O80  1  0.19667474  0.19666052  0.41146506  1
  O  O81  1  -0.00001422  0.19666052  0.91146506  1
  O  O82  1  0.19355574  0.00006455  0.91490485  1
  O  O83  1  0.79289905  0.81710385  0.91188168  1
  O  O84  1  0.97149635  0.16572313  0.58776125  1
  O  O85  1  0.19245897  0.02342262  0.58860801  1
  O  O86  1  0.83678083  0.82126395  0.58664307  1
  O  O87  1  0.98448312  0.82126395  0.08664307  1
  O  O88  1  0.83096364  0.02342262  0.08860801  1
  O  O89  1  0.19422678  0.16572313  0.08776125  1
  O  O90  1  0.67007382  0.14330477  0.74772494  1
  O  O91  1  0.46947684  0.33395663  0.74535965  1
  O  O92  1  0.85053746  0.53922817  0.74495390  1
  O  O93  1  0.68869171  0.53922817  0.24495390  1
  O  O94  1  0.86448080  0.33395663  0.24535965  1
  O  O95  1  0.47323195  0.14330477  0.24772494  1
  O  O96  1  0.64752174  0.50896265  0.91972226  1
  O  O97  1  0.85820819  0.35572256  0.91849956  1
  O  O98  1  0.51772013  0.15300043  0.92396398  1
  O  O99  1  0.63528130  0.15300043  0.42396398  1
  O  O100  1  0.49751537  0.35572256  0.41849956  1
  O  O101  1  0.86144192  0.50896265  0.41972226  1
  O  O102  1  0.34379846  0.47382016  0.07850271  1
  O  O103  1  0.14299763  0.66516380  0.08166157  1
  O  O104  1  0.52413281  0.86753940  0.07814283  1
  O  O105  1  0.34340559  0.86753940  0.57814283  1
  O  O106  1  0.52216517  0.66516380  0.58166157  1
  O  O107  1  0.13002070  0.47382016  0.57850271  1
  O  O108  1  0.29874523  0.81855692  0.25399400  1
  O  O109  1  0.52422357  0.68085334  0.25432922  1
  O  O110  1  0.16618270  0.47654277  0.25366269  1
  O  O111  1  0.31035907  0.47654277  0.75366269  1
  O  O112  1  0.15662877  0.68085334  0.75432922  1
  O  O113  1  0.51981069  0.81855692  0.75399400  1
