# generated using pymatgen
data_Na6Y2Ta6Si9(SO16)3
_symmetry_space_group_name_H-M   'P 1'
_cell_length_a   18.01015328
_cell_length_b   9.05146495
_cell_length_c   23.02956181
_cell_angle_alpha   90.10230033
_cell_angle_beta   89.70841037
_cell_angle_gamma   120.11875103
_symmetry_Int_Tables_number   1
_chemical_formula_structural   Na6Y2Ta6Si9(SO16)3
_chemical_formula_sum   'Na18 Y6 Ta18 Si27 S9 O144'
_cell_volume   3247.32582464
_cell_formula_units_Z   3
loop_
 _symmetry_equiv_pos_site_id
 _symmetry_equiv_pos_as_xyz
  1  'x, y, z'
loop_
 _atom_site_type_symbol
 _atom_site_label
 _atom_site_symmetry_multiplicity
 _atom_site_fract_x
 _atom_site_fract_y
 _atom_site_fract_z
 _atom_site_occupancy
  Na  Na0  1  0.32458576  0.01879048  0.25510542  1
  Na  Na1  1  0.68645882  0.37398449  0.24526754  1
  Na  Na2  1  0.49023171  0.61821271  0.24997593  1
  Na  Na3  1  0.82364688  0.63131077  0.75307716  1
  Na  Na4  1  0.99095163  0.36154476  0.74726138  1
  Na  Na5  1  0.18727874  0.00313664  0.74153864  1
  Na  Na6  1  0.00422279  0.01227309  0.50017359  1
  Na  Na7  1  0.50833534  0.99801629  0.49857196  1
  Na  Na8  1  0.00834890  0.02178921  0.99679404  1
  Na  Na9  1  0.50431091  0.99605502  0.99851468  1
  Na  Na10  1  0.34196353  0.32861912  0.83338076  1
  Na  Na11  1  0.82903004  0.31998102  0.82494468  1
  Na  Na12  1  0.32825151  0.34183521  0.33177832  1
  Na  Na13  1  0.84140764  0.35483180  0.33811605  1
  Na  Na14  1  0.16769244  0.65010682  0.16676385  1
  Na  Na15  1  0.67308417  0.67196255  0.16377827  1
  Na  Na16  1  0.17553867  0.67476772  0.66144108  1
  Na  Na17  1  0.65695518  0.67042942  0.65982644  1
  Y  Y18  1  0.50000280  0.00081784  0.36034953  1
  Y  Y19  1  0.00004880  0.00032678  0.85968467  1
  Y  Y20  1  0.33940166  0.33490376  0.67993981  1
  Y  Y21  1  0.82570424  0.31643669  0.68322473  1
  Y  Y22  1  0.32523633  0.33557825  0.18383495  1
  Y  Y23  1  0.83577168  0.33972820  0.18166070  1
  Ta  Ta24  1  0.00197946  0.98763756  0.36028403  1
  Ta  Ta25  1  0.50188643  0.01599212  0.85855475  1
  Ta  Ta26  1  0.99739671  0.99144505  0.64367021  1
  Ta  Ta27  1  0.49833757  0.01743378  0.63932467  1
  Ta  Ta28  1  0.99983606  0.99489599  0.14493721  1
  Ta  Ta29  1  0.49772179  0.00280759  0.14388884  1
  Ta  Ta30  1  0.33135969  0.34943662  0.97637878  1
  Ta  Ta31  1  0.82661174  0.30703940  0.97837994  1
  Ta  Ta32  1  0.33340828  0.34617489  0.48335695  1
  Ta  Ta33  1  0.83127380  0.31217551  0.47702850  1
  Ta  Ta34  1  0.17051886  0.66148389  0.01375371  1
  Ta  Ta35  1  0.65919430  0.66308645  0.02227478  1
  Ta  Ta36  1  0.15943479  0.65335606  0.52231791  1
  Ta  Ta37  1  0.66450962  0.67062395  0.51552943  1
  Ta  Ta38  1  0.16386611  0.65919228  0.31328683  1
  Ta  Ta39  1  0.66865513  0.65581635  0.31784922  1
  Ta  Ta40  1  0.16849559  0.68117329  0.81648058  1
  Ta  Ta41  1  0.66099048  0.66518479  0.81042205  1
  Si  Si42  1  0.13963380  0.98770970  0.25190820  1
  Si  Si43  1  0.35268257  0.71229720  0.25095960  1
  Si  Si44  1  0.85639562  0.71765161  0.25294367  1
  Si  Si45  1  0.50345862  0.29680441  0.24961777  1
  Si  Si46  1  0.63950160  0.28757364  0.75076373  1
  Si  Si47  1  0.00322927  0.71108268  0.75009667  1
  Si  Si48  1  0.35691124  0.99655180  0.75205658  1
  Si  Si49  1  0.85266175  0.99345705  0.75138920  1
  Si  Si50  1  0.48429304  0.34371400  0.57971695  1
  Si  Si51  1  0.97672190  0.32547004  0.58541475  1
  Si  Si52  1  0.18540022  0.03587851  0.58344963  1
  Si  Si53  1  0.68370511  0.03343664  0.58168238  1
  Si  Si54  1  0.33293238  0.63136233  0.58451064  1
  Si  Si55  1  0.47644685  0.62741616  0.08522067  1
  Si  Si56  1  0.83380843  0.03383223  0.08299059  1
  Si  Si57  1  0.18292295  0.33500021  0.08154296  1
  Si  Si58  1  0.68537786  0.33471863  0.08349352  1
  Si  Si59  1  0.31280269  0.66884086  0.91321820  1
  Si  Si60  1  0.01801470  0.38267323  0.91633241  1
  Si  Si61  1  0.52182979  0.38387490  0.91786669  1
  Si  Si62  1  0.17071428  0.96328051  0.92229441  1
  Si  Si63  1  0.66417605  0.94683687  0.91507061  1
  Si  Si64  1  0.81131307  0.95196516  0.41568323  1
  Si  Si65  1  0.16858975  0.37905482  0.41584592  1
  Si  Si66  1  0.67240289  0.37875001  0.42167315  1
  Si  Si67  1  0.02149365  0.65826320  0.41817971  1
  Si  Si68  1  0.51625883  0.65237758  0.41583449  1
  S  S69  1  0.64371042  0.99336035  0.24796072  1
  S  S70  1  0.00378142  0.28298097  0.25244622  1
  S  S71  1  0.14430122  0.29546451  0.74862129  1
  S  S72  1  0.50179841  0.72220971  0.75343356  1
  S  S73  1  0.83333721  0.63168157  0.58169965  1
  S  S74  1  0.98500680  0.63524038  0.07992724  1
  S  S75  1  0.33242114  0.03355579  0.08168917  1
  S  S76  1  0.80331110  0.65234464  0.91859965  1
  S  S77  1  0.30227224  0.95182650  0.41799910  1
  O  O78  1  0.09063969  0.01281474  0.30764028  1
  O  O79  1  0.60705745  0.02021488  0.30065908  1
  O  O80  1  0.41222350  0.79971506  0.30543657  1
  O  O81  1  0.91530049  0.82534329  0.30810948  1
  O  O82  1  0.49250055  0.18327710  0.30485570  1
  O  O83  1  0.99533260  0.18412957  0.30421779  1
  O  O84  1  0.10649255  0.19529517  0.80141356  1
  O  O85  1  0.59167270  0.16897859  0.80825965  1
  O  O86  1  0.49717108  0.80903116  0.80662538  1
  O  O87  1  0.99233237  0.80069288  0.80622281  1
  O  O88  1  0.41519437  0.00503623  0.80841893  1
  O  O89  1  0.91103697  0.02488793  0.80679794  1
  O  O90  1  0.40445197  0.97923138  0.69333688  1
  O  O91  1  0.90357499  0.96546073  0.69368279  1
  O  O92  1  0.08972004  0.20705707  0.69626341  1
  O  O93  1  0.58259469  0.19008223  0.69312240  1
  O  O94  1  0.01768953  0.83856968  0.69241120  1
  O  O95  1  0.51399963  0.81774975  0.70008930  1
  O  O96  1  0.40387332  0.84156700  0.19271496  1
  O  O97  1  0.90518267  0.83214185  0.19339506  1
  O  O98  1  0.01433033  0.20443867  0.19769683  1
  O  O99  1  0.51784520  0.19706575  0.19135386  1
  O  O100  1  0.08213855  0.97503988  0.19343074  1
  O  O101  1  0.58960787  0.97415880  0.19536541  1
  O  O102  1  0.45426437  0.38449398  0.63989432  1
  O  O103  1  0.94937319  0.37073548  0.64569948  1
  O  O104  1  0.23351132  0.09572037  0.64520176  1
  O  O105  1  0.73725103  0.09471331  0.63982047  1
  O  O106  1  0.30898437  0.51574257  0.64113867  1
  O  O107  1  0.82066787  0.54314676  0.63745442  1
  O  O108  1  0.44876720  0.52717410  0.14522430  1
  O  O109  1  0.95251344  0.53898743  0.13436092  1
  O  O110  1  0.31838847  0.09509774  0.13728579  1
  O  O111  1  0.81535628  0.11162188  0.13961113  1
  O  O112  1  0.23616487  0.38218860  0.13970229  1
  O  O113  1  0.73504065  0.37137667  0.14470630  1
  O  O114  1  0.23416891  0.30935998  0.02540032  1
  O  O115  1  0.74255887  0.31291822  0.02998067  1
  O  O116  1  0.41299926  0.52099984  0.02993714  1
  O  O117  1  0.92904138  0.54840559  0.03039261  1
  O  O118  1  0.34434394  0.14487639  0.03237080  1
  O  O119  1  0.84822202  0.16492286  0.02613850  1
  O  O120  1  0.23857412  0.17062248  0.52968589  1
  O  O121  1  0.73522348  0.16453187  0.52581933  1
  O  O122  1  0.34850865  0.53302118  0.52749633  1
  O  O123  1  0.84616336  0.54376902  0.53250376  1
  O  O124  1  0.41775896  0.31323753  0.52602585  1
  O  O125  1  0.91376058  0.30525606  0.53001071  1
  O  O126  1  0.26712256  0.68919677  0.97219176  1
  O  O127  1  0.75784120  0.66956743  0.96860514  1
  O  O128  1  0.08228235  0.49464151  0.97017553  1
  O  O129  1  0.58239239  0.47371593  0.97315475  1
  O  O130  1  0.16742127  0.84514269  0.97647342  1
  O  O131  1  0.65597581  0.83224011  0.97089682  1
  O  O132  1  0.25696102  0.84445659  0.46759495  1
  O  O133  1  0.76808046  0.84104140  0.47320339  1
  O  O134  1  0.15611965  0.47878195  0.47019235  1
  O  O135  1  0.66943165  0.49298191  0.47381840  1
  O  O136  1  0.08236747  0.69030042  0.47290810  1
  O  O137  1  0.58037224  0.67001945  0.46925312  1
  O  O138  1  0.07008305  0.63690283  0.36000773  1
  O  O139  1  0.56716758  0.63798817  0.35582992  1
  O  O140  1  0.25429659  0.86701940  0.36146502  1
  O  O141  1  0.74930597  0.85862900  0.35898240  1
  O  O142  1  0.18094583  0.50083509  0.35786233  1
  O  O143  1  0.68262296  0.49325096  0.35961021  1
  O  O144  1  0.06626336  0.49580942  0.85675081  1
  O  O145  1  0.56992599  0.50372408  0.86070056  1
  O  O146  1  0.18122044  0.86745469  0.86153419  1
  O  O147  1  0.68095612  0.85935946  0.85782959  1
  O  O148  1  0.24889121  0.63748964  0.85881479  1
  O  O149  1  0.75563861  0.63464522  0.86286561  1
  O  O150  1  0.01156271  0.82989562  0.41049723  1
  O  O151  1  0.50805700  0.81919177  0.41932413  1
  O  O152  1  0.38779071  0.97041260  0.41617391  1
  O  O153  1  0.90768304  0.98135955  0.40723098  1
  O  O154  1  0.08223998  0.19101491  0.40658555  1
  O  O155  1  0.58814212  0.19634630  0.42123949  1
  O  O156  1  0.00690233  0.19766654  0.92088461  1
  O  O157  1  0.51167717  0.19265439  0.91030262  1
  O  O158  1  0.08672298  0.97798597  0.92272290  1
  O  O159  1  0.58152891  0.97265685  0.90810240  1
  O  O160  1  0.40775325  0.83434031  0.90841796  1
  O  O161  1  0.88913086  0.80409948  0.91761624  1
  O  O162  1  0.48845774  0.16438773  0.58560920  1
  O  O163  1  0.98588971  0.15261076  0.59157186  1
  O  O164  1  0.08897897  0.01944311  0.58971982  1
  O  O165  1  0.58941196  0.01877260  0.59024457  1
  O  O166  1  0.42010772  0.81805180  0.59264296  1
  O  O167  1  0.91515894  0.80644832  0.58577604  1
  O  O168  1  0.48636423  0.81931167  0.09097594  1
  O  O169  1  0.99089707  0.80733105  0.08639078  1
  O  O170  1  0.41295394  0.01937446  0.08540194  1
  O  O171  1  0.92069285  0.01847399  0.09161994  1
  O  O172  1  0.08862084  0.15827514  0.09064144  1
  O  O173  1  0.59008235  0.15811347  0.08858376  1
  O  O174  1  0.33859904  0.15492206  0.75377573  1
  O  O175  1  0.84079180  0.15675222  0.74675432  1
  O  O176  1  0.23048141  0.31797431  0.74335067  1
  O  O177  1  0.73842608  0.33610688  0.75034154  1
  O  O178  1  0.42683051  0.54829717  0.75308027  1
  O  O179  1  0.92092641  0.52336876  0.74467406  1
  O  O180  1  0.34045851  0.52508171  0.24639432  1
  O  O181  1  0.84056496  0.52374774  0.25222630  1
  O  O182  1  0.42058982  0.31792880  0.24354190  1
  O  O183  1  0.92950429  0.30866416  0.24796125  1
  O  O184  1  0.23775732  0.13913119  0.24944823  1
  O  O185  1  0.73023259  0.14478180  0.24202559  1
  O  O186  1  0.31984362  0.49547287  0.92165475  1
  O  O187  1  0.81018541  0.49518251  0.92404509  1
  O  O188  1  0.42755664  0.36345456  0.92747018  1
  O  O189  1  0.92616715  0.38073322  0.92703680  1
  O  O190  1  0.26014243  0.14718426  0.92804448  1
  O  O191  1  0.75067990  0.14052325  0.92481252  1
  O  O192  1  0.30671133  0.11891157  0.42020607  1
  O  O193  1  0.81966587  0.14206085  0.42231341  1
  O  O194  1  0.25245746  0.35694134  0.42452334  1
  O  O195  1  0.76145638  0.37193606  0.42653025  1
  O  O196  1  0.42400028  0.47338569  0.42236075  1
  O  O197  1  0.92771960  0.49016453  0.42637249  1
  O  O198  1  0.16615135  0.49667421  0.06996599  1
  O  O199  1  0.67216202  0.49695735  0.06963190  1
  O  O200  1  0.07386061  0.66623144  0.07226283  1
  O  O201  1  0.57380810  0.66115386  0.07068218  1
  O  O202  1  0.25840840  0.85585047  0.07437591  1
  O  O203  1  0.75444035  0.84513686  0.06702954  1
  O  O204  1  0.17148369  0.84611370  0.56901174  1
  O  O205  1  0.67133629  0.84494171  0.56841216  1
  O  O206  1  0.25452017  0.66497012  0.56674788  1
  O  O207  1  0.76086616  0.66265697  0.57440716  1
  O  O208  1  0.07398086  0.48566943  0.57093129  1
  O  O209  1  0.58303382  0.49757040  0.56961140  1
  O  O210  1  0.14283439  0.80819809  0.25951705  1
  O  O211  1  0.64723150  0.83242882  0.25070202  1
  O  O212  1  0.25921157  0.71071771  0.25606861  1
  O  O213  1  0.76026348  0.70058138  0.25798010  1
  O  O214  1  0.08448112  0.45712012  0.25570176  1
  O  O215  1  0.59300747  0.48894921  0.25386698  1
  O  O216  1  0.14667719  0.46344568  0.75210340  1
  O  O217  1  0.64338437  0.47464265  0.76060851  1
  O  O218  1  0.09314233  0.69820947  0.75471787  1
  O  O219  1  0.58253155  0.70439699  0.75843393  1
  O  O220  1  0.26056040  0.81968898  0.75960647  1
  O  O221  1  0.75925571  0.80774247  0.75744452  1
