# generated using pymatgen
data_Sm2Mg(CuO3)2
_symmetry_space_group_name_H-M   'P 1'
_cell_length_a   5.25498960
_cell_length_b   5.85957509
_cell_length_c   6.02406233
_cell_angle_alpha   73.25224990
_cell_angle_beta   61.02029827
_cell_angle_gamma   64.25479539
_symmetry_Int_Tables_number   1
_chemical_formula_structural   Sm2Mg(CuO3)2
_chemical_formula_sum   'Sm2 Mg1 Cu2 O6'
_cell_volume   145.44760956
_cell_formula_units_Z   1
loop_
 _symmetry_equiv_pos_site_id
 _symmetry_equiv_pos_as_xyz
  1  'x, y, z'
loop_
 _atom_site_type_symbol
 _atom_site_label
 _atom_site_symmetry_multiplicity
 _atom_site_fract_x
 _atom_site_fract_y
 _atom_site_fract_z
 _atom_site_occupancy
  Sm  Sm0  1  0.30428308  0.21790600  0.16062716  1
  Sm  Sm1  1  0.80474469  0.61935149  0.81925898  1
  Mg  Mg2  1  0.70142443  0.15564988  0.50748568  1
  Cu  Cu3  1  0.03978041  0.92388427  -0.00142646  1
  Cu  Cu4  1  0.47430393  0.67433299  0.49396524  1
  O  O5  1  0.08683357  0.85907194  0.46123961  1
  O  O6  1  0.27086258  0.58216730  0.86477021  1
  O  O7  1  0.68374200  0.82499317  0.17191423  1
  O  O8  1  0.41230957  0.02357237  0.81468226  1
  O  O9  1  0.74358371  0.26693482  0.14262096  1
  O  O10  1  0.86563205  0.40213577  0.51486214  1
