# generated using pymatgen
data_Na8Zr2Al2Si5SO24
_symmetry_space_group_name_H-M   'P 1'
_cell_length_a   9.06909545
_cell_length_b   9.04419050
_cell_length_c   22.17441788
_cell_angle_alpha   89.76897350
_cell_angle_beta   89.77041460
_cell_angle_gamma   119.71152970
_symmetry_Int_Tables_number   1
_chemical_formula_structural   Na8Zr2Al2Si5SO24
_chemical_formula_sum   'Na24 Zr6 Al6 Si15 S3 O72'
_cell_volume   1579.63850168
_cell_formula_units_Z   3
loop_
 _symmetry_equiv_pos_site_id
 _symmetry_equiv_pos_as_xyz
  1  'x, y, z'
loop_
 _atom_site_type_symbol
 _atom_site_label
 _atom_site_symmetry_multiplicity
 _atom_site_fract_x
 _atom_site_fract_y
 _atom_site_fract_z
 _atom_site_occupancy
  Na  Na0  1  0.63845720  0.00184475  0.25257573  1
  Na  Na1  1  0.36138160  0.36324179  0.24711714  1
  Na  Na2  1  0.00006176  0.63546006  0.24991608  1
  Na  Na3  1  0.63394346  0.63557329  0.74776128  1
  Na  Na4  1  0.99952566  0.36383264  0.75052925  1
  Na  Na5  1  0.36659593  0.00263935  0.75045076  1
  Na  Na6  1  0.30335391  0.33785695  0.58433512  1
  Na  Na7  1  0.03524801  0.69887761  0.58181251  1
  Na  Na8  1  0.66424907  0.96481332  0.58210473  1
  Na  Na9  1  0.28807870  0.96505222  0.08187555  1
  Na  Na10  1  0.66831319  0.69380152  0.08616770  1
  Na  Na11  1  0.04129305  0.33536808  0.08663689  1
  Na  Na12  1  0.97396860  0.66807436  0.91682097  1
  Na  Na13  1  0.70202037  0.04151205  0.91193659  1
  Na  Na14  1  0.32270005  0.28724430  0.91854384  1
  Na  Na15  1  0.96180046  0.29419197  0.41132677  1
  Na  Na16  1  0.32845096  0.02245759  0.41507719  1
  Na  Na17  1  0.71391592  0.68055224  0.41661691  1
  Na  Na18  1  0.99392481  0.99226348  0.49884672  1
  Na  Na19  1  0.01375173  0.00524406  0.00022369  1
  Na  Na20  1  0.66684891  0.32619111  0.83447979  1
  Na  Na21  1  0.67429395  0.33123873  0.33202110  1
  Na  Na22  1  0.32653294  0.65739126  0.16446875  1
  Na  Na23  1  0.33496138  0.66679840  0.66335880  1
  Zr  Zr24  1  0.99954739  0.00064014  0.64860983  1
  Zr  Zr25  1  0.66906426  0.33471001  0.68548256  1
  Zr  Zr26  1  0.66903197  0.34457695  0.18632675  1
  Zr  Zr27  1  0.67472718  0.33262273  0.48310086  1
  Zr  Zr28  1  0.32975602  0.67271066  0.31097126  1
  Zr  Zr29  1  0.32317231  0.67036282  0.81663816  1
  Al  Al30  1  0.98667008  0.98383151  0.34798785  1
  Al  Al31  1  0.01559813  0.01376355  0.85002019  1
  Al  Al32  1  0.01400460  0.99883439  0.15151907  1
  Al  Al33  1  0.66336743  0.33339976  0.98329001  1
  Al  Al34  1  0.29273702  0.64216872  0.01682558  1
  Al  Al35  1  0.33833478  0.68759923  0.52169879  1
  Si  Si36  1  0.27961650  0.00328459  0.25106606  1
  Si  Si37  1  0.72147069  0.72320028  0.24821279  1
  Si  Si38  1  0.99926265  0.27292797  0.24958223  1
  Si  Si39  1  0.29230534  0.29184941  0.75309195  1
  Si  Si40  1  0.99647019  0.71409525  0.75514789  1
  Si  Si41  1  0.71355686  0.99892127  0.75542296  1
  Si  Si42  1  0.97782781  0.34365092  0.58162496  1
  Si  Si43  1  0.36961520  0.03267658  0.58176304  1
  Si  Si44  1  0.65665386  0.63114861  0.58064215  1
  Si  Si45  1  0.95883620  0.63047924  0.07913211  1
  Si  Si46  1  0.37015797  0.33747828  0.07851542  1
  Si  Si47  1  0.02656680  0.36077122  0.92017150  1
  Si  Si48  1  0.33614493  0.96556770  0.92242680  1
  Si  Si49  1  0.63042514  0.95537296  0.41780226  1
  Si  Si50  1  0.04439103  0.67566320  0.41851500  1
  S  S51  1  0.66550060  0.03929029  0.08067824  1
  S  S52  1  0.62589079  0.66531149  0.92004967  1
  S  S53  1  0.32990686  0.37333948  0.41755740  1
  O  O54  1  0.19365270  0.03301105  0.31088241  1
  O  O55  1  0.83195781  0.79801729  0.30916273  1
  O  O56  1  0.97196888  0.16100524  0.31084712  1
  O  O57  1  0.20255844  0.16923067  0.81086599  1
  O  O58  1  0.97018925  0.80946981  0.81252297  1
  O  O59  1  0.83726035  0.02691668  0.81215192  1
  O  O60  1  0.78749320  0.96486742  0.69257385  1
  O  O61  1  0.17820108  0.21670825  0.69202115  1
  O  O62  1  0.03523033  0.82375177  0.69257831  1
  O  O63  1  0.80795717  0.83988732  0.18845590  1
  O  O64  1  0.02729342  0.18809432  0.18887711  1
  O  O65  1  0.16818007  0.96687987  0.19026976  1
  O  O66  1  0.88964089  0.37878223  0.64084565  1
  O  O67  1  0.49190171  0.12025382  0.64080603  1
  O  O68  1  0.62465073  0.50993340  0.64071882  1
  O  O69  1  0.88142265  0.50705801  0.13980517  1
  O  O70  1  0.63413643  0.11379198  0.13614180  1
  O  O71  1  0.48995801  0.37259170  0.13955205  1
  O  O72  1  0.47047170  0.30311003  0.02369374  1
  O  O73  1  0.82935063  0.52951990  0.02358270  1
  O  O74  1  0.69242914  0.15253888  0.02817362  1
  O  O75  1  0.45395272  0.15753566  0.52315335  1
  O  O76  1  0.69638193  0.54375667  0.52294750  1
  O  O77  1  0.84774805  0.29881800  0.52455970  1
  O  O78  1  0.54067121  0.69234689  0.97227114  1
  O  O79  1  0.15941539  0.45417911  0.97535803  1
  O  O80  1  0.30773131  0.82989741  0.97724996  1
  O  O81  1  0.53298865  0.83160755  0.47548497  1
  O  O82  1  0.30779508  0.45788728  0.47135444  1
  O  O83  1  0.16797045  0.69933149  0.47549957  1
  O  O84  1  0.12217830  0.62995956  0.35861991  1
  O  O85  1  0.51083779  0.87034147  0.35800568  1
  O  O86  1  0.35842424  0.47808998  0.36242648  1
  O  O87  1  0.11197510  0.48627114  0.86064524  1
  O  O88  1  0.37857118  0.88777996  0.86130566  1
  O  O89  1  0.52181002  0.63609554  0.86453823  1
  O  O90  1  0.02962275  0.84896928  0.41074817  1
  O  O91  1  0.82202094  0.97939419  0.41098608  1
  O  O92  1  0.17778021  0.20376268  0.41330551  1
  O  O93  1  0.01141532  0.17243190  0.91146891  1
  O  O94  1  0.15960374  0.97484889  0.91342048  1
  O  O95  1  0.79633115  0.81825950  0.91424870  1
  O  O96  1  0.98902640  0.17034892  0.58522728  1
  O  O97  1  0.18272611  0.01508824  0.58542051  1
  O  O98  1  0.82896390  0.81597570  0.58545518  1
  O  O99  1  0.97457122  0.81927941  0.08801790  1
  O  O100  1  0.82096609  0.02518953  0.08537522  1
  O  O101  1  0.18104139  0.16603281  0.08767883  1
  O  O102  1  0.69480930  0.17013388  0.75002251  1
  O  O103  1  0.47998684  0.30776691  0.74850356  1
  O  O104  1  0.82887129  0.52437345  0.75037101  1
  O  O105  1  0.69774645  0.52840406  0.24587453  1
  O  O106  1  0.82963179  0.29782870  0.24535030  1
  O  O107  1  0.47430340  0.16732577  0.24602991  1
  O  O108  1  0.64296066  0.50945442  0.92442190  1
  O  O109  1  0.84030924  0.34937863  0.92941784  1
  O  O110  1  0.50660941  0.15621507  0.92901947  1
  O  O111  1  0.64350676  0.14503510  0.41936860  1
  O  O112  1  0.48486516  0.35582329  0.42045327  1
  O  O113  1  0.85101287  0.50641041  0.42007071  1
  O  O114  1  0.35832426  0.51532692  0.07079766  1
  O  O115  1  0.15029154  0.64949180  0.07436691  1
  O  O116  1  0.51438342  0.86773252  0.07491209  1
  O  O117  1  0.35638777  0.84787753  0.57671132  1
  O  O118  1  0.48522168  0.64332414  0.57306936  1
  O  O119  1  0.16107838  0.51144212  0.57133220  1
  O  O120  1  0.30372639  0.83263235  0.25290001  1
  O  O121  1  0.52627081  0.69162373  0.25247811  1
  O  O122  1  0.16869154  0.46653763  0.25328326  1
  O  O123  1  0.31738345  0.48345135  0.75814109  1
  O  O124  1  0.16684950  0.69224678  0.75648633  1
  O  O125  1  0.52407068  0.82949466  0.75843948  1
