# generated using pymatgen
data_Na10Nb6In2Si11SO48
_symmetry_space_group_name_H-M   'P 1'
_cell_length_a   18.16591152
_cell_length_b   9.07871081
_cell_length_c   22.71464786
_cell_angle_alpha   90.01884165
_cell_angle_beta   90.07366662
_cell_angle_gamma   120.02825378
_symmetry_Int_Tables_number   1
_chemical_formula_structural   Na10Nb6In2Si11SO48
_chemical_formula_sum   'Na30 Nb18 In6 Si33 S3 O144'
_cell_volume   3243.34888895
_cell_formula_units_Z   3
loop_
 _symmetry_equiv_pos_site_id
 _symmetry_equiv_pos_as_xyz
  1  'x, y, z'
loop_
 _atom_site_type_symbol
 _atom_site_label
 _atom_site_symmetry_multiplicity
 _atom_site_fract_x
 _atom_site_fract_y
 _atom_site_fract_z
 _atom_site_occupancy
  Na  Na0  1  0.31613361  0.99043201  0.25237710  1
  Na  Na1  1  0.81768593  0.99179150  0.25238992  1
  Na  Na2  1  0.81804354  0.64195170  0.74767672  1
  Na  Na3  1  0.18331932  0.98623423  0.75025137  1
  Na  Na4  1  0.68081442  0.00156771  0.74887592  1
  Na  Na5  1  0.01902090  0.71174459  0.58556917  1
  Na  Na6  1  0.83553288  0.96077772  0.58507906  1
  Na  Na7  1  0.64751620  0.96849210  0.08472413  1
  Na  Na8  1  0.33622932  0.71069826  0.08691441  1
  Na  Na9  1  0.83753892  0.71130823  0.08844781  1
  Na  Na10  1  0.01930423  0.32529688  0.08743933  1
  Na  Na11  1  0.51559056  0.32260514  0.08790669  1
  Na  Na12  1  0.98720079  0.65932384  0.91424149  1
  Na  Na13  1  0.34687692  0.03137112  0.91391902  1
  Na  Na14  1  0.48606596  0.31630837  0.41582313  1
  Na  Na15  1  0.98758823  0.31760930  0.41542351  1
  Na  Na16  1  0.34241261  0.65808992  0.41590360  1
  Na  Na17  1  0.84342166  0.65888608  0.41578269  1
  Na  Na18  1  0.01176710  0.01189022  0.50577463  1
  Na  Na19  1  0.50649566  0.00018616  0.50524300  1
  Na  Na20  1  0.00810801  0.01214285  0.00509410  1
  Na  Na21  1  0.50226199  0.99857172  0.99963100  1
  Na  Na22  1  0.33737239  0.35468156  0.83379895  1
  Na  Na23  1  0.83663733  0.32579850  0.83374580  1
  Na  Na24  1  0.32980117  0.33627275  0.33324025  1
  Na  Na25  1  0.83054344  0.33747087  0.33331849  1
  Na  Na26  1  0.16165965  0.65342926  0.17338375  1
  Na  Na27  1  0.66253905  0.64373295  0.17594629  1
  Na  Na28  1  0.17202389  0.66623233  0.67073572  1
  Na  Na29  1  0.65692781  0.64821943  0.66359142  1
  Nb  Nb30  1  0.99503451  0.99646780  0.35527551  1
  Nb  Nb31  1  0.49399247  0.99648252  0.35487645  1
  Nb  Nb32  1  0.99341032  0.99541169  0.85702941  1
  Nb  Nb33  1  0.49943108  0.99695283  0.85482755  1
  Nb  Nb34  1  0.49873474  0.00075634  0.64493155  1
  Nb  Nb35  1  0.34000085  0.33537073  0.68515929  1
  Nb  Nb36  1  0.83592724  0.33761631  0.68787534  1
  Nb  Nb37  1  0.33833164  0.34379724  0.18704037  1
  Nb  Nb38  1  0.84024353  0.34767242  0.18729988  1
  Nb  Nb39  1  0.33226882  0.33907813  0.97871160  1
  Nb  Nb40  1  0.83062313  0.32542136  0.97725998  1
  Nb  Nb41  1  0.33225837  0.33119704  0.48218823  1
  Nb  Nb42  1  0.83037367  0.32688932  0.48145871  1
  Nb  Nb43  1  0.16717876  0.66940867  0.01973765  1
  Nb  Nb44  1  0.66680353  0.66622638  0.01941837  1
  Nb  Nb45  1  0.16924451  0.66801801  0.52197122  1
  Nb  Nb46  1  0.66251619  0.66219869  0.52085255  1
  Nb  Nb47  1  0.66202304  0.66228056  0.81263625  1
  In  In48  1  -0.00059314  -0.00104874  0.64558595  1
  In  In49  1  0.00168722  0.00080142  0.14561525  1
  In  In50  1  0.49723645  0.00267995  0.14708669  1
  In  In51  1  0.16429726  0.65338062  0.31698122  1
  In  In52  1  0.66485473  0.65353357  0.31705127  1
  In  In53  1  0.16835437  0.66884945  0.81606493  1
  Si  Si54  1  0.35091806  0.70288640  0.24796763  1
  Si  Si55  1  0.85222670  0.70639449  0.24771714  1
  Si  Si56  1  0.00202038  0.29707696  0.24714721  1
  Si  Si57  1  0.50151385  0.29905605  0.24754253  1
  Si  Si58  1  0.64225350  0.28871922  0.74952040  1
  Si  Si59  1  0.00232126  0.70861955  0.74919368  1
  Si  Si60  1  0.49642916  0.70965621  0.74963917  1
  Si  Si61  1  0.35473767  0.99855504  0.74994058  1
  Si  Si62  1  0.85404220  0.00234111  0.74873025  1
  Si  Si63  1  0.48031213  0.33222120  0.58185526  1
  Si  Si64  1  0.98070173  0.33640191  0.58326415  1
  Si  Si65  1  0.18912535  0.04258243  0.58494029  1
  Si  Si66  1  0.68684087  0.04148282  0.58531090  1
  Si  Si67  1  0.33325605  0.62192301  0.58429900  1
  Si  Si68  1  0.82957646  0.61963894  0.58304102  1
  Si  Si69  1  0.48017691  0.62360171  0.08297743  1
  Si  Si70  1  0.97994031  0.62395688  0.08033182  1
  Si  Si71  1  0.33008951  0.04430800  0.08261518  1
  Si  Si72  1  0.83097587  0.04375209  0.08432218  1
  Si  Si73  1  0.18948576  0.33335006  0.08328040  1
  Si  Si74  1  0.69058022  0.33562750  0.08322129  1
  Si  Si75  1  0.31202875  0.66587804  0.91570213  1
  Si  Si76  1  0.80876668  0.66150472  0.91554235  1
  Si  Si77  1  0.02298430  0.37665696  0.91668675  1
  Si  Si78  1  0.52084185  0.37450807  0.91728302  1
  Si  Si79  1  0.16688000  0.96195777  0.91508277  1
  Si  Si80  1  0.66505101  0.95483446  0.91617144  1
  Si  Si81  1  0.30836253  0.96000203  0.41400465  1
  Si  Si82  1  0.80827567  0.95695723  0.41514921  1
  Si  Si83  1  0.16713698  0.37299301  0.41758337  1
  Si  Si84  1  0.66664567  0.37211117  0.41700694  1
  Si  Si85  1  0.02225279  0.66900527  0.41828599  1
  Si  Si86  1  0.52146789  0.66962970  0.41645987  1
  S  S87  1  0.14640242  0.00328337  0.25069365  1
  S  S88  1  0.64661337  0.00421604  0.24947649  1
  S  S89  1  0.14528501  0.28837956  0.75037183  1
  O  O90  1  0.10235450  0.02107496  0.30335118  1
  O  O91  1  0.60047723  0.01996721  0.30097201  1
  O  O92  1  0.41367090  0.80508562  0.30699363  1
  O  O93  1  0.91402549  0.80537621  0.30710940  1
  O  O94  1  0.48916575  0.16825934  0.30515801  1
  O  O95  1  0.98860859  0.16796008  0.30548943  1
  O  O96  1  0.10134245  0.17793963  0.80279734  1
  O  O97  1  0.59721240  0.16435319  0.80672103  1
  O  O98  1  0.48526592  0.80458845  0.80806065  1
  O  O99  1  0.98729706  0.80768575  0.80717668  1
  O  O100  1  0.41291185  0.02509006  0.80987228  1
  O  O101  1  0.91662487  0.02520005  0.80578934  1
  O  O102  1  0.40861490  0.98557842  0.69359970  1
  O  O103  1  0.88620622  0.95388514  0.68978949  1
  O  O104  1  0.09684642  0.21321890  0.69617391  1
  O  O105  1  0.58509733  0.19653679  0.69146323  1
  O  O106  1  0.01759650  0.81952335  0.69006184  1
  O  O107  1  0.51682945  0.83658648  0.69350196  1
  O  O108  1  0.39259759  0.80845538  0.18815211  1
  O  O109  1  0.89368995  0.81280771  0.18821414  1
  O  O110  1  0.01098970  0.21476254  0.18665257  1
  O  O111  1  0.51369294  0.22177472  0.18654558  1
  O  O112  1  0.09875963  0.98197005  0.19613133  1
  O  O113  1  0.60110648  0.98504136  0.19345283  1
  O  O114  1  0.43176590  0.35815647  0.63964278  1
  O  O115  1  0.92927520  0.36205178  0.64024553  1
  O  O116  1  0.24685173  0.13565403  0.64459690  1
  O  O117  1  0.74802900  0.13300639  0.64376759  1
  O  O118  1  0.32059946  0.49674476  0.64072035  1
  O  O119  1  0.81940968  0.50467902  0.64259033  1
  O  O120  1  0.43460505  0.50017117  0.14167366  1
  O  O121  1  0.93233041  0.49708615  0.13917585  1
  O  O122  1  0.32011712  0.13721393  0.14257271  1
  O  O123  1  0.81453559  0.13121238  0.14315280  1
  O  O124  1  0.25253905  0.36261428  0.14069098  1
  O  O125  1  0.75316474  0.36669598  0.14045424  1
  O  O126  1  0.23998005  0.31701409  0.02623867  1
  O  O127  1  0.73834490  0.31304457  0.02552381  1
  O  O128  1  0.41874899  0.52642609  0.02738071  1
  O  O129  1  0.91884650  0.52715635  0.02319299  1
  O  O130  1  0.34447085  0.16594502  0.02545658  1
  O  O131  1  0.84056529  0.16649393  0.02831618  1
  O  O132  1  0.24299665  0.16568988  0.52933582  1
  O  O133  1  0.73766296  0.16056821  0.52842234  1
  O  O134  1  0.34701563  0.53342901  0.52535555  1
  O  O135  1  0.84101882  0.52047939  0.52656521  1
  O  O136  1  0.42449349  0.31189062  0.52318951  1
  O  O137  1  0.92117852  0.31363991  0.52534159  1
  O  O138  1  0.26583624  0.69841120  0.97441543  1
  O  O139  1  0.76478743  0.69021851  0.97474938  1
  O  O140  1  0.08199870  0.46559315  0.97627117  1
  O  O141  1  0.58078199  0.46972381  0.97589767  1
  O  O142  1  0.14945734  0.82646261  0.97039272  1
  O  O143  1  0.65394180  0.83647548  0.97503911  1
  O  O144  1  0.26246027  0.82754215  0.46971252  1
  O  O145  1  0.76497983  0.83083857  0.47263384  1
  O  O146  1  0.14780463  0.46677680  0.47365095  1
  O  O147  1  0.64817154  0.46756414  0.47316378  1
  O  O148  1  0.08142075  0.69685353  0.47718230  1
  O  O149  1  0.58315266  0.69680402  0.47432899  1
  O  O150  1  0.05539564  0.61079062  0.36272234  1
  O  O151  1  0.55532684  0.61202152  0.36133494  1
  O  O152  1  0.25916357  0.89256407  0.35302577  1
  O  O153  1  0.75813603  0.88937535  0.35442254  1
  O  O154  1  0.19957199  0.49707592  0.36165719  1
  O  O155  1  0.69937013  0.49665689  0.36133346  1
  O  O156  1  0.05623416  0.50269057  0.86167322  1
  O  O157  1  0.57095737  0.49836684  0.86083826  1
  O  O158  1  0.19329453  0.90245911  0.85603383  1
  O  O159  1  0.67753798  0.86162162  0.85816940  1
  O  O160  1  0.25613380  0.62570718  0.85797734  1
  O  O161  1  0.75189799  0.64157112  0.85739833  1
  O  O162  1  0.00928971  0.83648960  0.40935442  1
  O  O163  1  0.50987035  0.83847914  0.40928132  1
  O  O164  1  0.40546288  0.97436625  0.40974766  1
  O  O165  1  0.90563649  0.97344810  0.40989166  1
  O  O166  1  0.07875792  0.18801702  0.40886872  1
  O  O167  1  0.57828365  0.18781095  0.40880089  1
  O  O168  1  0.01298126  0.18666405  0.90841388  1
  O  O169  1  0.51109568  0.18659869  0.91088741  1
  O  O170  1  0.07822070  0.96969162  0.90954711  1
  O  O171  1  0.58053332  0.97271668  0.91055074  1
  O  O172  1  0.40529528  0.84497146  0.91232636  1
  O  O173  1  0.90489966  0.83327100  0.90975944  1
  O  O174  1  0.48868810  0.16290685  0.58840747  1
  O  O175  1  0.98325612  0.16238816  0.58620007  1
  O  O176  1  0.09460458  0.01582622  0.58379837  1
  O  O177  1  0.59377516  0.02313998  0.58988897  1
  O  O178  1  0.41764482  0.80996632  0.59202395  1
  O  O179  1  0.91542961  0.80430015  0.58226687  1
  O  O180  1  0.49292149  0.81243631  0.08591345  1
  O  O181  1  0.98470520  0.80485913  0.08411886  1
  O  O182  1  0.41437954  0.02341425  0.08192768  1
  O  O183  1  0.91406003  0.02358453  0.08259110  1
  O  O184  1  0.09469919  0.17354711  0.08408109  1
  O  O185  1  0.59786147  0.16618182  0.08520718  1
  O  O186  1  0.34546116  0.17311960  0.74370704  1
  O  O187  1  0.84126471  0.16916728  0.74561903  1
  O  O188  1  0.22958146  0.29284925  0.74802900  1
  O  O189  1  0.73733496  0.30695698  0.74374663  1
  O  O190  1  0.41249262  0.52038885  0.74325549  1
  O  O191  1  0.90999577  0.52375932  0.74551497  1
  O  O192  1  0.34465729  0.51367708  0.24489928  1
  O  O193  1  0.84532826  0.51565162  0.24443324  1
  O  O194  1  0.40648596  0.29047233  0.24612106  1
  O  O195  1  0.90680950  0.29154800  0.24497960  1
  O  O196  1  0.23226001  0.16182896  0.24844064  1
  O  O197  1  0.73231191  0.16274923  0.24831935  1
  O  O198  1  0.32830734  0.50603096  0.92627569  1
  O  O199  1  0.82526898  0.50081987  0.92072739  1
  O  O200  1  0.42563114  0.34891762  0.92201724  1
  O  O201  1  0.92688812  0.35113448  0.92780344  1
  O  O202  1  0.25016394  0.14850024  0.92778927  1
  O  O203  1  0.75075778  0.14220977  0.92224583  1
  O  O204  1  0.33150007  0.15712860  0.42473569  1
  O  O205  1  0.83087486  0.15432827  0.42520797  1
  O  O206  1  0.24896965  0.34595333  0.42945706  1
  O  O207  1  0.74828862  0.34496134  0.42857398  1
  O  O208  1  0.42435955  0.50681160  0.42667299  1
  O  O209  1  0.92395306  0.50558060  0.42773838  1
  O  O210  1  0.18545295  0.51142249  0.07763900  1
  O  O211  1  0.68335515  0.50927263  0.07731234  1
  O  O212  1  0.07040340  0.62639273  0.07697980  1
  O  O213  1  0.57286694  0.63305894  0.07777857  1
  O  O214  1  0.24530923  0.85375802  0.07646757  1
  O  O215  1  0.74391780  0.85544015  0.07709396  1
  O  O216  1  0.18235463  0.85518182  0.57685122  1
  O  O217  1  0.68449064  0.85865817  0.57730168  1
  O  O218  1  0.24751379  0.63714547  0.57604607  1
  O  O219  1  0.74581399  0.64216134  0.57756147  1
  O  O220  1  0.07153189  0.51373160  0.57882218  1
  O  O221  1  0.57315949  0.50628221  0.57769112  1
  O  O222  1  0.16012780  0.85777813  0.25552639  1
  O  O223  1  0.65970384  0.85775226  0.25414057  1
  O  O224  1  0.26147933  0.69892210  0.25316367  1
  O  O225  1  0.76191674  0.69964148  0.25277377  1
  O  O226  1  0.07912069  0.48780422  0.25257529  1
  O  O227  1  0.57941405  0.48891033  0.25306446  1
  O  O228  1  0.15789131  0.45912635  0.75560758  1
  O  O229  1  0.65723602  0.48278704  0.75611654  1
  O  O230  1  0.08465361  0.68706968  0.75421756  1
  O  O231  1  0.58405464  0.69578815  0.75713567  1
  O  O232  1  0.26004227  0.83596694  0.74920197  1
  O  O233  1  0.75834535  0.83378196  0.75970112  1
