# generated using pymatgen
data_NaTaNbSi2PO12
_symmetry_space_group_name_H-M   'P 1'
_cell_length_a   8.88743858
_cell_length_b   8.88918096
_cell_length_c   22.87025105
_cell_angle_alpha   89.96494284
_cell_angle_beta   90.04414041
_cell_angle_gamma   119.96375910
_symmetry_Int_Tables_number   1
_chemical_formula_structural   NaTaNbSi2PO12
_chemical_formula_sum   'Na6 Ta6 Nb6 Si12 P6 O72'
_cell_volume   1565.30244063
_cell_formula_units_Z   6
loop_
 _symmetry_equiv_pos_site_id
 _symmetry_equiv_pos_as_xyz
  1  'x, y, z'
loop_
 _atom_site_type_symbol
 _atom_site_label
 _atom_site_symmetry_multiplicity
 _atom_site_fract_x
 _atom_site_fract_y
 _atom_site_fract_z
 _atom_site_occupancy
  Na  Na0  1  -0.00000990  0.00099118  0.49988387  1
  Na  Na1  1  0.99887289  0.00007220  0.00002847  1
  Na  Na2  1  0.66672201  0.33451584  0.83320637  1
  Na  Na3  1  0.66571547  0.33340730  0.33330458  1
  Na  Na4  1  0.33335061  0.66774889  0.16661879  1
  Na  Na5  1  0.33223980  0.66660213  0.66656418  1
  Ta  Ta6  1  0.99971791  0.99838466  0.85378565  1
  Ta  Ta7  1  0.00724657  0.00419016  0.64627911  1
  Ta  Ta8  1  0.67404577  0.33785947  0.97941048  1
  Ta  Ta9  1  0.33501985  0.66663420  0.02031698  1
  Ta  Ta10  1  0.34021936  0.67079586  0.31287036  1
  Ta  Ta11  1  0.32883410  0.65900796  0.81285965  1
  Nb  Nb12  1  0.00177327  0.00014519  0.35375725  1
  Nb  Nb13  1  0.99499792  0.99158526  0.14614463  1
  Nb  Nb14  1  0.66840758  0.33374697  0.68715510  1
  Nb  Nb15  1  0.66669700  0.33157995  0.18701000  1
  Nb  Nb16  1  0.66177091  0.32497276  0.47951485  1
  Nb  Nb17  1  0.33327693  0.66494517  0.52040340  1
  Si  Si18  1  0.28996042  0.99919904  0.25000049  1
  Si  Si19  1  0.70998767  0.70897577  0.25052117  1
  Si  Si20  1  0.28979883  0.28877094  0.75047216  1
  Si  Si21  1  0.00094254  0.71118536  0.75003937  1
  Si  Si22  1  0.95658461  0.33243900  0.58336294  1
  Si  Si23  1  0.37674828  0.04240201  0.58386509  1
  Si  Si24  1  0.95757375  0.62197414  0.08341331  1
  Si  Si25  1  0.66640935  0.04340346  0.08293301  1
  Si  Si26  1  0.62287781  0.66644044  0.91659513  1
  Si  Si27  1  0.04442935  0.37614495  0.91705188  1
  Si  Si28  1  0.62355692  0.95525773  0.41681092  1
  Si  Si29  1  0.33375641  0.37739205  0.41637446  1
  P  P30  1  0.00117081  0.28922358  0.24979939  1
  P  P31  1  0.71144213  0.99885568  0.74984889  1
  P  P32  1  0.66789467  0.62264006  0.58313146  1
  P  P33  1  0.37807828  0.33290797  0.08284910  1
  P  P34  1  0.33402897  0.95516445  0.91641666  1
  P  P35  1  0.04471941  0.66580312  0.41629900  1
  O  O36  1  0.19853528  0.03251026  0.30709508  1
  O  O37  1  0.83391364  0.80238363  0.30709013  1
  O  O38  1  0.96807634  0.17347666  0.30456722  1
  O  O39  1  0.19665325  0.16547655  0.80721861  1
  O  O40  1  0.96791618  0.80252854  0.80716710  1
  O  O41  1  0.82774904  0.03135683  0.80466845  1
  O  O42  1  0.79559903  0.96833980  0.69535485  1
  O  O43  1  0.16514427  0.19860415  0.69306940  1
  O  O44  1  0.03041993  0.83409195  0.69283216  1
  O  O45  1  0.80030041  0.83415197  0.19311619  1
  O  O46  1  0.03219130  0.20596572  0.19543969  1
  O  O47  1  0.16634776  0.96910917  0.19289639  1
  O  O48  1  0.86509562  0.36580545  0.64045084  1
  O  O49  1  0.50067673  0.13576564  0.64045237  1
  O  O50  1  0.63472033  0.50676781  0.63790355  1
  O  O51  1  0.86456611  0.49955999  0.14039331  1
  O  O52  1  0.63395849  0.13464024  0.14037994  1
  O  O53  1  0.49334634  0.36589277  0.13772671  1
  O  O54  1  0.46273195  0.30218828  0.02851484  1
  O  O55  1  0.83180964  0.53177896  0.02634410  1
  O  O56  1  0.69687584  0.16759058  0.02609988  1
  O  O57  1  0.46697143  0.16749480  0.52644672  1
  O  O58  1  0.69885079  0.53930676  0.52877164  1
  O  O59  1  0.83302320  0.30244130  0.52623874  1
  O  O60  1  0.53110662  0.69894799  0.97376740  1
  O  O61  1  0.16769312  0.46975255  0.97381070  1
  O  O62  1  0.30153346  0.83916570  0.97126160  1
  O  O63  1  0.53097110  0.83276315  0.47377240  1
  O  O64  1  0.30075863  0.46819154  0.47375367  1
  O  O65  1  0.16020685  0.69876279  0.47113575  1
  O  O66  1  0.12945725  0.63539453  0.36186626  1
  O  O67  1  0.49837954  0.86510803  0.35964545  1
  O  O68  1  0.36367917  0.50089486  0.35942286  1
  O  O69  1  0.13471086  0.50141605  0.85976282  1
  O  O70  1  0.36487282  0.87112339  0.86200954  1
  O  O71  1  0.49924832  0.63637289  0.85951304  1
  O  O72  1  0.02559001  0.82886589  0.40911451  1
  O  O73  1  0.81451216  0.97679356  0.40788257  1
  O  O74  1  0.16239095  0.18593178  0.40809314  1
  O  O75  1  0.02322416  0.18517654  0.90751392  1
  O  O76  1  0.17081984  0.97462990  0.90879161  1
  O  O77  1  0.81452784  0.83787235  0.90777006  1
  O  O78  1  0.97397895  0.15983101  0.59229799  1
  O  O79  1  0.18473401  0.02282622  0.59180416  1
  O  O80  1  0.82828682  0.80481734  0.59182492  1
  O  O81  1  0.97712041  0.81418458  0.09140235  1
  O  O82  1  0.83918809  0.02600412  0.09194008  1
  O  O83  1  0.19660210  0.17298047  0.09112488  1
  O  O84  1  0.69220506  0.16163049  0.74265903  1
  O  O85  1  0.48082223  0.31006150  0.74122772  1
  O  O86  1  0.82941366  0.51954208  0.74142916  1
  O  O87  1  0.68978135  0.51881045  0.24118789  1
  O  O88  1  0.83808403  0.30834766  0.24257673  1
  O  O89  1  0.48086055  0.17094730  0.24141554  1
  O  O90  1  0.64068245  0.49366107  0.92563693  1
  O  O91  1  0.85188565  0.35607156  0.92517729  1
  O  O92  1  0.49422927  0.13725354  0.92507011  1
  O  O93  1  0.64363594  0.14761222  0.42471696  1
  O  O94  1  0.50607956  0.35941770  0.42523790  1
  O  O95  1  0.86319236  0.50584844  0.42445772  1
  O  O96  1  0.35874737  0.49642498  0.07524872  1
  O  O97  1  0.14857683  0.64355279  0.07415090  1
  O  O98  1  0.49509200  0.85184973  0.07440563  1
  O  O99  1  0.35646284  0.85219676  0.57454348  1
  O  O100  1  0.50475529  0.64166242  0.57592369  1
  O  O101  1  0.14746947  0.50421964  0.57476794  1
  O  O102  1  0.30737383  0.82659861  0.25893112  1
  O  O103  1  0.51805065  0.68947569  0.25847875  1
  O  O104  1  0.16161467  0.47146329  0.25847030  1
  O  O105  1  0.31044149  0.48154750  0.75848726  1
  O  O106  1  0.17332270  0.69277328  0.75896349  1
  O  O107  1  0.52929647  0.83863136  0.75841801  1
