# generated using pymatgen
data_MgMn2(OF)2
_symmetry_space_group_name_H-M   'P 1'
_cell_length_a   4.03297300
_cell_length_b   6.73027900
_cell_length_c   3.24668300
_cell_angle_alpha   89.99997987
_cell_angle_beta   90.00012742
_cell_angle_gamma   90.00006247
_symmetry_Int_Tables_number   1
_chemical_formula_structural   MgMn2(OF)2
_chemical_formula_sum   'Mg1 Mn2 O2 F2'
_cell_volume   88.12482540
_cell_formula_units_Z   1
loop_
 _symmetry_equiv_pos_site_id
 _symmetry_equiv_pos_as_xyz
  1  'x, y, z'
loop_
 _atom_site_type_symbol
 _atom_site_label
 _atom_site_symmetry_multiplicity
 _atom_site_fract_x
 _atom_site_fract_y
 _atom_site_fract_z
 _atom_site_occupancy
  Mg  Mg0  1  0.25000000  0.61459200  0.75000400  1
  Mn  Mn1  1  0.25000000  0.14267700  0.74998000  1
  Mn  Mn2  1  0.74999800  0.88104100  0.24999600  1
  O  O3  1  0.25000200  0.81226100  0.25001500  1
  O  O4  1  0.75000000  0.08578100  0.74999100  1
  F  F5  1  0.25000000  0.38919200  0.25000700  1
  F  F6  1  0.75000100  0.61149300  0.75000800  1
