# generated using pymatgen
data_Na2MgAlP(SO6)2
_symmetry_space_group_name_H-M   'P 1'
_cell_length_a   8.64121540
_cell_length_b   8.61292842
_cell_length_c   21.89277119
_cell_angle_alpha   90.49630192
_cell_angle_beta   90.00000000
_cell_angle_gamma   120.10870159
_symmetry_Int_Tables_number   1
_chemical_formula_structural   Na2MgAlP(SO6)2
_chemical_formula_sum   'Na12 Mg6 Al6 P6 S12 O72'
_cell_volume   1409.47870713
_cell_formula_units_Z   6
loop_
 _symmetry_equiv_pos_site_id
 _symmetry_equiv_pos_as_xyz
  1  'x, y, z'
loop_
 _atom_site_type_symbol
 _atom_site_label
 _atom_site_symmetry_multiplicity
 _atom_site_fract_x
 _atom_site_fract_y
 _atom_site_fract_z
 _atom_site_occupancy
  Na  Na0  1  0.99838012  0.63772516  0.24491652  1
  Na  Na1  1  0.63934504  0.63772516  0.74491652  1
  Na  Na2  1  0.66109002  0.96266835  0.58107501  1
  Na  Na3  1  0.30157934  0.96266835  0.08107501  1
  Na  Na4  1  0.69405284  0.02694915  0.91209332  1
  Na  Na5  1  0.33289531  0.02694915  0.41209332  1
  Na  Na6  1  0.98665654  0.99321887  0.49800429  1
  Na  Na7  1  0.00656233  0.99321887  0.99800429  1
  Na  Na8  1  0.66124277  0.31994609  0.83133915  1
  Na  Na9  1  0.65870431  0.31994609  0.33133915  1
  Na  Na10  1  0.33463014  0.65873350  0.16480028  1
  Na  Na11  1  0.32410236  0.65873350  0.66480028  1
  Mg  Mg12  1  0.99591518  0.00344292  0.35237263  1
  Mg  Mg13  1  0.00752774  0.00344292  0.85237263  1
  Mg  Mg14  1  0.66672289  0.32909983  0.68530782  1
  Mg  Mg15  1  0.66237794  0.32909983  0.18530782  1
  Mg  Mg16  1  0.32491075  0.66472831  0.01892258  1
  Mg  Mg17  1  0.33981656  0.66472831  0.51892258  1
  Al  Al18  1  0.99126865  0.98953987  0.64943592  1
  Al  Al19  1  0.99827122  0.98953987  0.14943592  1
  Al  Al20  1  0.66676530  0.34107023  0.98214786  1
  Al  Al21  1  0.67430593  0.34107023  0.48214786  1
  Al  Al22  1  0.34662620  0.68405485  0.31549521  1
  Al  Al23  1  0.33742765  0.68405485  0.81549521  1
  P  P24  1  0.29373742  -0.00089885  0.25189191  1
  P  P25  1  0.70536373  -0.00089885  0.75189191  1
  P  P26  1  0.67197488  0.62353948  0.58541563  1
  P  P27  1  0.95156560  0.62353948  0.08541563  1
  P  P28  1  0.33696400  0.96618026  0.91983410  1
  P  P29  1  0.62921526  0.96618026  0.41983410  1
  S  S30  1  0.70359403  0.71208778  0.25041531  1
  S  S31  1  0.00683184  0.29126328  0.24976604  1
  S  S32  1  0.28443144  0.29126328  0.74976604  1
  S  S33  1  0.00849376  0.71208778  0.75041531  1
  S  S34  1  0.95900650  0.33309808  0.58374763  1
  S  S35  1  0.36662463  0.04437830  0.58291471  1
  S  S36  1  0.67775467  0.04437830  0.08291471  1
  S  S37  1  0.37409257  0.33309808  0.08374763  1
  S  S38  1  0.61961314  0.65786038  0.91654496  1
  S  S39  1  0.04337352  0.38227007  0.91588818  1
  S  S40  1  0.33889555  0.38227007  0.41588818  1
  S  S41  1  0.03824624  0.65786038  0.41654496  1
  O  O42  1  0.20774820  0.01984511  0.30974568  1
  O  O43  1  0.81626703  0.79207483  0.30432275  1
  O  O44  1  0.97796094  0.18610244  0.30430105  1
  O  O45  1  0.20814150  0.18610244  0.80430105  1
  O  O46  1  0.97580780  0.79207483  0.80432275  1
  O  O47  1  0.81209691  0.01984511  0.80974568  1
  O  O48  1  0.79415988  0.96173318  0.69424801  1
  O  O49  1  0.17335358  0.20279751  0.69405379  1
  O  O50  1  0.03861561  0.82444898  0.69492235  1
  O  O51  1  0.78583338  0.82444898  0.19492235  1
  O  O52  1  0.02944392  0.20279751  0.19405379  1
  O  O53  1  0.16757330  0.96173318  0.19424801  1
  O  O54  1  0.87921344  0.35841058  0.63865464  1
  O  O55  1  0.48535934  0.12511964  0.63560236  1
  O  O56  1  0.64817157  0.52117083  0.64408353  1
  O  O57  1  0.87300026  0.52117083  0.14408353  1
  O  O58  1  0.63976130  0.12511964  0.13560236  1
  O  O59  1  0.47919814  0.35841058  0.13865464  1
  O  O60  1  0.45570475  0.29417816  0.02884960  1
  O  O61  1  0.83083575  0.52864047  0.02851364  1
  O  O62  1  0.70266448  0.15135520  0.02600307  1
  O  O63  1  0.44869172  0.15135520  0.52600307  1
  O  O64  1  0.69780572  0.52864047  0.52851364  1
  O  O65  1  0.83847441  0.29417816  0.52884960  1
  O  O66  1  0.53642447  0.68902635  0.96965975  1
  O  O67  1  0.14885282  0.45851855  0.97093148  1
  O  O68  1  0.31460257  0.86099647  0.97786172  1
  O  O69  1  0.54639290  0.86099647  0.47786172  1
  O  O70  1  0.30966472  0.45851855  0.47093148  1
  O  O71  1  0.15260088  0.68902635  0.46965975  1
  O  O72  1  0.11851834  0.62963346  0.35921108  1
  O  O73  1  0.49834612  0.87421721  0.36377517  1
  O  O74  1  0.36212083  0.49282801  0.36070173  1
  O  O75  1  0.13070618  0.49282801  0.86070173  1
  O  O76  1  0.37587008  0.87421721  0.86377517  1
  O  O77  1  0.51111412  0.62963346  0.85921108  1
  O  O78  1  0.01953629  0.81903649  0.41062423  1
  O  O79  1  0.81379813  0.98995491  0.41070620  1
  O  O80  1  0.18525738  0.19697303  0.40978486  1
  O  O81  1  0.01171565  0.19697303  0.90978486  1
  O  O82  1  0.17615678  0.98995491  0.91070620  1
  O  O83  1  0.79950020  0.81903649  0.91062423  1
  O  O84  1  0.97260509  0.16505278  0.58930884  1
  O  O85  1  0.19006485  0.03290219  0.59104710  1
  O  O86  1  0.84512778  0.81829453  0.59010947  1
  O  O87  1  0.97316676  0.81829453  0.09010947  1
  O  O88  1  0.84283734  0.03290219  0.09104710  1
  O  O89  1  0.19244769  0.16505278  0.08930884  1
  O  O90  1  0.67966268  0.15953928  0.74378911  1
  O  O91  1  0.46855519  0.32120564  0.74353450  1
  O  O92  1  0.84841126  0.53229311  0.74324595  1
  O  O93  1  0.68388285  0.53229311  0.24324595  1
  O  O94  1  0.85265144  0.32120564  0.24353450  1
  O  O95  1  0.47987760  0.15953928  0.24378911  1
  O  O96  1  0.63678434  0.49486801  0.92278484  1
  O  O97  1  0.86053469  0.36465351  0.92110594  1
  O  O98  1  0.51717822  0.15491657  0.92588070  1
  O  O99  1  0.63773935  0.15491657  0.42588070  1
  O  O100  1  0.50411983  0.36465351  0.42110594  1
  O  O101  1  0.85808467  0.49486801  0.42278484  1
  O  O102  1  0.35356647  0.48972253  0.07531451  1
  O  O103  1  0.14297473  0.65428162  0.07902459  1
  O  O104  1  0.52016590  0.86166824  0.07646172  1
  O  O105  1  0.34150134  0.86166824  0.57646172  1
  O  O106  1  0.51130589  0.65428162  0.57902459  1
  O  O107  1  0.13615505  0.48972253  0.57531451  1
  O  O108  1  0.30224951  0.81885175  0.25696003  1
  O  O109  1  0.52323056  0.69396546  0.25719143  1
  O  O110  1  0.17256290  0.47446746  0.25535553  1
  O  O111  1  0.30190356  0.47446746  0.75535553  1
  O  O112  1  0.17073390  0.69396546  0.75719143  1
  O  O113  1  0.51660124  0.81885175  0.75696003  1
