# generated using pymatgen
data_Zr6CCl14
_symmetry_space_group_name_H-M   'P 1'
_cell_length_a   9.53949996
_cell_length_b   9.53949996
_cell_length_c   11.55186480
_cell_angle_alpha   90.00000000
_cell_angle_beta   90.00000000
_cell_angle_gamma   95.97545750
_symmetry_Int_Tables_number   1
_chemical_formula_structural   Zr6CCl14
_chemical_formula_sum   'Zr12 C2 Cl28'
_cell_volume   1045.53163799
_cell_formula_units_Z   2
loop_
 _symmetry_equiv_pos_site_id
 _symmetry_equiv_pos_as_xyz
  1  'x, y, z'
loop_
 _atom_site_type_symbol
 _atom_site_label
 _atom_site_symmetry_multiplicity
 _atom_site_fract_x
 _atom_site_fract_y
 _atom_site_fract_z
 _atom_site_occupancy
  Zr  Zr0  1  0.64633701  0.64633701  0.10626946  1
  Zr  Zr1  1  0.85366299  0.85366299  0.60626946  1
  Zr  Zr2  1  0.14633701  0.14633701  0.39373054  1
  Zr  Zr3  1  0.35366299  0.35366299  0.89373054  1
  Zr  Zr4  1  0.45366243  0.68486991  0.88250015  1
  Zr  Zr5  1  0.04633757  0.81513009  0.38250015  1
  Zr  Zr6  1  0.18486991  0.95366243  0.61749985  1
  Zr  Zr7  1  0.31513009  0.54633757  0.11749985  1
  Zr  Zr8  1  0.54633757  0.31513009  0.11749985  1
  Zr  Zr9  1  0.95366243  0.18486991  0.61749985  1
  Zr  Zr10  1  0.81513009  0.04633757  0.38250015  1
  Zr  Zr11  1  0.68486991  0.45366243  0.88250015  1
  C  C12  1  0.50000000  0.50000000  -0.00000000  1
  C  C13  1  0.00000000  0.00000000  0.50000000  1
  Cl  Cl14  1  0.25031980  0.74968020  0.50000000  1
  Cl  Cl15  1  0.24968020  0.75031980  -0.00000000  1
  Cl  Cl16  1  0.74968020  0.25031980  0.50000000  1
  Cl  Cl17  1  0.75031980  0.24968020  -0.00000000  1
  Cl  Cl18  1  0.84227882  0.84227882  0.23710118  1
  Cl  Cl19  1  0.65772118  0.65772118  0.73710118  1
  Cl  Cl20  1  0.34227882  0.34227882  0.26289882  1
  Cl  Cl21  1  0.15772118  0.15772118  0.76289882  1
  Cl  Cl22  1  0.59930161  0.09930161  0.25000000  1
  Cl  Cl23  1  0.90069839  0.40069839  0.75000000  1
  Cl  Cl24  1  0.96483313  0.21175262  0.25047872  1
  Cl  Cl25  1  0.53516687  0.28824738  0.75047872  1
  Cl  Cl26  1  0.71175262  0.46483313  0.24952128  1
  Cl  Cl27  1  0.78824738  0.03516687  0.74952128  1
  Cl  Cl28  1  0.03516687  0.78824738  0.74952128  1
  Cl  Cl29  1  0.46483313  0.71175262  0.24952128  1
  Cl  Cl30  1  0.28824738  0.53516687  0.75047872  1
  Cl  Cl31  1  0.21175262  0.96483313  0.25047872  1
  Cl  Cl32  1  0.13448610  0.38355304  0.00885231  1
  Cl  Cl33  1  0.36551390  0.11644696  0.50885231  1
  Cl  Cl34  1  0.88355304  0.63448610  0.49114769  1
  Cl  Cl35  1  0.61644696  0.86551390  0.99114769  1
  Cl  Cl36  1  0.86551390  0.61644696  0.99114769  1
  Cl  Cl37  1  0.63448610  0.88355304  0.49114769  1
  Cl  Cl38  1  0.11644696  0.36551390  0.50885231  1
  Cl  Cl39  1  0.38355304  0.13448610  0.00885231  1
  Cl  Cl40  1  0.09930161  0.59930161  0.25000000  1
  Cl  Cl41  1  0.40069839  0.90069839  0.75000000  1
