# generated using pymatgen
data_Se2O5
_symmetry_space_group_name_H-M   'P 1'
_cell_length_a   4.58222570
_cell_length_b   6.97383130
_cell_length_c   13.72286106
_cell_angle_alpha   90.00000000
_cell_angle_beta   92.28400410
_cell_angle_gamma   90.00000000
_symmetry_Int_Tables_number   1
_chemical_formula_structural   Se2O5
_chemical_formula_sum   'Se8 O20'
_cell_volume   438.17482591
_cell_formula_units_Z   4
loop_
 _symmetry_equiv_pos_site_id
 _symmetry_equiv_pos_as_xyz
  1  'x, y, z'
loop_
 _atom_site_type_symbol
 _atom_site_label
 _atom_site_symmetry_multiplicity
 _atom_site_fract_x
 _atom_site_fract_y
 _atom_site_fract_z
 _atom_site_occupancy
  Se  Se0  1  0.35322888  0.23939488  0.64025944  1
  Se  Se1  1  0.64677112  0.73939488  0.85974056  1
  Se  Se2  1  0.64677112  0.76060512  0.35974056  1
  Se  Se3  1  0.35322888  0.26060512  0.14025944  1
  Se  Se4  1  0.50039704  0.28638347  0.87145598  1
  Se  Se5  1  0.49960296  0.78638347  0.62854402  1
  Se  Se6  1  0.49960296  0.71361653  0.12854402  1
  Se  Se7  1  0.50039704  0.21361653  0.37145598  1
  O  O8  1  0.70233233  0.24697246  0.64252154  1
  O  O9  1  0.29766767  0.74697146  0.85747846  1
  O  O10  1  0.29766767  0.75302854  0.35747846  1
  O  O11  1  0.70233233  0.25302754  0.14252154  1
  O  O12  1  0.25775716  0.27866855  0.77177132  1
  O  O13  1  0.74224284  0.77866855  0.72822868  1
  O  O14  1  0.74224284  0.72133145  0.22822868  1
  O  O15  1  0.25775716  0.22133145  0.27177132  1
  O  O16  1  0.29850408  0.16415498  0.46198439  1
  O  O17  1  0.70149592  0.66415498  0.03801561  1
  O  O18  1  0.70149592  0.83584502  0.53801561  1
  O  O19  1  0.29850408  0.33584502  0.96198439  1
  O  O20  1  0.70667547  0.40125973  0.37738141  1
  O  O21  1  0.29332453  0.90125973  0.12261859  1
  O  O22  1  0.29332453  0.59874027  0.62261859  1
  O  O23  1  0.70667547  0.09874027  0.87738141  1
  O  O24  1  0.73152845  0.02642333  0.34588188  1
  O  O25  1  0.26847155  0.52642333  0.15411812  1
  O  O26  1  0.26847155  0.97357667  0.65411812  1
  O  O27  1  0.73152845  0.47357667  0.84588188  1
