# generated using pymatgen
data_Ca3AlN3
_symmetry_space_group_name_H-M   'P 1'
_cell_length_a   6.11284676
_cell_length_b   6.86306613
_cell_length_c   9.78263783
_cell_angle_alpha   86.19190175
_cell_angle_beta   90.00000000
_cell_angle_gamma   90.00000000
_symmetry_Int_Tables_number   1
_chemical_formula_structural   Ca3AlN3
_chemical_formula_sum   'Ca12 Al4 N12'
_cell_volume   409.50360104
_cell_formula_units_Z   4
loop_
 _symmetry_equiv_pos_site_id
 _symmetry_equiv_pos_as_xyz
  1  'x, y, z'
loop_
 _atom_site_type_symbol
 _atom_site_label
 _atom_site_symmetry_multiplicity
 _atom_site_fract_x
 _atom_site_fract_y
 _atom_site_fract_z
 _atom_site_occupancy
  Ca  Ca0  1  0.78250597  0.64682587  0.30492624  1
  Ca  Ca1  1  0.28250597  0.35317413  0.19507376  1
  Ca  Ca2  1  0.21749403  0.35317413  0.69507376  1
  Ca  Ca3  1  0.71749403  0.64682587  0.80492624  1
  Ca  Ca4  1  0.79277214  0.37276231  0.07621331  1
  Ca  Ca5  1  0.29277214  0.62723769  0.42378669  1
  Ca  Ca6  1  0.20722786  0.62723769  0.92378669  1
  Ca  Ca7  1  0.70722786  0.37276231  0.57621331  1
  Ca  Ca8  1  0.64180261  0.07539286  0.35029007  1
  Ca  Ca9  1  0.14180261  0.92460714  0.14970993  1
  Ca  Ca10  1  0.35819739  0.92460714  0.64970993  1
  Ca  Ca11  1  0.85819739  0.07539286  0.85029007  1
  Al  Al12  1  0.90960899  0.84032652  0.56019039  1
  Al  Al13  1  0.40960899  0.15967348  0.93980961  1
  Al  Al14  1  0.09039101  0.15967348  0.43980961  1
  Al  Al15  1  0.59039101  0.84032652  0.06019039  1
  N  N16  1  0.56802948  0.33862996  0.82359644  1
  N  N17  1  0.06802948  0.66137004  0.67640356  1
  N  N18  1  0.43197052  0.66137004  0.17640356  1
  N  N19  1  0.93197052  0.33862996  0.32359644  1
  N  N20  1  0.62499476  0.74170135  0.52944061  1
  N  N21  1  0.12499476  0.25829865  0.97055939  1
  N  N22  1  0.37500524  0.25829865  0.47055939  1
  N  N23  1  0.87500524  0.74170135  0.02944061  1
  N  N24  1  0.53847176  0.10328384  0.11729336  1
  N  N25  1  0.03847176  0.89671616  0.38270664  1
  N  N26  1  0.46152824  0.89671616  0.88270664  1
  N  N27  1  0.96152824  0.10328384  0.61729336  1
