# generated using pymatgen
data_NaHf3NbSi3(SO8)3
_symmetry_space_group_name_H-M   'P 1'
_cell_length_a   8.91403483
_cell_length_b   8.91754647
_cell_length_c   23.24391459
_cell_angle_alpha   90.02201963
_cell_angle_beta   90.59129227
_cell_angle_gamma   119.77304563
_symmetry_Int_Tables_number   1
_chemical_formula_structural   NaHf3NbSi3(SO8)3
_chemical_formula_sum   'Na3 Hf9 Nb3 Si9 S9 O72'
_cell_volume   1603.67517658
_cell_formula_units_Z   3
loop_
 _symmetry_equiv_pos_site_id
 _symmetry_equiv_pos_as_xyz
  1  'x, y, z'
loop_
 _atom_site_type_symbol
 _atom_site_label
 _atom_site_symmetry_multiplicity
 _atom_site_fract_x
 _atom_site_fract_y
 _atom_site_fract_z
 _atom_site_occupancy
  Na  Na0  1  0.01672093  0.99095796  0.99290922  1
  Na  Na1  1  0.64719219  0.30542367  0.82907853  1
  Na  Na2  1  0.69080414  0.34060704  0.33512694  1
  Hf  Hf3  1  0.99509549  -0.00252567  0.35916926  1
  Hf  Hf4  1  0.01295572  0.00804121  0.85208838  1
  Hf  Hf5  1  0.64882352  0.32583985  0.68873188  1
  Hf  Hf6  1  0.67710923  0.34459566  0.18581512  1
  Hf  Hf7  1  0.65438304  0.33315756  0.97923374  1
  Hf  Hf8  1  0.66724906  0.34440733  0.48256237  1
  Hf  Hf9  1  0.32018627  0.66771870  0.02342654  1
  Hf  Hf10  1  0.31581748  0.65425844  0.30891488  1
  Hf  Hf11  1  0.34873144  0.68476520  0.80551690  1
  Nb  Nb12  1  0.99875671  0.00377769  0.64529689  1
  Nb  Nb13  1  0.01199802  0.01341147  0.14268081  1
  Nb  Nb14  1  0.32788027  0.67566388  0.52629642  1
  Si  Si15  1  0.99030842  0.27930851  0.25215841  1
  Si  Si16  1  0.28724483  0.29071939  0.75104172  1
  Si  Si17  1  0.72157270  0.01118178  0.75047561  1
  Si  Si18  1  0.37702635  0.05480580  0.58269454  1
  Si  Si19  1  0.66812532  0.62373408  0.58401731  1
  Si  Si20  1  0.95048501  0.62218067  0.08297745  1
  Si  Si21  1  0.38505790  0.34057859  0.08363442  1
  Si  Si22  1  0.33348777  0.95673800  0.91638288  1
  Si  Si23  1  0.04016033  0.65684043  0.41549882  1
  S  S24  1  0.28673584  0.00296661  0.25122727  1
  S  S25  1  0.71429361  0.71522346  0.25108209  1
  S  S26  1  0.99767596  0.71283753  0.74947502  1
  S  S27  1  0.95660659  0.33492675  0.58325490  1
  S  S28  1  0.66940619  0.04626609  0.08353759  1
  S  S29  1  0.62140428  0.66890954  0.91702211  1
  S  S30  1  0.04306342  0.37807480  0.91656125  1
  S  S31  1  0.61476830  0.95042049  0.41633853  1
  S  S32  1  0.33595733  0.38204607  0.41542941  1
  O  O33  1  0.20152207  0.02570151  0.30191563  1
  O  O34  1  0.82518651  0.79294627  0.30317199  1
  O  O35  1  0.97106153  0.16045058  0.30737820  1
  O  O36  1  0.20456076  0.16473708  0.80696011  1
  O  O37  1  0.96901838  0.79084748  0.80181565  1
  O  O38  1  0.83188502  0.02545510  0.80840722  1
  O  O39  1  0.81723517  0.98558569  0.69341816  1
  O  O40  1  0.16992950  0.18932933  0.69342320  1
  O  O41  1  0.02336749  0.81903260  0.69758237  1
  O  O42  1  0.79372270  0.81623731  0.19913254  1
  O  O43  1  0.01114157  0.17891625  0.19470508  1
  O  O44  1  0.17922087  0.97282101  0.19793780  1
  O  O45  1  0.88551608  0.37099405  0.63393796  1
  O  O46  1  0.50216366  0.13056373  0.63812189  1
  O  O47  1  0.63393906  0.50202772  0.63854681  1
  O  O48  1  0.86526566  0.50608840  0.14054422  1
  O  O49  1  0.64533245  0.12604115  0.13599094  1
  O  O50  1  0.48939903  0.35122586  0.14230213  1
  O  O51  1  0.46020018  0.28898118  0.02816022  1
  O  O52  1  0.82988693  0.53718144  0.02660146  1
  O  O53  1  0.70363059  0.15623373  0.03240063  1
  O  O54  1  0.46548930  0.16435780  0.52482878  1
  O  O55  1  0.70536648  0.54119634  0.52632896  1
  O  O56  1  0.84888056  0.30747986  0.53070739  1
  O  O57  1  0.53954598  0.68702920  0.96902053  1
  O  O58  1  0.14939870  0.45787644  0.96965648  1
  O  O59  1  0.31904111  0.84474020  0.97381078  1
  O  O60  1  0.53609109  0.84564807  0.46827964  1
  O  O61  1  0.31186694  0.46007520  0.46724524  1
  O  O62  1  0.16276185  0.67837894  0.47220069  1
  O  O63  1  0.13903433  0.63511683  0.35943208  1
  O  O64  1  0.51023843  0.86733918  0.36405631  1
  O  O65  1  0.36547577  0.49053585  0.36345578  1
  O  O66  1  0.12286852  0.47903552  0.86515559  1
  O  O67  1  0.34806483  0.85770176  0.85983046  1
  O  O68  1  0.51601611  0.64327256  0.86455871  1
  O  O69  1  0.02686168  0.83055122  0.40593095  1
  O  O70  1  0.78883321  0.96571270  0.41023222  1
  O  O71  1  0.18134894  0.20859913  0.40672914  1
  O  O72  1  0.02288835  0.20106541  0.91340491  1
  O  O73  1  0.15854381  0.97475092  0.91450605  1
  O  O74  1  0.79590586  0.82241973  0.91231506  1
  O  O75  1  0.97616628  0.18104576  0.58889778  1
  O  O76  1  0.18453008  0.02218569  0.59474296  1
  O  O77  1  0.82998066  0.81675238  0.59645517  1
  O  O78  1  0.96833003  0.81494460  0.09675892  1
  O  O79  1  0.82631873  0.02533732  0.09139342  1
  O  O80  1  0.18508588  0.16498778  0.09419191  1
  O  O81  1  0.71306314  0.18769373  0.74349641  1
  O  O82  1  0.48089163  0.31503791  0.74530760  1
  O  O83  1  0.84506627  0.54084648  0.74261166  1
  O  O84  1  0.69197891  0.53744650  0.24660352  1
  O  O85  1  0.81918470  0.29974150  0.24609384  1
  O  O86  1  0.45854811  0.15721521  0.24546346  1
  O  O87  1  0.64087994  0.51060132  0.92111129  1
  O  O88  1  0.86849475  0.35866806  0.92397204  1
  O  O89  1  0.50820244  0.15006082  0.92125771  1
  O  O90  1  0.63603295  0.12496116  0.42159322  1
  O  O91  1  0.48994001  0.35902854  0.41973980  1
  O  O92  1  0.85074620  0.48533514  0.42143241  1
  O  O93  1  0.36151019  0.50303359  0.07153532  1
  O  O94  1  0.14372758  0.65551520  0.07504585  1
  O  O95  1  0.52141944  0.87378465  0.07584715  1
  O  O96  1  0.35245421  0.85645268  0.57042868  1
  O  O97  1  0.49735337  0.64393923  0.56624497  1
  O  O98  1  0.13452190  0.48676803  0.57335817  1
  O  O99  1  0.30635095  0.84823225  0.25793723  1
  O  O100  1  0.54465913  0.70163075  0.26006057  1
  O  O101  1  0.16683812  0.46665443  0.25762656  1
  O  O102  1  0.29209077  0.47141560  0.76124200  1
  O  O103  1  0.15274696  0.69613282  0.75683572  1
  O  O104  1  0.53142989  0.83907795  0.75558354  1
