# generated using pymatgen
data_Na6Hf4In4Si5S7O48
_symmetry_space_group_name_H-M   'P 1'
_cell_length_a   18.05946985
_cell_length_b   9.00155186
_cell_length_c   23.31876107
_cell_angle_alpha   90.01026222
_cell_angle_beta   89.79646514
_cell_angle_gamma   119.96028527
_symmetry_Int_Tables_number   1
_chemical_formula_structural   Na6Hf4In4Si5S7O48
_chemical_formula_sum   'Na18 Hf12 In12 Si15 S21 O144'
_cell_volume   3284.19303222
_cell_formula_units_Z   3
loop_
 _symmetry_equiv_pos_site_id
 _symmetry_equiv_pos_as_xyz
  1  'x, y, z'
loop_
 _atom_site_type_symbol
 _atom_site_label
 _atom_site_symmetry_multiplicity
 _atom_site_fract_x
 _atom_site_fract_y
 _atom_site_fract_z
 _atom_site_occupancy
  Na  Na0  1  0.00023060  0.63161389  0.25477837  1
  Na  Na1  1  0.49572790  0.62754845  0.25055084  1
  Na  Na2  1  0.99572205  0.36721280  0.74964807  1
  Na  Na3  1  0.50315095  0.36431307  0.75297316  1
  Na  Na4  1  0.66314482  0.29980935  0.91628804  1
  Na  Na5  1  0.16490173  0.02410797  0.42531797  1
  Na  Na6  1  0.00309630  0.99618797  0.50377144  1
  Na  Na7  1  0.50345243  0.99492654  0.50303196  1
  Na  Na8  1  0.00424132  0.00972508  0.99732915  1
  Na  Na9  1  0.50418930  0.01237329  0.99933996  1
  Na  Na10  1  0.33148726  0.32319732  0.83641587  1
  Na  Na11  1  0.82935153  0.32820691  0.82262285  1
  Na  Na12  1  0.33846803  0.34444016  0.32823166  1
  Na  Na13  1  0.82830980  0.33663181  0.33950878  1
  Na  Na14  1  0.18001983  0.66108945  0.16705032  1
  Na  Na15  1  0.67132314  0.65816026  0.16353936  1
  Na  Na16  1  0.17238263  0.68564253  0.66581713  1
  Na  Na17  1  0.67788599  0.68428606  0.67330072  1
  Hf  Hf18  1  0.49860558  0.01169986  0.35126811  1
  Hf  Hf19  1  0.99858530  0.98476136  0.85044764  1
  Hf  Hf20  1  0.99927987  0.98743034  0.64968131  1
  Hf  Hf21  1  0.50729492  -0.00001595  0.64386685  1
  Hf  Hf22  1  0.00132985  0.01294551  0.14065861  1
  Hf  Hf23  1  0.49884913  0.01106037  0.14884534  1
  Hf  Hf24  1  0.32789589  0.32236322  0.97779431  1
  Hf  Hf25  1  0.82835637  0.33542783  0.47927009  1
  Hf  Hf26  1  0.16537032  0.66508288  0.01722220  1
  Hf  Hf27  1  0.66610904  0.65649732  0.02169176  1
  Hf  Hf28  1  0.16519848  0.67451739  0.52413459  1
  Hf  Hf29  1  0.66445313  0.66205000  0.51938734  1
  In  In30  1  0.99601951  0.99169254  0.35395530  1
  In  In31  1  0.50099657  0.01038472  0.85121165  1
  In  In32  1  0.32423581  0.33136941  0.67783032  1
  In  In33  1  0.82420118  0.31521297  0.69084897  1
  In  In34  1  0.33221344  0.34449822  0.18637019  1
  In  In35  1  0.82153040  0.31558575  0.17620997  1
  In  In36  1  0.82950862  0.31743578  0.98796265  1
  In  In37  1  0.33146805  0.34357311  0.49180658  1
  In  In38  1  0.17089733  0.66683804  0.31683577  1
  In  In39  1  0.66417113  0.64512986  0.31641616  1
  In  In40  1  0.16626690  0.68596714  0.81513391  1
  In  In41  1  0.66869896  0.66131202  0.81233393  1
  Si  Si42  1  0.35283646  0.71195571  0.25133653  1
  Si  Si43  1  0.49923337  0.29736683  0.24896420  1
  Si  Si44  1  0.64493544  0.29156784  0.75061571  1
  Si  Si45  1  0.00101849  0.70213471  0.74871387  1
  Si  Si46  1  0.85427969  0.99567839  0.75129392  1
  Si  Si47  1  0.18302534  0.04035965  0.58233178  1
  Si  Si48  1  0.69058904  0.04176786  0.58267960  1
  Si  Si49  1  0.33397845  0.63449829  0.58344792  1
  Si  Si50  1  0.83116931  0.03519256  0.08288287  1
  Si  Si51  1  0.19087929  0.34017969  0.08344458  1
  Si  Si52  1  0.68311139  0.32868838  0.08213567  1
  Si  Si53  1  0.51991486  0.37712708  0.91545796  1
  Si  Si54  1  0.16336692  0.95862388  0.91760866  1
  Si  Si55  1  0.66458252  0.36919068  0.41731571  1
  Si  Si56  1  0.02110915  0.66189177  0.41415258  1
  S  S57  1  0.14389802  -0.00005347  0.24993966  1
  S  S58  1  0.64624822  0.00219091  0.25164462  1
  S  S59  1  0.85534073  0.70788223  0.24818697  1
  S  S60  1  0.99739873  0.28848387  0.24987079  1
  S  S61  1  0.14615641  0.29023697  0.75164820  1
  S  S62  1  0.49601790  0.70479442  0.74999764  1
  S  S63  1  0.35394360  0.00139434  0.74801667  1
  S  S64  1  0.48192146  0.33333505  0.58402004  1
  S  S65  1  0.97811277  0.33099155  0.58254004  1
  S  S66  1  0.83297923  0.62638495  0.58225135  1
  S  S67  1  0.47968919  0.62754537  0.08220720  1
  S  S68  1  0.98241515  0.62932510  0.08490318  1
  S  S69  1  0.33221661  0.04025942  0.08284334  1
  S  S70  1  0.31189123  0.66609048  0.91574209  1
  S  S71  1  0.81447437  0.66600221  0.91846018  1
  S  S72  1  0.01865152  0.37329863  0.91664086  1
  S  S73  1  0.66692939  0.95655446  0.91667474  1
  S  S74  1  0.31405448  0.96285183  0.41821437  1
  S  S75  1  0.81076363  0.95760412  0.41621063  1
  S  S76  1  0.16740892  0.37297758  0.41683083  1
  S  S77  1  0.51839156  0.66406005  0.41674799  1
  O  O78  1  0.10653785  0.02540728  0.30354616  1
  O  O79  1  0.60312268  0.02223620  0.30314658  1
  O  O80  1  0.41575801  0.80651571  0.30685000  1
  O  O81  1  0.90717450  0.78343063  0.30098216  1
  O  O82  1  0.48959062  0.18046022  0.30575080  1
  O  O83  1  0.98635632  0.18705222  0.30234042  1
  O  O84  1  0.10332115  0.18406973  0.80334015  1
  O  O85  1  0.60790477  0.18452894  0.81095742  1
  O  O86  1  0.48127235  0.77799572  0.80241742  1
  O  O87  1  0.99146812  0.80023301  0.80571999  1
  O  O88  1  0.40307666  0.02673195  0.80160870  1
  O  O89  1  0.91735103  0.02451538  0.80701276  1
  O  O90  1  0.39681119  0.98146774  0.69720462  1
  O  O91  1  0.90447567  0.97790011  0.69442241  1
  O  O92  1  0.09366986  0.21099478  0.69949193  1
  O  O93  1  0.57850191  0.18784636  0.69745159  1
  O  O94  1  0.01685933  0.82913086  0.69387685  1
  O  O95  1  0.50432618  0.81022426  0.69860051  1
  O  O96  1  0.40274704  0.82690391  0.19421382  1
  O  O97  1  0.90103650  0.81562827  0.19765628  1
  O  O98  1  0.00699584  0.19863321  0.19894219  1
  O  O99  1  0.51471810  0.20315141  0.19386511  1
  O  O100  1  0.08707304  0.97614785  0.20029700  1
  O  O101  1  0.59350497  0.97614723  0.19943217  1
  O  O102  1  0.44680817  0.36495651  0.63673356  1
  O  O103  1  0.94569773  0.36683387  0.63545493  1
  O  O104  1  0.24330319  0.11178857  0.63825520  1
  O  O105  1  0.74761142  0.11685858  0.63864778  1
  O  O106  1  0.31462528  0.52136496  0.64125772  1
  O  O107  1  0.81853445  0.52605209  0.63405386  1
  O  O108  1  0.44787298  0.52732255  0.13613167  1
  O  O109  1  0.94742955  0.52896244  0.13833767  1
  O  O110  1  0.31736358  0.11056494  0.13515156  1
  O  O111  1  0.81696582  0.10783224  0.14302569  1
  O  O112  1  0.24375594  0.36948444  0.14153793  1
  O  O113  1  0.74204542  0.37905207  0.13937067  1
  O  O114  1  0.23585221  0.31014908  0.02787529  1
  O  O115  1  0.72176800  0.30225153  0.02197687  1
  O  O116  1  0.42448098  0.54052202  0.03292734  1
  O  O117  1  0.92995078  0.55673280  0.03392921  1
  O  O118  1  0.34615129  0.14835345  0.03183433  1
  O  O119  1  0.86028059  0.15786759  0.02697890  1
  O  O120  1  0.22059091  0.13842263  0.52040886  1
  O  O121  1  0.73603295  0.16166514  0.52630290  1
  O  O122  1  0.35996827  0.56831159  0.52569185  1
  O  O123  1  0.84673895  0.54602653  0.53058445  1
  O  O124  1  0.43035703  0.30518708  0.53217960  1
  O  O125  1  0.92458392  0.30967923  0.53185025  1
  O  O126  1  0.26837466  0.68913120  0.96732245  1
  O  O127  1  0.77387219  0.69267100  0.96987129  1
  O  O128  1  0.07479148  0.46258968  0.96773346  1
  O  O129  1  0.58575052  0.47575211  0.96887294  1
  O  O130  1  0.15275920  0.83619350  0.97340082  1
  O  O131  1  0.66019614  0.85637685  0.96866470  1
  O  O132  1  0.27292467  0.85382679  0.46853482  1
  O  O133  1  0.76812927  0.84742946  0.46690700  1
  O  O134  1  0.15753541  0.45694143  0.46724438  1
  O  O135  1  0.65266009  0.46929921  0.47218913  1
  O  O136  1  0.08779019  0.69828483  0.46661182  1
  O  O137  1  0.57416473  0.68664819  0.46692002  1
  O  O138  1  0.05946594  0.63726749  0.35247318  1
  O  O139  1  0.55700665  0.64472798  0.36272730  1
  O  O140  1  0.26135004  0.89110613  0.36584509  1
  O  O141  1  0.76096057  0.88652801  0.36330007  1
  O  O142  1  0.18010413  0.47136370  0.36338868  1
  O  O143  1  0.68939115  0.48699626  0.36021977  1
  O  O144  1  0.05823616  0.47110476  0.86363912  1
  O  O145  1  0.55766777  0.48413971  0.85598222  1
  O  O146  1  0.18820957  0.88842504  0.86169353  1
  O  O147  1  0.67893376  0.88093549  0.86459308  1
  O  O148  1  0.26014644  0.63404418  0.86395344  1
  O  O149  1  0.76216136  0.63429832  0.86715155  1
  O  O150  1  0.01722515  0.84403792  0.41206762  1
  O  O151  1  0.51094435  0.82033127  0.41270173  1
  O  O152  1  0.39908897  0.97568871  0.41140768  1
  O  O153  1  0.89724704  0.97493423  0.41236214  1
  O  O154  1  0.08826278  0.19867824  0.41203364  1
  O  O155  1  0.57978008  0.17791009  0.41068148  1
  O  O156  1  0.01126624  0.20233299  0.91368765  1
  O  O157  1  0.51306342  0.18578355  0.91582368  1
  O  O158  1  0.07916097  0.98130395  0.91238692  1
  O  O159  1  0.58788529  0.97155676  0.91499437  1
  O  O160  1  0.39741504  0.82044368  0.91176206  1
  O  O161  1  0.90001752  0.82341399  0.91273709  1
  O  O162  1  0.49187899  0.18071379  0.59013879  1
  O  O163  1  0.98777377  0.17726836  0.58770599  1
  O  O164  1  0.08904598  0.02542006  0.58925786  1
  O  O165  1  0.59451063  0.02100816  0.58884459  1
  O  O166  1  0.41573412  0.82747501  0.59329428  1
  O  O167  1  0.90997492  0.80107292  0.58656453  1
  O  O168  1  0.48813487  0.79943554  0.08869473  1
  O  O169  1  0.99366925  0.80427140  0.09326549  1
  O  O170  1  0.40920529  0.01963261  0.08789674  1
  O  O171  1  0.91520316  0.00774929  0.09268469  1
  O  O172  1  0.09441732  0.16703264  0.09134642  1
  O  O173  1  0.58929402  0.15417127  0.09063503  1
  O  O174  1  0.34877733  0.16304660  0.74347581  1
  O  O175  1  0.85582288  0.17672150  0.74904146  1
  O  O176  1  0.23156915  0.30688123  0.74839478  1
  O  O177  1  0.73925729  0.31852845  0.74792381  1
  O  O178  1  0.42137921  0.52548376  0.74398245  1
  O  O179  1  0.91796470  0.51532274  0.74337344  1
  O  O180  1  0.34969137  0.52731071  0.24958850  1
  O  O181  1  0.85014143  0.53677113  0.24357804  1
  O  O182  1  0.41355521  0.31355042  0.24398941  1
  O  O183  1  0.92242389  0.31405247  0.24452974  1
  O  O184  1  0.22978581  0.14752322  0.24463719  1
  O  O185  1  0.73174678  0.15648376  0.24833210  1
  O  O186  1  0.32183824  0.51388738  0.92517402  1
  O  O187  1  0.82436109  0.51202643  0.92522051  1
  O  O188  1  0.42613678  0.35838458  0.92739564  1
  O  O189  1  0.93486199  0.36296968  0.92365377  1
  O  O190  1  0.24864490  0.14940231  0.92576695  1
  O  O191  1  0.74211029  0.13648487  0.92014705  1
  O  O192  1  0.32400481  0.13658867  0.42422314  1
  O  O193  1  0.82224283  0.13091215  0.42449274  1
  O  O194  1  0.24201739  0.34402187  0.42003226  1
  O  O195  1  0.74966628  0.34868338  0.42530667  1
  O  O196  1  0.43386581  0.50643937  0.42277901  1
  O  O197  1  0.92715997  0.49487865  0.42471170  1
  O  O198  1  0.17494175  0.50384556  0.07306919  1
  O  O199  1  0.67116492  0.49781711  0.07600541  1
  O  O200  1  0.06924389  0.64891891  0.07673240  1
  O  O201  1  0.56655826  0.65087215  0.07326528  1
  O  O202  1  0.25612681  0.86488983  0.07376475  1
  O  O203  1  0.74651352  0.84891848  0.07323915  1
  O  O204  1  0.17119759  0.84671539  0.57603715  1
  O  O205  1  0.67499971  0.84694252  0.57047880  1
  O  O206  1  0.24692479  0.64466498  0.57180445  1
  O  O207  1  0.75688914  0.64841554  0.57252337  1
  O  O208  1  0.06571309  0.48247597  0.57281400  1
  O  O209  1  0.56859763  0.48907876  0.57578220  1
  O  O210  1  0.14699258  0.83757248  0.25271373  1
  O  O211  1  0.65240346  0.84397594  0.25736751  1
  O  O212  1  0.25777342  0.69418643  0.25499981  1
  O  O213  1  0.77130999  0.69569068  0.25229350  1
  O  O214  1  0.07543569  0.46067468  0.25171025  1
  O  O215  1  0.58140129  0.49452588  0.25192863  1
  O  O216  1  0.15222366  0.46047828  0.75743782  1
  O  O217  1  0.64406694  0.47339461  0.75001628  1
  O  O218  1  0.08438721  0.67326361  0.75141663  1
  O  O219  1  0.57432980  0.69257048  0.75226049  1
  O  O220  1  0.26867940  0.84560450  0.75201455  1
  O  O221  1  0.75967543  0.82941724  0.75539613  1
