# generated using pymatgen
data_MgMn2V2(BiO5)2
_symmetry_space_group_name_H-M   'P 1'
_cell_length_a   5.39750791
_cell_length_b   7.37867601
_cell_length_c   7.69936976
_cell_angle_alpha   113.98243370
_cell_angle_beta   107.10484449
_cell_angle_gamma   97.27210730
_symmetry_Int_Tables_number   1
_chemical_formula_structural   MgMn2V2(BiO5)2
_chemical_formula_sum   'Mg1 Mn2 V2 Bi2 O10'
_cell_volume   256.91815801
_cell_formula_units_Z   1
loop_
 _symmetry_equiv_pos_site_id
 _symmetry_equiv_pos_as_xyz
  1  'x, y, z'
loop_
 _atom_site_type_symbol
 _atom_site_label
 _atom_site_symmetry_multiplicity
 _atom_site_fract_x
 _atom_site_fract_y
 _atom_site_fract_z
 _atom_site_occupancy
  Mg  Mg0  1  0.50000000  0.00000000  0.00000000  1
  Mn  Mn1  1  0.31188000  0.35771800  0.24142200  1
  Mn  Mn2  1  0.68812000  0.64228200  0.75857800  1
  V  V3  1  0.68836800  0.24036700  0.89447000  1
  V  V4  1  0.31163200  0.75963300  0.10553000  1
  Bi  Bi5  1  0.10399000  0.75183200  0.53611000  1
  Bi  Bi6  1  0.89601000  0.24816800  0.46389000  1
  O  O7  1  0.19800300  0.63721100  0.23933000  1
  O  O8  1  0.44474600  0.05970000  0.26526800  1
  O  O9  1  0.59178600  0.73536000  0.03186500  1
  O  O10  1  0.55525400  0.94030000  0.73473200  1
  O  O11  1  0.72958300  0.49212300  0.45379800  1
  O  O12  1  0.80199700  0.36278900  0.76067000  1
  O  O13  1  0.88983300  0.20439900  0.12469700  1
  O  O14  1  0.11016700  0.79560100  0.87530300  1
  O  O15  1  0.40821400  0.26464000  0.96813500  1
  O  O16  1  0.27041700  0.50787700  0.54620200  1
