# generated using pymatgen
data_NbAlSi(SO6)2
_symmetry_space_group_name_H-M   'P 1'
_cell_length_a   8.64848674
_cell_length_b   8.65545810
_cell_length_c   22.34837088
_cell_angle_alpha   89.71577988
_cell_angle_beta   90.00000000
_cell_angle_gamma   119.97336020
_symmetry_Int_Tables_number   1
_chemical_formula_structural   NbAlSi(SO6)2
_chemical_formula_sum   'Nb6 Al6 Si6 S12 O72'
_cell_volume   1449.15914704
_cell_formula_units_Z   6
loop_
 _symmetry_equiv_pos_site_id
 _symmetry_equiv_pos_as_xyz
  1  'x, y, z'
loop_
 _atom_site_type_symbol
 _atom_site_label
 _atom_site_symmetry_multiplicity
 _atom_site_fract_x
 _atom_site_fract_y
 _atom_site_fract_z
 _atom_site_occupancy
  Nb  Nb0  1  0.00891924  0.01992128  0.64110719  1
  Nb  Nb1  1  0.01100204  0.01992128  0.14110719  1
  Nb  Nb2  1  0.65115748  0.32566870  0.97396576  1
  Nb  Nb3  1  0.67451222  0.32566870  0.47396576  1
  Nb  Nb4  1  0.33626023  0.67045386  0.30763181  1
  Nb  Nb5  1  0.33419263  0.67045386  0.80763181  1
  Al  Al6  1  0.98477974  0.01085355  0.35658688  1
  Al  Al7  1  0.02607381  0.01085355  0.85658688  1
  Al  Al8  1  0.67301934  0.34221235  0.68790497  1
  Al  Al9  1  0.66919402  0.34221235  0.18790497  1
  Al  Al10  1  0.32523988  0.66479648  0.02359820  1
  Al  Al11  1  0.33955560  0.66479648  0.52359820  1
  Si  Si12  1  0.97825259  0.28138524  0.25221228  1
  Si  Si13  1  0.30313265  0.28138524  0.75221228  1
  Si  Si14  1  0.96356274  0.36094960  0.58662068  1
  Si  Si15  1  0.39738786  0.36094960  0.08662068  1
  Si  Si16  1  0.31241992  0.93326773  0.92052907  1
  Si  Si17  1  0.62084680  0.93326773  0.42052907  1
  S  S18  1  0.28786883  0.01090392  0.25158777  1
  S  S19  1  0.72315591  0.70981337  0.25100085  1
  S  S20  1  0.98665746  0.70981337  0.75100085  1
  S  S21  1  0.72303508  0.01090392  0.75158777  1
  S  S22  1  0.38637123  0.04099555  0.58385819  1
  S  S23  1  0.65928079  0.61531233  0.58428342  1
  S  S24  1  0.95603254  0.61531233  0.08428342  1
  S  S25  1  0.65462531  0.04099555  0.08385819  1
  S  S26  1  0.62914472  0.68258281  0.91611201  1
  S  S27  1  0.05077112  0.37438646  0.91761222  1
  S  S28  1  0.32361434  0.37438646  0.41761222  1
  S  S29  1  0.05343710  0.68258281  0.41611201  1
  O  O30  1  0.20162169  0.02904561  0.30498870  1
  O  O31  1  0.83076243  0.79133393  0.30442757  1
  O  O32  1  0.96474226  0.15790954  0.30708633  1
  O  O33  1  0.19316727  0.15790954  0.80708633  1
  O  O34  1  0.96057149  0.79133393  0.80442757  1
  O  O35  1  0.82742391  0.02904561  0.80498870  1
  O  O36  1  0.79688410  0.96968141  0.69700810  1
  O  O37  1  0.16832033  0.19424372  0.69183983  1
  O  O38  1  0.02544362  0.82176288  0.69668545  1
  O  O39  1  0.79631926  0.82176288  0.19668545  1
  O  O40  1  0.02592339  0.19424372  0.19183983  1
  O  O41  1  0.17279731  0.96968141  0.19700810  1
  O  O42  1  0.85662935  0.37024896  0.64309598  1
  O  O43  1  0.49395260  0.12582495  0.63680620  1
  O  O44  1  0.63050696  0.50392635  0.63755035  1
  O  O45  1  0.87342039  0.50392635  0.13755035  1
  O  O46  1  0.63187335  0.12582495  0.13680620  1
  O  O47  1  0.51362061  0.37024896  0.14309598  1
  O  O48  1  0.47971265  0.31163595  0.02631908  1
  O  O49  1  0.84521049  0.53809459  0.02996968  1
  O  O50  1  0.70086195  0.15855461  0.02956305  1
  O  O51  1  0.45769366  0.15855461  0.52956305  1
  O  O52  1  0.69288510  0.53809459  0.52996968  1
  O  O53  1  0.83192430  0.31163595  0.52631908  1
  O  O54  1  0.54537988  0.70302326  0.96981315  1
  O  O55  1  0.16259273  0.45364566  0.97052729  1
  O  O56  1  0.30374869  0.81762180  0.97719419  1
  O  O57  1  0.51387211  0.81762180  0.47719419  1
  O  O58  1  0.29105192  0.45364566  0.47052729  1
  O  O59  1  0.15764238  0.70302326  0.46981315  1
  O  O60  1  0.12429506  0.63422637  0.36236759  1
  O  O61  1  0.49360199  0.85294727  0.36023671  1
  O  O62  1  0.35924430  0.48938608  0.36327265  1
  O  O63  1  0.13014078  0.48938608  0.86327265  1
  O  O64  1  0.35934428  0.85294727  0.86023671  1
  O  O65  1  0.50993031  0.63422637  0.86236759  1
  O  O66  1  0.03645081  0.83839190  0.40375720  1
  O  O67  1  0.81426756  0.96286238  0.40868882  1
  O  O68  1  0.17440765  0.19496918  0.40677400  1
  O  O69  1  0.02056153  0.19496918  0.90677400  1
  O  O70  1  0.14859481  0.96286238  0.90868882  1
  O  O71  1  0.80194109  0.83839190  0.90375720  1
  O  O72  1  0.97072525  0.17066889  0.59270862  1
  O  O73  1  0.20135851  0.01797085  0.59071792  1
  O  O74  1  0.82207415  0.79429603  0.59303662  1
  O  O75  1  0.97222188  0.79429603  0.09303662  1
  O  O76  1  0.81661233  0.01797085  0.09071792  1
  O  O77  1  0.19994364  0.17066889  0.09270862  1
  O  O78  1  0.69885567  0.16356251  0.74157039  1
  O  O79  1  0.49120744  0.30587683  0.73408974  1
  O  O80  1  0.83443503  0.53116078  0.74254038  1
  O  O81  1  0.69672675  0.53116078  0.24254038  1
  O  O82  1  0.81467039  0.30587683  0.23408974  1
  O  O83  1  0.46470784  0.16356251  0.24157039  1
  O  O84  1  0.65344598  0.52098125  0.92352938  1
  O  O85  1  0.87438882  0.36442433  0.92564391  1
  O  O86  1  0.49972175  0.13519075  0.92706606  1
  O  O87  1  0.63547000  0.13519075  0.42706606  1
  O  O88  1  0.49003651  0.36442433  0.42564391  1
  O  O89  1  0.86753627  0.52098125  0.42352938  1
  O  O90  1  0.36242280  0.51817743  0.06909268  1
  O  O91  1  0.13376391  0.63680366  0.07569918  1
  O  O92  1  0.50096156  0.86533492  0.07435431  1
  O  O93  1  0.36437236  0.86533492  0.57435431  1
  O  O94  1  0.50303876  0.63680366  0.57569918  1
  O  O95  1  0.15575363  0.51817743  0.56909268  1
  O  O96  1  0.30405099  0.84459946  0.25725614  1
  O  O97  1  0.53905143  0.69054171  0.25829624  1
  O  O98  1  0.16190923  0.47757099  0.26181525  1
  O  O99  1  0.31566076  0.47757099  0.76181525  1
  O  O100  1  0.15148928  0.69054171  0.75829624  1
  O  O101  1  0.54054746  0.84459946  0.75725614  1
