# generated using pymatgen
data_Na10Zn2Si7Sn6S5O48
_symmetry_space_group_name_H-M   'P 1'
_cell_length_a   17.95001611
_cell_length_b   9.02389991
_cell_length_c   22.74885896
_cell_angle_alpha   90.15609073
_cell_angle_beta   89.73337176
_cell_angle_gamma   120.13250925
_symmetry_Int_Tables_number   1
_chemical_formula_structural   Na10Zn2Si7Sn6S5O48
_chemical_formula_sum   'Na30 Zn6 Si21 Sn18 S15 O144'
_cell_volume   3186.86138623
_cell_formula_units_Z   3
loop_
 _symmetry_equiv_pos_site_id
 _symmetry_equiv_pos_as_xyz
  1  'x, y, z'
loop_
 _atom_site_type_symbol
 _atom_site_label
 _atom_site_symmetry_multiplicity
 _atom_site_fract_x
 _atom_site_fract_y
 _atom_site_fract_z
 _atom_site_occupancy
  Na  Na0  1  0.81791114  0.01026914  0.24860999  1
  Na  Na1  1  0.18699724  0.37498304  0.24800110  1
  Na  Na2  1  0.68909614  0.36295547  0.25293318  1
  Na  Na3  1  0.99304292  0.61728232  0.25272751  1
  Na  Na4  1  0.49554961  0.63449887  0.24639005  1
  Na  Na5  1  0.31825429  0.62492408  0.74850246  1
  Na  Na6  1  0.99576486  0.35588496  0.74776787  1
  Na  Na7  1  0.49253773  0.36976448  0.75215698  1
  Na  Na8  1  0.19121071  0.01858933  0.74933464  1
  Na  Na9  1  0.68666930  0.99779845  0.74861740  1
  Na  Na10  1  0.14818822  0.32784783  0.58220069  1
  Na  Na11  1  0.01618764  0.69408290  0.58268231  1
  Na  Na12  1  0.48656784  0.66437138  0.91768025  1
  Na  Na13  1  0.98914616  0.67138212  0.91898930  1
  Na  Na14  1  0.84982734  0.03038487  0.91416330  1
  Na  Na15  1  0.48974243  0.30834647  0.41891414  1
  Na  Na16  1  0.16535191  0.02763134  0.41916024  1
  Na  Na17  1  0.34978778  0.66719946  0.41394398  1
  Na  Na18  1  0.99642374  0.00241428  0.49949321  1
  Na  Na19  1  0.50805642  0.00581997  0.49635113  1
  Na  Na20  1  0.00725388  0.01031161  0.99627234  1
  Na  Na21  1  0.50161606  0.00688566  0.00029177  1
  Na  Na22  1  0.33001592  0.32048163  0.83085694  1
  Na  Na23  1  0.83132549  0.33269373  0.83332601  1
  Na  Na24  1  0.33494368  0.33743842  0.33205067  1
  Na  Na25  1  0.83285575  0.33813704  0.33238319  1
  Na  Na26  1  0.17305537  0.66972546  0.16345509  1
  Na  Na27  1  0.66344613  0.67018295  0.16378649  1
  Na  Na28  1  0.16953201  0.67371645  0.66492734  1
  Na  Na29  1  0.67166123  0.67543390  0.66378421  1
  Zn  Zn30  1  0.32949133  0.31967286  0.68991413  1
  Zn  Zn31  1  0.83810893  0.31965121  0.68036859  1
  Zn  Zn32  1  0.34000356  0.35608078  0.17920557  1
  Zn  Zn33  1  0.83367680  0.33423831  0.19101511  1
  Zn  Zn34  1  0.16120993  0.67018143  0.01167898  1
  Zn  Zn35  1  0.66032129  0.65262005  0.51139500  1
  Si  Si36  1  0.64649088  0.99885419  0.24988113  1
  Si  Si37  1  0.35170348  0.70612753  0.25136177  1
  Si  Si38  1  0.85354186  0.70917462  0.24997805  1
  Si  Si39  1  0.00142233  0.29380327  0.25036487  1
  Si  Si40  1  0.14688021  0.29643927  0.75080155  1
  Si  Si41  1  0.50080418  0.70762702  0.75050821  1
  Si  Si42  1  0.35377660  0.99810148  0.75051562  1
  Si  Si43  1  0.85231144  0.99645258  0.75074616  1
  Si  Si44  1  0.97764577  0.33331780  0.58279005  1
  Si  Si45  1  0.18856480  0.03859240  0.58646519  1
  Si  Si46  1  0.48141004  0.62484088  0.08270318  1
  Si  Si47  1  0.80956797  0.66517606  0.91764763  1
  Si  Si48  1  0.02425601  0.37838522  0.92020775  1
  Si  Si49  1  0.52042761  0.36916160  0.91498526  1
  Si  Si50  1  0.16840863  0.96263828  0.91805092  1
  Si  Si51  1  0.66517007  0.96309394  0.91703431  1
  Si  Si52  1  0.31227055  0.95573786  0.41618576  1
  Si  Si53  1  0.16426385  0.37080809  0.41810450  1
  Si  Si54  1  0.66832436  0.37429859  0.41777802  1
  Si  Si55  1  0.01754523  0.66497740  0.41414316  1
  Si  Si56  1  0.52343641  0.66951998  0.42022448  1
  Sn  Sn57  1  0.99565303  0.99768992  0.35369576  1
  Sn  Sn58  1  0.50442891  0.99311032  0.35477323  1
  Sn  Sn59  1  0.00293959  0.01340933  0.85541675  1
  Sn  Sn60  1  0.49941199  0.00319370  0.85311994  1
  Sn  Sn61  1  0.99785264  0.01407754  0.64683061  1
  Sn  Sn62  1  0.49905296  0.99384989  0.64960005  1
  Sn  Sn63  1  0.99819170  0.00555172  0.14888987  1
  Sn  Sn64  1  0.49456096  0.97291863  0.14654140  1
  Sn  Sn65  1  0.33533225  0.32336995  0.98206419  1
  Sn  Sn66  1  0.83191235  0.33693497  0.97987188  1
  Sn  Sn67  1  0.33146257  0.32718748  0.48121451  1
  Sn  Sn68  1  0.83448498  0.33953538  0.47946650  1
  Sn  Sn69  1  0.65983606  0.66103479  0.01472802  1
  Sn  Sn70  1  0.16330614  0.66998041  0.51546004  1
  Sn  Sn71  1  0.16859513  0.66229441  0.31714549  1
  Sn  Sn72  1  0.66702657  0.66527276  0.31843733  1
  Sn  Sn73  1  0.16741697  0.66991624  0.81862870  1
  Sn  Sn74  1  0.66969585  0.67602709  0.81733934  1
  S  S75  1  0.14795573  0.00142856  0.24896271  1
  S  S76  1  0.49754920  0.28576834  0.24935683  1
  S  S77  1  0.64832896  0.29497440  0.74873588  1
  S  S78  1  0.99708634  0.70639419  0.74986892  1
  S  S79  1  0.48210019  0.33298079  0.58598135  1
  S  S80  1  0.68516219  0.03835358  0.58461195  1
  S  S81  1  0.33575915  0.63006348  0.58381126  1
  S  S82  1  0.83007216  0.62266872  0.58601811  1
  S  S83  1  0.98054901  0.62902245  0.08604401  1
  S  S84  1  0.33271120  0.03798565  0.08659559  1
  S  S85  1  0.83341364  0.04047637  0.08377908  1
  S  S86  1  0.18512268  0.33176873  0.08486814  1
  S  S87  1  0.68695161  0.33419346  0.08536770  1
  S  S88  1  0.31242919  0.66456025  0.91906135  1
  S  S89  1  0.81218449  0.96007704  0.41924203  1
  O  O90  1  0.11011057  0.03346935  0.30300892  1
  O  O91  1  0.60628264  0.04627021  0.30608263  1
  O  O92  1  0.41284112  0.78874231  0.30951552  1
  O  O93  1  0.91734262  0.79365939  0.30618597  1
  O  O94  1  0.48675653  0.18793886  0.30407895  1
  O  O95  1  0.98219734  0.16749935  0.30676414  1
  O  O96  1  0.10324244  0.16331427  0.80506004  1
  O  O97  1  0.60999195  0.18420646  0.80150956  1
  O  O98  1  0.48320653  0.79353007  0.80927493  1
  O  O99  1  0.98665380  0.78593248  0.80370904  1
  O  O100  1  0.41748496  0.03706903  0.80624703  1
  O  O101  1  0.91302907  0.03711177  0.80907109  1
  O  O102  1  0.39378003  0.95170402  0.69209336  1
  O  O103  1  0.89420591  0.95795911  0.69263989  1
  O  O104  1  0.08726523  0.22232789  0.69079953  1
  O  O105  1  0.59109322  0.21748447  0.69590832  1
  O  O106  1  0.01399801  0.81508388  0.69624262  1
  O  O107  1  0.52794298  0.84183526  0.69422176  1
  O  O108  1  0.39172934  0.82796853  0.19354379  1
  O  O109  1  0.89406592  0.83615843  0.19201125  1
  O  O110  1  0.02836786  0.21672111  0.19305932  1
  O  O111  1  0.51548053  0.20865124  0.19699885  1
  O  O112  1  0.08994487  0.96540725  0.19677439  1
  O  O113  1  0.58399203  0.95575229  0.19245163  1
  O  O114  1  0.43977031  0.35253854  0.63783478  1
  O  O115  1  0.94524376  0.38317715  0.64197122  1
  O  O116  1  0.24322347  0.12481968  0.64381938  1
  O  O117  1  0.73326523  0.11925743  0.63916234  1
  O  O118  1  0.32361870  0.52747841  0.63618611  1
  O  O119  1  0.81819730  0.51710263  0.63779962  1
  O  O120  1  0.44474779  0.52028578  0.14299242  1
  O  O121  1  0.93685048  0.52428551  0.13763117  1
  O  O122  1  0.31962879  0.12053895  0.13795213  1
  O  O123  1  0.82305259  0.12072121  0.13652927  1
  O  O124  1  0.23304408  0.34700232  0.13932957  1
  O  O125  1  0.73849409  0.35720027  0.13774531  1
  O  O126  1  0.22488400  0.30084735  0.03162266  1
  O  O127  1  0.72573687  0.30170642  0.03113139  1
  O  O128  1  0.42018982  0.53881651  0.02337835  1
  O  O129  1  0.92691460  0.55396021  0.03070934  1
  O  O130  1  0.34887144  0.14307505  0.03129202  1
  O  O131  1  0.84674261  0.14554226  0.02917729  1
  O  O132  1  0.22526684  0.16133015  0.52621894  1
  O  O133  1  0.72444155  0.14831446  0.53159276  1
  O  O134  1  0.34938364  0.55405313  0.52884438  1
  O  O135  1  0.84909795  0.54961953  0.53153888  1
  O  O136  1  0.42879552  0.30069481  0.53046300  1
  O  O137  1  0.91598846  0.30064640  0.52584761  1
  O  O138  1  0.27295882  0.69207953  0.97004726  1
  O  O139  1  0.77062970  0.71232022  0.97545689  1
  O  O140  1  0.08199087  0.45914181  0.97604734  1
  O  O141  1  0.57916030  0.44923585  0.97301271  1
  O  O142  1  0.14693750  0.84113883  0.97359045  1
  O  O143  1  0.64415806  0.83825923  0.97305909  1
  O  O144  1  0.27310247  0.83053215  0.47339359  1
  O  O145  1  0.77251661  0.85402705  0.47020006  1
  O  O146  1  0.15086273  0.45401562  0.47794318  1
  O  O147  1  0.64726817  0.45355655  0.47351290  1
  O  O148  1  0.07800872  0.71331733  0.47329664  1
  O  O149  1  0.58144947  0.70556088  0.47601320  1
  O  O150  1  0.06083502  0.63806487  0.35447861  1
  O  O151  1  0.55667041  0.62153134  0.35759151  1
  O  O152  1  0.24829037  0.88102681  0.35958822  1
  O  O153  1  0.76387792  0.88907656  0.36210459  1
  O  O154  1  0.18812037  0.48875551  0.35900416  1
  O  O155  1  0.68604742  0.48535221  0.35520867  1
  O  O156  1  0.05729319  0.49224377  0.85768617  1
  O  O157  1  0.55941912  0.49018818  0.85553980  1
  O  O158  1  0.18620094  0.88733575  0.85534117  1
  O  O159  1  0.68911066  0.89371400  0.85716062  1
  O  O160  1  0.26365533  0.63798102  0.86230819  1
  O  O161  1  0.75151706  0.62429062  0.85880757  1
  O  O162  1  0.01392992  0.84429231  0.40976160  1
  O  O163  1  0.50334474  0.82625281  0.41408175  1
  O  O164  1  0.40816210  0.98123820  0.40926508  1
  O  O165  1  0.89968518  0.97871128  0.41355675  1
  O  O166  1  0.08222432  0.17667586  0.41115354  1
  O  O167  1  0.57760291  0.18966388  0.40959624  1
  O  O168  1  0.00391936  0.18100986  0.91436216  1
  O  O169  1  0.50930964  0.17893345  0.91098490  1
  O  O170  1  0.07761353  0.96580588  0.90962239  1
  O  O171  1  0.57628912  0.96977839  0.91058322  1
  O  O172  1  0.40089925  0.81788227  0.91289889  1
  O  O173  1  0.90636938  0.83429369  0.91052823  1
  O  O174  1  0.48929608  0.17017400  0.58909910  1
  O  O175  1  0.99075224  0.16465475  0.58368494  1
  O  O176  1  0.08764235  0.00974559  0.58986830  1
  O  O177  1  0.59620897  0.02646527  0.58759054  1
  O  O178  1  0.41445244  0.80602965  0.58589498  1
  O  O179  1  0.91453576  0.79391950  0.58954624  1
  O  O180  1  0.48985043  0.81831285  0.08190872  1
  O  O181  1  0.98828455  0.80620223  0.08924083  1
  O  O182  1  0.41612569  0.03249018  0.08982011  1
  O  O183  1  0.91436322  0.02655875  0.08541231  1
  O  O184  1  0.09618876  0.16537705  0.08727030  1
  O  O185  1  0.59835073  0.18024416  0.08901285  1
  O  O186  1  0.34570173  0.16684004  0.74747047  1
  O  O187  1  0.84145824  0.16745897  0.74596004  1
  O  O188  1  0.24212716  0.32417453  0.74639184  1
  O  O189  1  0.73296954  0.31043858  0.74112424  1
  O  O190  1  0.41585983  0.52314822  0.74270414  1
  O  O191  1  0.92177429  0.53406092  0.74513230  1
  O  O192  1  0.34070880  0.51342885  0.24668903  1
  O  O193  1  0.84334791  0.52240855  0.24382234  1
  O  O194  1  0.42232890  0.30835061  0.24452734  1
  O  O195  1  0.91644172  0.30907499  0.24382477  1
  O  O196  1  0.23245352  0.15520465  0.24140783  1
  O  O197  1  0.74116939  0.16379047  0.24356885  1
  O  O198  1  0.32302565  0.51107517  0.92216711  1
  O  O199  1  0.82638643  0.50336332  0.92484316  1
  O  O200  1  0.42765792  0.36610570  0.92101471  1
  O  O201  1  0.92617603  0.35960165  0.92454376  1
  O  O202  1  0.25237869  0.15810408  0.92394528  1
  O  O203  1  0.75392325  0.14769701  0.92481555  1
  O  O204  1  0.32298444  0.14706173  0.42317757  1
  O  O205  1  0.82073865  0.13223986  0.42212388  1
  O  O206  1  0.25262587  0.35646086  0.42286895  1
  O  O207  1  0.75144650  0.34466122  0.42327437  1
  O  O208  1  0.42548218  0.49133714  0.42503231  1
  O  O209  1  0.92425944  0.49313153  0.42055556  1
  O  O210  1  0.17579601  0.48266793  0.07903571  1
  O  O211  1  0.68098032  0.49156465  0.07810945  1
  O  O212  1  0.06612742  0.64876022  0.08037502  1
  O  O213  1  0.57908143  0.64602470  0.07848293  1
  O  O214  1  0.25841257  0.86469462  0.07883860  1
  O  O215  1  0.75713894  0.86706150  0.07818710  1
  O  O216  1  0.17466191  0.84475898  0.57841063  1
  O  O217  1  0.67620874  0.86900356  0.57886729  1
  O  O218  1  0.25620124  0.64226725  0.57822933  1
  O  O219  1  0.75702004  0.64982391  0.57803287  1
  O  O220  1  0.07700514  0.50368407  0.57698061  1
  O  O221  1  0.56797265  0.48373534  0.57998444  1
  O  O222  1  0.15173555  0.84166014  0.25386374  1
  O  O223  1  0.65262077  0.82133719  0.25749334  1
  O  O224  1  0.25526063  0.68514087  0.25477996  1
  O  O225  1  0.75786783  0.69526961  0.25564530  1
  O  O226  1  0.08722048  0.48691730  0.25472585  1
  O  O227  1  0.57837561  0.46176554  0.25306817  1
  O  O228  1  0.15185683  0.48536458  0.75786537  1
  O  O229  1  0.65159216  0.46150018  0.75452446  1
  O  O230  1  0.07807519  0.69344821  0.75324391  1
  O  O231  1  0.58735234  0.68757572  0.75492210  1
  O  O232  1  0.25802800  0.82049496  0.75562939  1
  O  O233  1  0.75577340  0.82547870  0.75389072  1
