# generated using pymatgen
data_Na7Zr2Sc2Si3(PO8)3
_symmetry_space_group_name_H-M   'P 1'
_cell_length_a   9.17717949
_cell_length_b   9.14792940
_cell_length_c   22.89081782
_cell_angle_alpha   89.98064396
_cell_angle_beta   90.04576001
_cell_angle_gamma   120.00241553
_symmetry_Int_Tables_number   1
_chemical_formula_structural   Na7Zr2Sc2Si3(PO8)3
_chemical_formula_sum   'Na21 Zr6 Sc6 Si9 P9 O72'
_cell_volume   1664.22966890
_cell_formula_units_Z   3
loop_
 _symmetry_equiv_pos_site_id
 _symmetry_equiv_pos_as_xyz
  1  'x, y, z'
loop_
 _atom_site_type_symbol
 _atom_site_label
 _atom_site_symmetry_multiplicity
 _atom_site_fract_x
 _atom_site_fract_y
 _atom_site_fract_z
 _atom_site_occupancy
  Na  Na0  1  0.63464722  0.00359493  0.25172321  1
  Na  Na1  1  0.36541434  0.36888436  0.24831735  1
  Na  Na2  1  0.99991682  0.62619225  0.24991652  1
  Na  Na3  1  0.63328980  0.63535051  0.74977196  1
  Na  Na4  1  0.99479890  0.36402417  0.74940740  1
  Na  Na5  1  0.37188080  0.00097060  0.74860934  1
  Na  Na6  1  0.03303217  0.69674318  0.58320199  1
  Na  Na7  1  0.66368136  0.97077024  0.58312724  1
  Na  Na8  1  0.66641194  0.69142585  0.08249365  1
  Na  Na9  1  0.03093591  0.33585738  0.08506012  1
  Na  Na10  1  0.96152397  0.66505667  0.91828504  1
  Na  Na11  1  0.70015830  0.03151166  0.91643648  1
  Na  Na12  1  0.33846648  0.30279519  0.91770248  1
  Na  Na13  1  0.96672828  0.30386582  0.41599313  1
  Na  Na14  1  0.33537786  0.02843621  0.41776936  1
  Na  Na15  1  0.00037387  0.99921169  0.50010414  1
  Na  Na16  1  0.00625651  0.99580945  0.00015378  1
  Na  Na17  1  0.66670435  0.33331640  0.83340927  1
  Na  Na18  1  0.67258605  0.33917775  0.33392340  1
  Na  Na19  1  0.32692970  0.66626515  0.16698958  1
  Na  Na20  1  0.33353506  0.66266019  0.66556821  1
  Zr  Zr21  1  0.98862551  0.99393225  0.35315346  1
  Zr  Zr22  1  0.00358889  0.00798421  0.64751209  1
  Zr  Zr23  1  0.01128269  0.00485228  0.14682063  1
  Zr  Zr24  1  0.66714300  0.33304412  0.48193274  1
  Zr  Zr25  1  0.33502199  0.67013600  0.01952016  1
  Zr  Zr26  1  0.33306655  0.66721844  0.51811121  1
  Sc  Sc27  1  0.99165826  0.99772335  0.84997920  1
  Sc  Sc28  1  0.66775178  0.32649893  0.68211987  1
  Sc  Sc29  1  0.67146047  0.33659502  0.18133570  1
  Sc  Sc30  1  0.66300363  0.34002011  0.98471398  1
  Sc  Sc31  1  0.32846402  0.66476456  0.31825737  1
  Sc  Sc32  1  0.34154637  0.66928593  0.81673503  1
  Si  Si33  1  0.99981593  0.29764703  0.24988001  1
  Si  Si34  1  0.70385351  0.00058879  0.75056512  1
  Si  Si35  1  0.96156192  0.33506490  0.58422730  1
  Si  Si36  1  0.37219665  0.04072718  0.58374296  1
  Si  Si37  1  0.95955793  0.62640572  0.08314672  1
  Si  Si38  1  0.37550580  0.33226103  0.08330837  1
  Si  Si39  1  0.62958625  0.66605109  0.91598997  1
  Si  Si40  1  0.62473812  0.95784435  0.41587543  1
  Si  Si41  1  0.03877168  0.66658341  0.41577024  1
  P  P42  1  0.29458631  0.00048122  0.25121150  1
  P  P43  1  0.70539249  0.70580534  0.24874784  1
  P  P44  1  0.29333581  0.29350570  0.75202413  1
  P  P45  1  0.99941872  0.70640383  0.75076911  1
  P  P46  1  0.66542372  0.62352478  0.58552296  1
  P  P47  1  0.66595196  0.04200824  0.08342425  1
  P  P48  1  0.04069852  0.37374366  0.91568097  1
  P  P49  1  0.33379515  0.96015993  0.91521878  1
  P  P50  1  0.33521604  0.37546095  0.41491834  1
  O  O51  1  0.20995415  0.02851661  0.30536628  1
  O  O52  1  0.82366753  0.79335355  0.30197679  1
  O  O53  1  0.97108524  0.17444961  0.30651941  1
  O  O54  1  0.21300725  0.18142080  0.80617304  1
  O  O55  1  0.97359419  0.79210707  0.80489877  1
  O  O56  1  0.82554223  0.03323763  0.80721437  1
  O  O57  1  0.79409019  0.96679265  0.69375190  1
  O  O58  1  0.17706835  0.20476506  0.69839345  1
  O  O59  1  0.03034207  0.81977905  0.69610310  1
  O  O60  1  0.79000760  0.81868745  0.19458044  1
  O  O61  1  0.02868289  0.20336612  0.19334795  1
  O  O62  1  0.17629497  0.96961920  0.19802042  1
  O  O63  1  0.87828510  0.36975511  0.64151121  1
  O  O64  1  0.48999116  0.12360518  0.64109457  1
  O  O65  1  0.64105676  0.51992451  0.64085090  1
  O  O66  1  0.87844507  0.50895639  0.14113610  1
  O  O67  1  0.63979217  0.12108417  0.13857345  1
  O  O68  1  0.49090764  0.36839811  0.14139897  1
  O  O69  1  0.45664961  0.30375179  0.02451581  1
  O  O70  1  0.84344226  0.54275255  0.02521561  1
  O  O71  1  0.69842751  0.15122513  0.02843699  1
  O  O72  1  0.45791113  0.15433507  0.52530837  1
  O  O73  1  0.69693071  0.54083539  0.53175303  1
  O  O74  1  0.84130472  0.30139263  0.52662595  1
  O  O75  1  0.53983850  0.69993065  0.97285571  1
  O  O76  1  0.15322512  0.45951683  0.97036648  1
  O  O77  1  0.30233515  0.84286747  0.96848994  1
  O  O78  1  0.54058910  0.84503578  0.47450271  1
  O  O79  1  0.30198360  0.45772480  0.46841949  1
  O  O80  1  0.15858227  0.69806169  0.47347659  1
  O  O81  1  0.12239484  0.63122752  0.35862716  1
  O  O82  1  0.50901450  0.87541769  0.35825674  1
  O  O83  1  0.36027579  0.48007663  0.35972420  1
  O  O84  1  0.12199946  0.48623416  0.86161354  1
  O  O85  1  0.36050330  0.87674296  0.86063280  1
  O  O86  1  0.50798850  0.63384295  0.85939103  1
  O  O87  1  0.03467475  0.84316091  0.41013677  1
  O  O88  1  0.81798166  0.98983078  0.41160626  1
  O  O89  1  0.17434737  0.19645766  0.40952731  1
  O  O90  1  0.02932229  0.19870953  0.91117232  1
  O  O91  1  0.17609978  0.97986724  0.91020801  1
  O  O92  1  0.81678788  0.83640132  0.91126525  1
  O  O93  1  0.96790964  0.15895035  0.58946734  1
  O  O94  1  0.17900323  0.00578010  0.58975914  1
  O  O95  1  0.82792810  0.80197718  0.59014760  1
  O  O96  1  0.96699112  0.80886835  0.09021136  1
  O  O97  1  0.82455060  0.02065360  0.09025737  1
  O  O98  1  0.18118174  0.17207692  0.08846137  1
  O  O99  1  0.68767605  0.17109118  0.74581668  1
  O  O100  1  0.47016259  0.31502602  0.74446301  1
  O  O101  1  0.83798152  0.53189923  0.74511317  1
  O  O102  1  0.68898270  0.52967611  0.24491452  1
  O  O103  1  0.82807959  0.30982298  0.24570862  1
  O  O104  1  0.46825684  0.16009099  0.24427221  1
  O  O105  1  0.64628801  0.49583495  0.92050218  1
  O  O106  1  0.86273221  0.35087230  0.92240352  1
  O  O107  1  0.49545696  0.13411483  0.92181876  1
  O  O108  1  0.64251670  0.14662396  0.42188850  1
  O  O109  1  0.48758796  0.34896827  0.42211055  1
  O  O110  1  0.85514066  0.49649371  0.42296639  1
  O  O111  1  0.35526698  0.50274049  0.07644628  1
  O  O112  1  0.14396247  0.63963146  0.07617193  1
  O  O113  1  0.51184875  0.86093693  0.07733702  1
  O  O114  1  0.35790820  0.85313170  0.57798228  1
  O  O115  1  0.51378106  0.65153467  0.57795101  1
  O  O116  1  0.14558620  0.50413841  0.57715198  1
  O  O117  1  0.31088307  0.84065691  0.25500203  1
  O  O118  1  0.53196220  0.69188391  0.25556578  1
  O  O119  1  0.17173767  0.48197579  0.25397692  1
  O  O120  1  0.30418062  0.46812173  0.75580101  1
  O  O121  1  0.15708618  0.68662127  0.75634429  1
  O  O122  1  0.51690968  0.83031327  0.75543590  1
