# generated using pymatgen
data_Na2B2S5
_symmetry_space_group_name_H-M   'P 1'
_cell_length_a   7.42431268
_cell_length_b   8.30020059
_cell_length_c   12.50277595
_cell_angle_alpha   90.00000000
_cell_angle_beta   90.00000000
_cell_angle_gamma   90.00000000
_symmetry_Int_Tables_number   1
_chemical_formula_structural   Na2B2S5
_chemical_formula_sum   'Na8 B8 S20'
_cell_volume   770.46211924
_cell_formula_units_Z   4
loop_
 _symmetry_equiv_pos_site_id
 _symmetry_equiv_pos_as_xyz
  1  'x, y, z'
loop_
 _atom_site_type_symbol
 _atom_site_label
 _atom_site_symmetry_multiplicity
 _atom_site_fract_x
 _atom_site_fract_y
 _atom_site_fract_z
 _atom_site_occupancy
  Na  Na0  1  0.49581459  0.00327505  0.16578460  1
  Na  Na1  1  0.99581459  0.99672495  0.83421540  1
  Na  Na2  1  0.50418541  0.50327505  0.33421540  1
  Na  Na3  1  0.00418541  0.49672495  0.66578460  1
  Na  Na4  1  0.50418541  0.99672495  0.83421540  1
  Na  Na5  1  0.00418541  0.00327505  0.16578460  1
  Na  Na6  1  0.49581459  0.49672495  0.66578460  1
  Na  Na7  1  0.99581459  0.50327505  0.33421540  1
  B  B8  1  0.25000000  0.59493368  0.12240974  1
  B  B9  1  0.75000000  0.40506632  0.87759026  1
  B  B10  1  0.75000000  0.09493368  0.37759026  1
  B  B11  1  0.25000000  0.90506632  0.62240974  1
  B  B12  1  0.25000000  0.29166889  0.01433461  1
  B  B13  1  0.75000000  0.70833111  0.98566539  1
  B  B14  1  0.75000000  0.79166889  0.48566539  1
  B  B15  1  0.25000000  0.20833111  0.51433461  1
  S  S16  1  0.25000000  0.41900157  0.49304705  1
  S  S17  1  0.75000000  0.58099843  0.50695295  1
  S  S18  1  0.75000000  0.91900157  0.00695295  1
  S  S19  1  0.25000000  0.08099843  0.99304705  1
  S  S20  1  0.25000000  0.73722691  0.22791332  1
  S  S21  1  0.75000000  0.26277309  0.77208668  1
  S  S22  1  0.75000000  0.23722691  0.27208668  1
  S  S23  1  0.25000000  0.76277309  0.72791332  1
  S  S24  1  0.25000000  0.37805217  0.14884337  1
  S  S25  1  0.75000000  0.62194783  0.85115663  1
  S  S26  1  0.75000000  0.87805217  0.35115663  1
  S  S27  1  0.25000000  0.12194783  0.64884337  1
  S  S28  1  0.25000000  0.43498721  0.90471480  1
  S  S29  1  0.75000000  0.56501279  0.09528520  1
  S  S30  1  0.75000000  0.93498721  0.59528520  1
  S  S31  1  0.25000000  0.06501279  0.40471480  1
  S  S32  1  0.25000000  0.65562579  0.98399031  1
  S  S33  1  0.75000000  0.34437421  0.01600969  1
  S  S34  1  0.75000000  0.15562579  0.51600969  1
  S  S35  1  0.25000000  0.84437421  0.48399031  1
