# generated using pymatgen
data_Si2H6S
_symmetry_space_group_name_H-M   'P 1'
_cell_length_a   8.15739238
_cell_length_b   8.88810727
_cell_length_c   14.86713094
_cell_angle_alpha   90.00000000
_cell_angle_beta   90.00000000
_cell_angle_gamma   90.00000000
_symmetry_Int_Tables_number   1
_chemical_formula_structural   Si2H6S
_chemical_formula_sum   'Si16 H48 S8'
_cell_volume   1077.92316886
_cell_formula_units_Z   8
loop_
 _symmetry_equiv_pos_site_id
 _symmetry_equiv_pos_as_xyz
  1  'x, y, z'
loop_
 _atom_site_type_symbol
 _atom_site_label
 _atom_site_symmetry_multiplicity
 _atom_site_fract_x
 _atom_site_fract_y
 _atom_site_fract_z
 _atom_site_occupancy
  Si  Si0  1  0.74330805  0.89165856  0.03224695  1
  Si  Si1  1  0.24330805  0.10834144  0.46775305  1
  Si  Si2  1  0.75669195  0.39165856  0.46775305  1
  Si  Si3  1  0.25669195  0.60834144  0.03224695  1
  Si  Si4  1  0.25669195  0.10834144  0.96775305  1
  Si  Si5  1  0.75669195  0.89165856  0.53224695  1
  Si  Si6  1  0.24330805  0.60834144  0.53224695  1
  Si  Si7  1  0.74330805  0.39165856  0.96775305  1
  Si  Si8  1  0.90974662  0.01229792  0.21758108  1
  Si  Si9  1  0.40974662  0.98770208  0.28241892  1
  Si  Si10  1  0.59025338  0.51229792  0.28241892  1
  Si  Si11  1  0.09025338  0.48770208  0.21758108  1
  Si  Si12  1  0.09025338  0.98770208  0.78241892  1
  Si  Si13  1  0.59025338  0.01229792  0.71758108  1
  Si  Si14  1  0.40974662  0.48770208  0.71758108  1
  Si  Si15  1  0.90974662  0.51229792  0.78241892  1
  H  H16  1  0.91428292  0.87581948  0.00056225  1
  H  H17  1  0.41428292  0.12418052  0.49943775  1
  H  H18  1  0.58571708  0.37581948  0.49943775  1
  H  H19  1  0.08571708  0.62418052  0.00056225  1
  H  H20  1  0.08571708  0.12418052  0.99943775  1
  H  H21  1  0.58571708  0.87581948  0.50056225  1
  H  H22  1  0.41428292  0.62418052  0.50056225  1
  H  H23  1  0.91428292  0.37581948  0.99943775  1
  H  H24  1  0.69287735  0.75201749  0.07888857  1
  H  H25  1  0.19287735  0.24798251  0.42111143  1
  H  H26  1  0.80712265  0.25201749  0.42111143  1
  H  H27  1  0.30712265  0.74798251  0.07888857  1
  H  H28  1  0.30712265  0.24798251  0.92111143  1
  H  H29  1  0.80712265  0.75201749  0.57888857  1
  H  H30  1  0.19287735  0.74798251  0.57888857  1
  H  H31  1  0.69287735  0.25201749  0.92111143  1
  H  H32  1  0.63155067  0.92627590  0.95692169  1
  H  H33  1  0.13155067  0.07372410  0.54307831  1
  H  H34  1  0.86844933  0.42627590  0.54307831  1
  H  H35  1  0.36844933  0.57372410  0.95692169  1
  H  H36  1  0.36844933  0.07372410  0.04307831  1
  H  H37  1  0.86844933  0.92627590  0.45692169  1
  H  H38  1  0.13155067  0.57372410  0.45692169  1
  H  H39  1  0.63155067  0.42627590  0.04307831  1
  H  H40  1  0.07271528  0.01438624  0.17371568  1
  H  H41  1  0.57271528  0.98561376  0.32628432  1
  H  H42  1  0.42728472  0.51438624  0.32628432  1
  H  H43  1  0.92728472  0.48561376  0.17371568  1
  H  H44  1  0.92728472  0.98561376  0.82628432  1
  H  H45  1  0.42728472  0.01438624  0.67371568  1
  H  H46  1  0.57271528  0.48561376  0.67371568  1
  H  H47  1  0.07271528  0.51438624  0.82628432  1
  H  H48  1  0.87353077  0.85913199  0.25102392  1
  H  H49  1  0.37353077  0.14086801  0.24897608  1
  H  H50  1  0.62646923  0.35913199  0.24897608  1
  H  H51  1  0.12646923  0.64086801  0.25102392  1
  H  H52  1  0.12646923  0.14086801  0.74897608  1
  H  H53  1  0.62646923  0.85913199  0.75102392  1
  H  H54  1  0.37353077  0.64086801  0.75102392  1
  H  H55  1  0.87353077  0.35913199  0.74897608  1
  H  H56  1  0.90114840  0.12404331  0.29077615  1
  H  H57  1  0.40114840  0.87595669  0.20922385  1
  H  H58  1  0.59885160  0.62404331  0.20922385  1
  H  H59  1  0.09885160  0.37595669  0.29077615  1
  H  H60  1  0.09885160  0.87595669  0.70922385  1
  H  H61  1  0.59885160  0.12404331  0.79077615  1
  H  H62  1  0.40114840  0.37595669  0.79077615  1
  H  H63  1  0.90114840  0.62404331  0.70922385  1
  S  S64  1  0.72480532  0.07918561  0.12286231  1
  S  S65  1  0.22480532  0.92081439  0.37713769  1
  S  S66  1  0.77519468  0.57918561  0.37713769  1
  S  S67  1  0.27519468  0.42081439  0.12286231  1
  S  S68  1  0.27519468  0.92081439  0.87713769  1
  S  S69  1  0.77519468  0.07918561  0.62286231  1
  S  S70  1  0.22480532  0.42081439  0.62286231  1
  S  S71  1  0.72480532  0.57918561  0.87713769  1
