# generated using pymatgen
data_MgV6O5F19
_symmetry_space_group_name_H-M   'P 1'
_cell_length_a   5.43003904
_cell_length_b   5.34315784
_cell_length_c   15.52329812
_cell_angle_alpha   90.06003896
_cell_angle_beta   100.70251172
_cell_angle_gamma   90.52690527
_symmetry_Int_Tables_number   1
_chemical_formula_structural   MgV6O5F19
_chemical_formula_sum   'Mg1 V6 O5 F19'
_cell_volume   442.53100028
_cell_formula_units_Z   1
loop_
 _symmetry_equiv_pos_site_id
 _symmetry_equiv_pos_as_xyz
  1  'x, y, z'
loop_
 _atom_site_type_symbol
 _atom_site_label
 _atom_site_symmetry_multiplicity
 _atom_site_fract_x
 _atom_site_fract_y
 _atom_site_fract_z
 _atom_site_occupancy
  Mg  Mg0  1  0.64641000  0.75597800  0.81373900  1
  V  V1  1  0.04427800  0.96936700  0.01520700  1
  V  V2  1  0.12150900  0.47174900  0.32962400  1
  V  V3  1  0.32191300  0.06130100  0.65108100  1
  V  V4  1  0.54458700  0.44438100  0.00971800  1
  V  V5  1  0.64931000  0.98940100  0.33358800  1
  V  V6  1  0.84281700  0.49929700  0.65366300  1
  O  O7  1  0.04236200  0.21411400  0.64818400  1
  O  O8  1  0.53206400  0.28669800  0.64034300  1
  O  O9  1  0.73012800  0.21194300  0.99035500  1
  O  O10  1  0.27986400  0.78037900  0.02020100  1
  O  O11  1  0.87421900  0.28554200  0.30967700  1
  F  F12  1  0.21449500  0.25768500  0.98100900  1
  F  F13  1  0.13672200  0.70564700  0.68102800  1
  F  F14  1  0.08038300  0.07489700  0.12413700  1
  F  F15  1  0.22057300  0.42729000  0.44410700  1
  F  F16  1  0.40942800  0.03485500  0.77529600  1
  F  F17  1  0.13017300  0.59078300  0.22399400  1
  F  F18  1  0.27596900  0.92032500  0.54684700  1
  F  F19  1  0.46892600  0.57922400  0.88874300  1
  F  F20  1  0.35930700  0.21573400  0.31159900  1
  F  F21  1  0.45597200  0.71712300  0.35784800  1
  F  F22  1  0.63369000  0.79448900  0.68196100  1
  F  F23  1  0.52697800  0.43541000  0.12435800  1
  F  F24  1  0.72568800  0.09011300  0.44433500  1
  F  F25  1  0.84649600  0.47030500  0.77567000  1
  F  F26  1  0.61808800  0.92651900  0.22065900  1
  F  F27  1  0.77714600  0.58737900  0.54371800  1
  F  F28  1  0.92209300  0.91119400  0.89114000  1
  F  F29  1  0.80650100  0.71967300  0.03435900  1
  F  F30  1  0.95238300  0.77120100  0.35524200  1
