# generated using pymatgen
data_Na5Sc3Ge(PO4)6
_symmetry_space_group_name_H-M   'P 1'
_cell_length_a   8.88545404
_cell_length_b   8.88176371
_cell_length_c   22.38833492
_cell_angle_alpha   89.99796817
_cell_angle_beta   90.00985838
_cell_angle_gamma   120.02897593
_symmetry_Int_Tables_number   1
_chemical_formula_structural   Na5Sc3Ge(PO4)6
_chemical_formula_sum   'Na15 Sc9 Ge3 P18 O72'
_cell_volume   1529.69335486
_cell_formula_units_Z   3
loop_
 _symmetry_equiv_pos_site_id
 _symmetry_equiv_pos_as_xyz
  1  'x, y, z'
loop_
 _atom_site_type_symbol
 _atom_site_label
 _atom_site_symmetry_multiplicity
 _atom_site_fract_x
 _atom_site_fract_y
 _atom_site_fract_z
 _atom_site_occupancy
  Na  Na0  1  0.63763991  0.00054478  0.25373819  1
  Na  Na1  1  0.36313076  0.36309803  0.25423836  1
  Na  Na2  1  -0.00078456  0.63700307  0.25391127  1
  Na  Na3  1  0.64349371  0.63918701  0.75073355  1
  Na  Na4  1  0.99771413  0.35927619  0.75115701  1
  Na  Na5  1  0.03439199  0.70198618  0.58119549  1
  Na  Na6  1  0.66418893  0.96419744  0.58099450  1
  Na  Na7  1  0.66454479  0.70075342  0.08087577  1
  Na  Na8  1  0.03491173  0.33207679  0.08092353  1
  Na  Na9  1  0.01045190  0.01156508  0.49640407  1
  Na  Na10  1  0.01085011  0.99892046  0.99481233  1
  Na  Na11  1  0.65625393  0.32219442  0.83598986  1
  Na  Na12  1  0.66671330  0.33349140  0.34050373  1
  Na  Na13  1  0.33243970  0.67719302  0.16581108  1
  Na  Na14  1  0.33354346  0.66638679  0.66625147  1
  Sc  Sc15  1  0.99938818  0.99931948  0.35701670  1
  Sc  Sc16  1  0.00132003  0.00039508  0.85502379  1
  Sc  Sc17  1  0.00937382  0.00744957  0.64864493  1
  Sc  Sc18  1  0.00681539  0.99920748  0.14572776  1
  Sc  Sc19  1  0.65886284  0.32721569  0.68576516  1
  Sc  Sc20  1  0.66452490  0.33108838  0.18354722  1
  Sc  Sc21  1  0.33270444  0.67237667  0.01595304  1
  Sc  Sc22  1  0.33242988  0.65989195  0.51564614  1
  Sc  Sc23  1  0.33327605  0.66602029  0.32376618  1
  Ge  Ge24  1  0.66473078  0.33197918  0.97762327  1
  Ge  Ge25  1  0.66428601  0.33263527  0.48038396  1
  Ge  Ge26  1  0.33402822  0.67330050  0.82011748  1
  P  P27  1  0.29222799  0.99802471  0.25093238  1
  P  P28  1  0.70609148  0.70796255  0.24896463  1
  P  P29  1  0.00178206  0.29390503  0.24914555  1
  P  P30  1  0.29347771  0.30151211  0.75406996  1
  P  P31  1  0.01152372  0.70900755  0.75185493  1
  P  P32  1  0.69737709  0.99105255  0.75217835  1
  P  P33  1  0.95165174  0.33228843  0.58223394  1
  P  P34  1  0.37890779  0.04824070  0.57991387  1
  P  P35  1  0.66590282  0.61961234  0.58237678  1
  P  P36  1  0.95190980  0.61899814  0.08017903  1
  P  P37  1  0.66570055  0.04616284  0.08046465  1
  P  P38  1  0.37937654  0.33086320  0.07954407  1
  P  P39  1  0.62214791  0.65700619  0.91746538  1
  P  P40  1  0.03435143  0.37767094  0.91769958  1
  P  P41  1  0.34303784  0.96521412  0.91686144  1
  P  P42  1  0.63089602  0.97473041  0.41980071  1
  P  P43  1  0.34385611  0.36850251  0.41821257  1
  P  P44  1  0.02510630  0.65603956  0.41993505  1
  O  O45  1  0.20791677  0.03066637  0.30479697  1
  O  O46  1  0.82557437  0.79568866  0.30210156  1
  O  O47  1  0.97071137  0.17452087  0.30221558  1
  O  O48  1  0.20742462  0.18761515  0.80773004  1
  O  O49  1  0.97435947  0.79538292  0.80393111  1
  O  O50  1  0.82010159  0.02421072  0.80436642  1
  O  O51  1  0.77178731  0.95443644  0.69410411  1
  O  O52  1  0.17825271  0.22350169  0.69745986  1
  O  O53  1  0.03950801  0.81292280  0.69292636  1
  O  O54  1  0.78437586  0.81514771  0.19072527  1
  O  O55  1  0.03084042  0.21570169  0.19089270  1
  O  O56  1  0.17953468  0.96700349  0.19439438  1
  O  O57  1  0.87433558  0.36104444  0.64008112  1
  O  O58  1  0.49109024  0.12779031  0.63585372  1
  O  O59  1  0.64344570  0.51898969  0.64075073  1
  O  O60  1  0.87502802  0.51444850  0.13852914  1
  O  O61  1  0.64307047  0.12318536  0.13937299  1
  O  O62  1  0.48456206  0.36068546  0.13778318  1
  O  O63  1  0.47256491  0.30643925  0.02486016  1
  O  O64  1  0.82753439  0.52679023  0.02608152  1
  O  O65  1  0.69804378  0.17059139  0.02654399  1
  O  O66  1  0.46759294  0.16323350  0.52425665  1
  O  O67  1  0.69856911  0.52869901  0.52813626  1
  O  O68  1  0.82777078  0.29929224  0.52790318  1
  O  O69  1  0.54038997  0.68246653  0.97404834  1
  O  O70  1  0.14200523  0.45903636  0.97422725  1
  O  O71  1  0.31552802  0.85487354  0.97215775  1
  O  O72  1  0.54318747  0.86150656  0.47486554  1
  O  O73  1  0.31736457  0.46095898  0.47115923  1
  O  O74  1  0.13861464  0.68234474  0.47496272  1
  O  O75  1  0.10788805  0.62877397  0.36226493  1
  O  O76  1  0.52123362  0.89124618  0.36212384  1
  O  O77  1  0.37143153  0.47533290  0.35965232  1
  O  O78  1  0.12379914  0.49597387  0.86052738  1
  O  O79  1  0.37468317  0.87707514  0.86038133  1
  O  O80  1  0.50432852  0.62919391  0.86027683  1
  O  O81  1  0.00454516  0.81687140  0.41340513  1
  O  O82  1  0.81228389  0.99520194  0.41340424  1
  O  O83  1  0.18290443  0.18734342  0.41285998  1
  O  O84  1  0.01263739  0.19655942  0.91052719  1
  O  O85  1  0.18357432  0.98627496  0.90980193  1
  O  O86  1  0.80334358  0.81654735  0.91033524  1
  O  O87  1  0.96389011  0.16438479  0.58703485  1
  O  O88  1  0.19407971  0.02394034  0.58567689  1
  O  O89  1  0.83392829  0.80327817  0.58604538  1
  O  O90  1  0.96431636  0.79878847  0.08404119  1
  O  O91  1  0.83304425  0.03062428  0.08367993  1
  O  O92  1  0.19418338  0.17121138  0.08343608  1
  O  O93  1  0.68068418  0.15543901  0.74581703  1
  O  O94  1  0.48004603  0.33322533  0.74671502  1
  O  O95  1  0.84934023  0.52288736  0.74607430  1
  O  O96  1  0.68391620  0.52315870  0.24426826  1
  O  O97  1  0.83901685  0.31575932  0.24459935  1
  O  O98  1  0.47614975  0.16073330  0.24475561  1
  O  O99  1  0.63543026  0.48654234  0.92211512  1
  O  O100  1  0.85052793  0.36410404  0.92266250  1
  O  O101  1  0.51298124  0.14855570  0.92260888  1
  O  O102  1  0.64469024  0.15694784  0.42548577  1
  O  O103  1  0.51295206  0.35708009  0.42548617  1
  O  O104  1  0.84320253  0.48734802  0.42623316  1
  O  O105  1  0.36007480  0.49536991  0.07562021  1
  O  O106  1  0.13120506  0.63335893  0.07547030  1
  O  O107  1  0.50887747  0.86053834  0.07629924  1
  O  O108  1  0.35765099  0.86364091  0.57558240  1
  O  O109  1  0.50933301  0.64868388  0.57680467  1
  O  O110  1  0.13147774  0.49689526  0.57611349  1
  O  O111  1  0.31263161  0.83451094  0.25643819  1
  O  O112  1  0.52289844  0.68898958  0.25543258  1
  O  O113  1  0.16546151  0.47784998  0.25544886  1
  O  O114  1  0.30958233  0.48844452  0.76057495  1
  O  O115  1  0.17506604  0.68510884  0.76054177  1
  O  O116  1  0.51504227  0.82011587  0.76090293  1
