# generated using pymatgen
data_Na4HfZnSi2SO12
_symmetry_space_group_name_H-M   'P 1'
_cell_length_a   9.20322552
_cell_length_b   9.22568747
_cell_length_c   22.39860596
_cell_angle_alpha   89.20733602
_cell_angle_beta   90.00000000
_cell_angle_gamma   119.91949281
_symmetry_Int_Tables_number   1
_chemical_formula_structural   Na4HfZnSi2SO12
_chemical_formula_sum   'Na24 Hf6 Zn6 Si12 S6 O72'
_cell_volume   1648.11245914
_cell_formula_units_Z   6
loop_
 _symmetry_equiv_pos_site_id
 _symmetry_equiv_pos_as_xyz
  1  'x, y, z'
loop_
 _atom_site_type_symbol
 _atom_site_label
 _atom_site_symmetry_multiplicity
 _atom_site_fract_x
 _atom_site_fract_y
 _atom_site_fract_z
 _atom_site_occupancy
  Na  Na0  1  0.64480669  0.02668963  0.25434902  1
  Na  Na1  1  0.36326156  0.34823722  0.24193629  1
  Na  Na2  1  0.99072848  0.61802529  0.23961049  1
  Na  Na3  1  0.62729681  0.61802529  0.73961049  1
  Na  Na4  1  0.98497566  0.34823722  0.74193629  1
  Na  Na5  1  0.38188293  0.02668963  0.75434902  1
  Na  Na6  1  0.31147369  0.36002263  0.58768202  1
  Na  Na7  1  0.02992856  0.68157022  0.57526929  1
  Na  Na8  1  0.65739548  0.95135829  0.57294349  1
  Na  Na9  1  0.29396381  0.95135829  0.07294349  1
  Na  Na10  1  0.65164266  0.68157022  0.07526929  1
  Na  Na11  1  0.04854993  0.36002263  0.08768202  1
  Na  Na12  1  0.97813969  0.69335663  0.92101602  1
  Na  Na13  1  0.69659456  0.01490422  0.90860329  1
  Na  Na14  1  0.32406148  0.28469229  0.90627749  1
  Na  Na15  1  0.96062981  0.28469229  0.40627749  1
  Na  Na16  1  0.31830866  0.01490422  0.40860329  1
  Na  Na17  1  0.71521593  0.69335663  0.42101602  1
  Na  Na18  1  0.98118450  0.98571607  0.49299255  1
  Na  Na19  1  0.00453156  0.98571607  0.99299255  1
  Na  Na20  1  0.64785150  0.31904907  0.82632555  1
  Na  Na21  1  0.67119856  0.31904907  0.32632555  1
  Na  Na22  1  0.31451750  0.65238307  0.15965955  1
  Na  Na23  1  0.33786456  0.65238307  0.65965955  1
  Hf  Hf24  1  0.98865565  0.00691108  0.64793961  1
  Hf  Hf25  1  0.01825543  0.00691108  0.14793961  1
  Hf  Hf26  1  0.65532265  0.34024408  0.98127261  1
  Hf  Hf27  1  0.68492243  0.34024408  0.48127261  1
  Hf  Hf28  1  0.32198865  0.67357808  0.31460661  1
  Hf  Hf29  1  0.35158843  0.67357808  0.81460661  1
  Zn  Zn30  1  0.00205123  0.00285324  0.34817986  1
  Zn  Zn31  1  0.00080201  0.00285324  0.84817986  1
  Zn  Zn32  1  0.66871823  0.33618624  0.68151286  1
  Zn  Zn33  1  0.66746901  0.33618624  0.18151286  1
  Zn  Zn34  1  0.33538423  0.66952024  0.01484686  1
  Zn  Zn35  1  0.33413501  0.66952024  0.51484686  1
  Si  Si36  1  0.30061818  0.00509106  0.25323938  1
  Si  Si37  1  0.00033713  0.29460532  0.25215074  1
  Si  Si38  1  0.29426818  0.29460532  0.75215074  1
  Si  Si39  1  0.70447288  0.00509106  0.75323938  1
  Si  Si40  1  0.96728518  0.33842406  0.58657238  1
  Si  Si41  1  0.66700413  0.62793832  0.58548374  1
  Si  Si42  1  0.96093518  0.62793832  0.08548374  1
  Si  Si43  1  0.37113988  0.33842406  0.08657238  1
  Si  Si44  1  0.63395118  0.67175806  0.91990638  1
  Si  Si45  1  0.33367013  0.96127232  0.91881774  1
  Si  Si46  1  0.62760118  0.96127232  0.41881774  1
  Si  Si47  1  0.03780588  0.67175806  0.41990638  1
  S  S48  1  0.70326272  0.70775394  0.25195616  1
  S  S49  1  0.00449122  0.70775394  0.75195616  1
  S  S50  1  0.36992972  0.04108694  0.58528916  1
  S  S51  1  0.67115822  0.04108694  0.08528916  1
  S  S52  1  0.03659572  0.37442094  0.91862316  1
  S  S53  1  0.33782422  0.37442094  0.41862316  1
  O  O54  1  0.21425065  0.02936485  0.31195115  1
  O  O55  1  0.80041112  0.78571227  0.30586371  1
  O  O56  1  0.97069117  0.18135664  0.31158495  1
  O  O57  1  0.21066547  0.18135664  0.81158495  1
  O  O58  1  0.98530116  0.78571227  0.80586371  1
  O  O59  1  0.81511420  0.02936485  0.81195115  1
  O  O60  1  0.79345081  0.96929442  0.69449066  1
  O  O61  1  0.17530066  0.19671593  0.69286542  1
  O  O62  1  0.02698599  0.81321895  0.69714245  1
  O  O63  1  0.78623296  0.81321895  0.19714245  1
  O  O64  1  0.02141527  0.19671593  0.19286542  1
  O  O65  1  0.17584362  0.96929442  0.19449066  1
  O  O66  1  0.88091765  0.36269785  0.64528415  1
  O  O67  1  0.46707812  0.11904527  0.63919671  1
  O  O68  1  0.63735817  0.51468964  0.64491795  1
  O  O69  1  0.87733247  0.51468964  0.14491795  1
  O  O70  1  0.65196816  0.11904527  0.13919671  1
  O  O71  1  0.48178120  0.36269785  0.14528415  1
  O  O72  1  0.46011781  0.30262742  0.02782366  1
  O  O73  1  0.84196766  0.53004893  0.02619842  1
  O  O74  1  0.69365299  0.14655195  0.03047545  1
  O  O75  1  0.45289996  0.14655195  0.53047545  1
  O  O76  1  0.68808227  0.53004893  0.52619842  1
  O  O77  1  0.84251062  0.30262742  0.52782366  1
  O  O78  1  0.54758365  0.69603185  0.97861815  1
  O  O79  1  0.13374412  0.45237927  0.97253071  1
  O  O80  1  0.30402417  0.84802364  0.97825195  1
  O  O81  1  0.54399847  0.84802364  0.47825195  1
  O  O82  1  0.31863416  0.45237927  0.47253071  1
  O  O83  1  0.14844720  0.69603185  0.47861815  1
  O  O84  1  0.12678381  0.63596142  0.36115766  1
  O  O85  1  0.50863366  0.86338293  0.35953242  1
  O  O86  1  0.36031899  0.47988595  0.36380945  1
  O  O87  1  0.11956596  0.47988595  0.86380945  1
  O  O88  1  0.35474827  0.86338293  0.85953242  1
  O  O89  1  0.50917662  0.63596142  0.86115766  1
  O  O90  1  0.01123070  0.83250201  0.41216174  1
  O  O91  1  0.81764411  0.99093681  0.41408234  1
  O  O92  1  0.18923515  0.20563603  0.41457915  1
  O  O93  1  0.01640088  0.20563603  0.91457915  1
  O  O94  1  0.17329270  0.99093681  0.91408234  1
  O  O95  1  0.82127130  0.83250201  0.91216174  1
  O  O96  1  0.98019923  0.16314057  0.58692222  1
  O  O97  1  0.19855842  0.02490457  0.58792235  1
  O  O98  1  0.84867257  0.81133412  0.58807978  1
  O  O99  1  0.96266155  0.81133412  0.08807978  1
  O  O100  1  0.82634615  0.02490457  0.08792235  1
  O  O101  1  0.18294133  0.16314057  0.08692222  1
  O  O102  1  0.67789770  0.16583501  0.74549474  1
  O  O103  1  0.48431111  0.32426981  0.74741534  1
  O  O104  1  0.85590215  0.53896903  0.74791215  1
  O  O105  1  0.68306788  0.53896903  0.24791215  1
  O  O106  1  0.83995970  0.32426981  0.24741534  1
  O  O107  1  0.48793830  0.16583501  0.24549474  1
  O  O108  1  0.64686623  0.49647357  0.92025522  1
  O  O109  1  0.86522542  0.35823757  0.92125535  1
  O  O110  1  0.51533957  0.14466712  0.92141278  1
  O  O111  1  0.62932855  0.14466712  0.42141278  1
  O  O112  1  0.49301315  0.35823757  0.42125535  1
  O  O113  1  0.84960833  0.49647357  0.42025522  1
  O  O114  1  0.34456370  0.49916901  0.07882874  1
  O  O115  1  0.15097711  0.65760381  0.08074934  1
  O  O116  1  0.52256815  0.87230303  0.08124615  1
  O  O117  1  0.34973388  0.87230303  0.58124615  1
  O  O118  1  0.50662570  0.65760381  0.58074934  1
  O  O119  1  0.15460430  0.49916901  0.57882874  1
  O  O120  1  0.31353223  0.82980757  0.25358922  1
  O  O121  1  0.53189142  0.69157157  0.25458935  1
  O  O122  1  0.18200557  0.47800112  0.25474678  1
  O  O123  1  0.29599455  0.47800112  0.75474678  1
  O  O124  1  0.15967915  0.69157157  0.75458935  1
  O  O125  1  0.51627433  0.82980757  0.75358922  1
