# generated using pymatgen
data_NaTi2In2P3(SO8)3
_symmetry_space_group_name_H-M   'P 1'
_cell_length_a   8.74451964
_cell_length_b   8.75563525
_cell_length_c   22.76181871
_cell_angle_alpha   90.28658911
_cell_angle_beta   89.95042299
_cell_angle_gamma   120.07751684
_symmetry_Int_Tables_number   1
_chemical_formula_structural   NaTi2In2P3(SO8)3
_chemical_formula_sum   'Na3 Ti6 In6 P9 S9 O72'
_cell_volume   1508.04823796
_cell_formula_units_Z   3
loop_
 _symmetry_equiv_pos_site_id
 _symmetry_equiv_pos_as_xyz
  1  'x, y, z'
loop_
 _atom_site_type_symbol
 _atom_site_label
 _atom_site_symmetry_multiplicity
 _atom_site_fract_x
 _atom_site_fract_y
 _atom_site_fract_z
 _atom_site_occupancy
  Na  Na0  1  0.67922048  0.33435218  0.83466281  1
  Na  Na1  1  0.66288792  0.34118587  0.33251042  1
  Na  Na2  1  0.34670121  0.67651902  0.16820535  1
  Ti  Ti3  1  0.00963815  0.99151693  0.35676571  1
  Ti  Ti4  1  0.99211723  0.00173529  0.85733408  1
  Ti  Ti5  1  0.99276703  0.99037353  0.64999225  1
  Ti  Ti6  1  0.99753665  0.99862157  0.14572942  1
  Ti  Ti7  1  0.33170321  0.65512309  0.01982878  1
  Ti  Ti8  1  0.32328820  0.65797773  0.51324494  1
  In  In9  1  0.67261174  0.33511600  0.68697461  1
  In  In10  1  0.65438552  0.32871275  0.18594688  1
  In  In11  1  0.66550239  0.32333254  0.98643328  1
  In  In12  1  0.66453205  0.33557502  0.48379903  1
  In  In13  1  0.33616883  0.66769512  0.31031250  1
  In  In14  1  0.32875041  0.66860293  0.80743535  1
  P  P15  1  0.28240318  -0.00048477  0.24970398  1
  P  P16  1  0.72233097  0.71835292  0.25052686  1
  P  P17  1  0.99428823  0.71796986  0.75234203  1
  P  P18  1  0.71894163  0.00244219  0.75167180  1
  P  P19  1  0.66330925  0.02962604  0.08429834  1
  P  P20  1  0.36592069  0.33074476  0.08354755  1
  P  P21  1  0.04341611  0.37809615  0.91446352  1
  P  P22  1  0.32918043  0.37248345  0.41364259  1
  P  P23  1  0.04179438  0.66450311  0.41453380  1
  S  S24  1  0.99685698  0.27995520  0.25004467  1
  S  S25  1  0.28226963  0.27750821  0.75067759  1
  S  S26  1  0.97015226  0.33335226  0.58339182  1
  S  S27  1  0.36533176  0.03003224  0.58428869  1
  S  S28  1  0.66245175  0.63428735  0.58420668  1
  S  S29  1  0.96868445  0.63349208  0.08383603  1
  S  S30  1  0.62467388  0.66675904  0.91583446  1
  S  S31  1  0.32899587  0.95714783  0.91564822  1
  S  S32  1  0.62786205  0.95636924  0.41701650  1
  O  O33  1  0.18776687  0.01147722  0.30738726  1
  O  O34  1  0.82775304  0.81697427  0.30741314  1
  O  O35  1  0.98607523  0.18225442  0.30400703  1
  O  O36  1  0.19759698  0.17476391  0.80426087  1
  O  O37  1  0.97884718  0.81533608  0.80703052  1
  O  O38  1  0.83408571  0.02628825  0.80732874  1
  O  O39  1  0.81784899  0.99288218  0.69546408  1
  O  O40  1  0.18049998  0.18885804  0.69630223  1
  O  O41  1  0.00602888  0.82561893  0.69527977  1
  O  O42  1  0.81808333  0.82583881  0.19514972  1
  O  O43  1  0.00741296  0.19157472  0.19580102  1
  O  O44  1  0.17609667  0.99347050  0.19512708  1
  O  O45  1  0.89870699  0.37980932  0.63523538  1
  O  O46  1  0.48323717  0.10608002  0.63619252  1
  O  O47  1  0.62146536  0.51866350  0.63598959  1
  O  O48  1  0.89554293  0.51798129  0.13529947  1
  O  O49  1  0.61298796  0.10265054  0.13772613  1
  O  O50  1  0.48956531  0.39031433  0.13667343  1
  O  O51  1  0.43970296  0.29136521  0.02844207  1
  O  O52  1  0.85920411  0.56128384  0.03065106  1
  O  O53  1  0.71395803  0.14569402  0.02990272  1
  O  O54  1  0.43767411  0.14784992  0.53285680  1
  O  O55  1  0.71084925  0.56381175  0.53281633  1
  O  O56  1  0.85187148  0.28834647  0.53199458  1
  O  O57  1  0.53845477  0.69173314  0.96868597  1
  O  O58  1  0.16377083  0.47415281  0.96908257  1
  O  O59  1  0.30883678  0.84932496  0.96801219  1
  O  O60  1  0.53419339  0.84292606  0.46939769  1
  O  O61  1  0.30761446  0.47327514  0.46911782  1
  O  O62  1  0.16250300  0.69030161  0.47011081  1
  O  O63  1  0.11973125  0.63169316  0.36004979  1
  O  O64  1  0.52035632  0.88801395  0.36354369  1
  O  O65  1  0.37230313  0.48794815  0.35992395  1
  O  O66  1  0.12108135  0.48685502  0.85919674  1
  O  O67  1  0.36666417  0.88593634  0.86210696  1
  O  O68  1  0.51835117  0.63532834  0.86251375  1
  O  O69  1  0.03291096  0.83694845  0.40922749  1
  O  O70  1  0.79924941  0.96542195  0.41166461  1
  O  O71  1  0.15460307  0.19537115  0.40678633  1
  O  O72  1  0.03454062  0.19542740  0.90631312  1
  O  O73  1  0.16442346  0.96587694  0.90816754  1
  O  O74  1  0.79959924  0.83263108  0.90993211  1
  O  O75  1  0.99538521  0.18191851  0.59516432  1
  O  O76  1  0.18856914  0.00870671  0.59608891  1
  O  O77  1  0.81961592  0.81257946  0.59539420  1
  O  O78  1  0.99283600  0.81033220  0.09369449  1
  O  O79  1  0.82033514  0.00115139  0.09824730  1
  O  O80  1  0.18157154  0.17456113  0.09684401  1
  O  O81  1  0.70502237  0.17030779  0.74841869  1
  O  O82  1  0.45802777  0.29050859  0.74750671  1
  O  O83  1  0.82219711  0.53818333  0.74909976  1
  O  O84  1  0.71360086  0.53826231  0.24925428  1
  O  O85  1  0.83647272  0.29692370  0.24803707  1
  O  O86  1  0.46468269  0.16815210  0.25129085  1
  O  O87  1  0.65418691  0.51631185  0.92312750  1
  O  O88  1  0.85632715  0.34778685  0.92262202  1
  O  O89  1  0.48031406  0.14021372  0.92104757  1
  O  O90  1  0.65325371  0.13531562  0.42574725  1
  O  O91  1  0.48286205  0.33989601  0.42476097  1
  O  O92  1  0.85707830  0.50733131  0.42416191  1
  O  O93  1  0.33924684  0.49435663  0.07053530  1
  O  O94  1  0.14950404  0.65752861  0.07384168  1
  O  O95  1  0.49979967  0.84230540  0.07019424  1
  O  O96  1  0.34530027  0.85506291  0.57169817  1
  O  O97  1  0.51002554  0.65719459  0.57164471  1
  O  O98  1  0.14637181  0.49093077  0.57112129  1
  O  O99  1  0.29198733  0.82897546  0.24960829  1
  O  O100  1  0.53939013  0.70428965  0.25014024  1
  O  O101  1  0.15973680  0.45629486  0.24920380  1
  O  O102  1  0.29690846  0.45130564  0.75196901  1
  O  O103  1  0.16213741  0.70849172  0.75176680  1
  O  O104  1  0.54519664  0.83072430  0.75408647  1
