# generated using pymatgen
data_Na5Hf2Sc2SiP5O24
_symmetry_space_group_name_H-M   'P 1'
_cell_length_a   9.03041768
_cell_length_b   9.01122921
_cell_length_c   22.73549676
_cell_angle_alpha   89.95278687
_cell_angle_beta   90.02507425
_cell_angle_gamma   120.06763485
_symmetry_Int_Tables_number   1
_chemical_formula_structural   Na5Hf2Sc2SiP5O24
_chemical_formula_sum   'Na15 Hf6 Sc6 Si3 P15 O72'
_cell_volume   1601.14408964
_cell_formula_units_Z   3
loop_
 _symmetry_equiv_pos_site_id
 _symmetry_equiv_pos_as_xyz
  1  'x, y, z'
loop_
 _atom_site_type_symbol
 _atom_site_label
 _atom_site_symmetry_multiplicity
 _atom_site_fract_x
 _atom_site_fract_y
 _atom_site_fract_z
 _atom_site_occupancy
  Na  Na0  1  0.00512615  0.64154326  0.25304766  1
  Na  Na1  1  0.63060538  0.64296368  0.75255152  1
  Na  Na2  1  0.36876058  0.99563889  0.75377269  1
  Na  Na3  1  0.66338434  0.97297508  0.58606567  1
  Na  Na4  1  0.29663806  0.97204315  0.08327607  1
  Na  Na5  1  0.68068046  0.69834447  0.08139881  1
  Na  Na6  1  0.02459857  0.33058289  0.08541282  1
  Na  Na7  1  0.96594652  0.29981189  0.41556694  1
  Na  Na8  1  0.33738137  0.03478335  0.41846247  1
  Na  Na9  1  0.00551027  0.98396278  0.49998561  1
  Na  Na10  1  0.00079219  0.99252370  0.99619831  1
  Na  Na11  1  0.68286423  0.32886690  0.84116338  1
  Na  Na12  1  0.65233733  0.33630028  0.33589766  1
  Na  Na13  1  0.34393240  0.66681460  0.17443917  1
  Na  Na14  1  0.31066973  0.64925935  0.66953456  1
  Hf  Hf15  1  0.99620668  0.00321085  0.85485714  1
  Hf  Hf16  1  0.00406743  0.00192829  0.64635803  1
  Hf  Hf17  1  0.66907628  0.32935106  0.68510993  1
  Hf  Hf18  1  0.66691264  0.33036126  0.18684492  1
  Hf  Hf19  1  0.33068192  0.66698833  0.01487428  1
  Hf  Hf20  1  0.33276668  0.66533493  0.52033302  1
  Sc  Sc21  1  0.99426338  0.99578282  0.35024177  1
  Sc  Sc22  1  -0.00026439  0.99955267  0.15189772  1
  Sc  Sc23  1  0.67053087  0.34025312  0.97846054  1
  Sc  Sc24  1  0.66149323  0.33877091  0.48294806  1
  Sc  Sc25  1  0.34220189  0.66691555  0.31460352  1
  Sc  Sc26  1  0.33032986  0.66530146  0.81618925  1
  Si  Si27  1  0.70535162  0.00103039  0.74888882  1
  Si  Si28  1  0.36867010  0.03761687  0.58095612  1
  Si  Si29  1  0.96217659  0.62916013  0.08408785  1
  P  P30  1  0.29634754  0.00016885  0.25129970  1
  P  P31  1  0.70345444  0.70344619  0.24770416  1
  P  P32  1  0.99953376  0.29732417  0.25027009  1
  P  P33  1  0.29109675  0.29132687  0.75014830  1
  P  P34  1  0.99831874  0.70991648  0.75098115  1
  P  P35  1  0.95995241  0.33399430  0.58069660  1
  P  P36  1  0.66667667  0.62772867  0.58483331  1
  P  P37  1  0.66610101  0.04129856  0.08201287  1
  P  P38  1  0.37629190  0.33441599  0.08257151  1
  P  P39  1  0.62940901  0.66630990  0.91498793  1
  P  P40  1  0.03797609  0.37056778  0.91677494  1
  P  P41  1  0.33411228  0.96587475  0.91471082  1
  P  P42  1  0.62899991  0.96102300  0.41769718  1
  P  P43  1  0.33295424  0.37229163  0.41543757  1
  P  P44  1  0.04110192  0.66618627  0.41421993  1
  O  O45  1  0.21040349  0.02049192  0.30698359  1
  O  O46  1  0.82434110  0.79374817  0.30003308  1
  O  O47  1  0.98164819  0.19162624  0.30584101  1
  O  O48  1  0.20909698  0.17432405  0.80420718  1
  O  O49  1  0.97320800  0.79734402  0.80539749  1
  O  O50  1  0.82791397  0.02084075  0.80485025  1
  O  O51  1  0.79242850  0.97439406  0.68947176  1
  O  O52  1  0.18317601  0.20202986  0.69516316  1
  O  O53  1  0.02646645  0.82514441  0.69650781  1
  O  O54  1  0.78412186  0.80116330  0.18983915  1
  O  O55  1  0.01420074  0.21158020  0.19363505  1
  O  O56  1  0.18643325  0.97772978  0.19568662  1
  O  O57  1  0.86974298  0.35894374  0.63490975  1
  O  O58  1  0.49264658  0.13283105  0.63879135  1
  O  O59  1  0.64744450  0.52702683  0.64228440  1
  O  O60  1  0.87764476  0.50850032  0.14356881  1
  O  O61  1  0.62974238  0.12153889  0.13710424  1
  O  O62  1  0.49134256  0.36333584  0.13744573  1
  O  O63  1  0.45253475  0.29496615  0.02914213  1
  O  O64  1  0.83133109  0.53545649  0.03025695  1
  O  O65  1  0.69503501  0.15436860  0.02868889  1
  O  O66  1  0.45905284  0.14579632  0.52153737  1
  O  O67  1  0.69233237  0.54097101  0.53133923  1
  O  O68  1  0.85380824  0.30586655  0.52463234  1
  O  O69  1  0.53838103  0.68363517  0.97143494  1
  O  O70  1  0.14270374  0.45726520  0.97457758  1
  O  O71  1  0.31525838  0.85278277  0.97081023  1
  O  O72  1  0.54387923  0.85710811  0.47496205  1
  O  O73  1  0.31303306  0.46363232  0.47031477  1
  O  O74  1  0.16121592  0.68814969  0.46738942  1
  O  O75  1  0.12198181  0.64211736  0.35766731  1
  O  O76  1  0.51106706  0.86890872  0.36517165  1
  O  O77  1  0.34896147  0.47813023  0.36055745  1
  O  O78  1  0.13393407  0.48147378  0.86389100  1
  O  O79  1  0.34824334  0.87559631  0.85922249  1
  O  O80  1  0.52641804  0.65533418  0.85964006  1
  O  O81  1  0.03266434  0.83367498  0.41230836  1
  O  O82  1  0.81048074  0.98432724  0.41263505  1
  O  O83  1  0.16714399  0.19198313  0.41294050  1
  O  O84  1  0.02828710  0.19334079  0.91392333  1
  O  O85  1  0.16801432  0.97652237  0.91314613  1
  O  O86  1  0.80937123  0.83123349  0.91360397  1
  O  O87  1  0.97028186  0.16859047  0.58917385  1
  O  O88  1  0.17814289  0.01245256  0.58734434  1
  O  O89  1  0.82137393  0.81364909  0.58846095  1
  O  O90  1  0.99124805  0.82391867  0.08935497  1
  O  O91  1  0.82518995  0.02105058  0.09011180  1
  O  O92  1  0.19205570  0.18282807  0.09125576  1
  O  O93  1  0.68102243  0.17068957  0.74627516  1
  O  O94  1  0.47254343  0.31041448  0.74325816  1
  O  O95  1  0.83063250  0.53579281  0.74398863  1
  O  O96  1  0.69126497  0.52348538  0.24435962  1
  O  O97  1  0.83500734  0.31568481  0.24698419  1
  O  O98  1  0.47649138  0.16067065  0.24519059  1
  O  O99  1  0.64574785  0.50545826  0.91900823  1
  O  O100  1  0.85937710  0.34884665  0.92113999  1
  O  O101  1  0.49361630  0.14216160  0.92063329  1
  O  O102  1  0.64781337  0.14271890  0.42043012  1
  O  O103  1  0.48979341  0.34642005  0.41915218  1
  O  O104  1  0.86507743  0.50282241  0.42149120  1
  O  O105  1  0.36655975  0.50276148  0.07659745  1
  O  O106  1  0.15363540  0.64623919  0.07727633  1
  O  O107  1  0.50508800  0.85777028  0.07631782  1
  O  O108  1  0.36080933  0.84998438  0.57832961  1
  O  O109  1  0.50521273  0.64699483  0.57860121  1
  O  O110  1  0.14155668  0.49091785  0.57710809  1
  O  O111  1  0.30897697  0.83481606  0.25451752  1
  O  O112  1  0.52466827  0.68165862  0.25403281  1
  O  O113  1  0.15422537  0.48274404  0.25311714  1
  O  O114  1  0.31597162  0.47269792  0.75491476  1
  O  O115  1  0.15808306  0.69116417  0.75535142  1
  O  O116  1  0.51341248  0.83028148  0.75360485  1
