# generated using pymatgen
data_Na4Mg2Si(SO6)2
_symmetry_space_group_name_H-M   'P 1'
_cell_length_a   9.08731958
_cell_length_b   9.09486051
_cell_length_c   22.04053777
_cell_angle_alpha   89.95903349
_cell_angle_beta   90.00000000
_cell_angle_gamma   119.97257600
_symmetry_Int_Tables_number   1
_chemical_formula_structural   Na4Mg2Si(SO6)2
_chemical_formula_sum   'Na24 Mg12 Si6 S12 O72'
_cell_volume   1577.99078259
_cell_formula_units_Z   6
loop_
 _symmetry_equiv_pos_site_id
 _symmetry_equiv_pos_as_xyz
  1  'x, y, z'
loop_
 _atom_site_type_symbol
 _atom_site_label
 _atom_site_symmetry_multiplicity
 _atom_site_fract_x
 _atom_site_fract_y
 _atom_site_fract_z
 _atom_site_occupancy
  Na  Na0  1  0.61653852  0.99717199  0.25747018  1
  Na  Na1  1  0.36026991  0.34407069  0.25273848  1
  Na  Na2  1  0.01085917  0.64961771  0.23828076  1
  Na  Na3  1  0.63875855  0.64961771  0.73828076  1
  Na  Na4  1  0.98380078  0.34407069  0.75273848  1
  Na  Na5  1  0.38063347  0.99717199  0.75747018  1
  Na  Na6  1  0.31986150  0.34594128  0.58660043  1
  Na  Na7  1  0.01385331  0.69255772  0.57993705  1
  Na  Na8  1  0.66732056  0.94834287  0.58363406  1
  Na  Na9  1  0.28102331  0.94834287  0.08363406  1
  Na  Na10  1  0.67870541  0.69255772  0.07993705  1
  Na  Na11  1  0.02608078  0.34594128  0.08660043  1
  Na  Na12  1  0.98491021  0.68058346  0.92783061  1
  Na  Na13  1  0.68128299  0.02889332  0.90585150  1
  Na  Na14  1  0.33309764  0.28741182  0.91650443  1
  Na  Na15  1  0.95431318  0.28741182  0.41650443  1
  Na  Na16  1  0.34760933  0.02889332  0.40585150  1
  Na  Na17  1  0.69567225  0.68058346  0.42783061  1
  Na  Na18  1  0.97295926  0.98400183  0.49946817  1
  Na  Na19  1  0.01104257  0.98400183  0.99946817  1
  Na  Na20  1  0.65634157  0.30772676  0.83345939  1
  Na  Na21  1  0.65138619  0.30772676  0.33345939  1
  Na  Na22  1  0.31742830  0.67832423  0.16689288  1
  Na  Na23  1  0.36089493  0.67832423  0.66689288  1
  Mg  Mg24  1  0.00433541  0.00082037  0.34907437  1
  Mg  Mg25  1  0.99648496  0.00082037  0.84907437  1
  Mg  Mg26  1  0.98204209  0.98583829  0.65017089  1
  Mg  Mg27  1  0.00379620  0.98583829  0.15017089  1
  Mg  Mg28  1  0.66443189  0.33057363  0.68286539  1
  Mg  Mg29  1  0.66614274  0.33057363  0.18286539  1
  Mg  Mg30  1  0.66553925  0.33254764  0.98408923  1
  Mg  Mg31  1  0.66700939  0.33254764  0.48408923  1
  Mg  Mg32  1  0.31931894  0.67625139  0.01596316  1
  Mg  Mg33  1  0.35693145  0.67625139  0.51596316  1
  Mg  Mg34  1  0.34210963  0.68897133  0.31799202  1
  Mg  Mg35  1  0.34686070  0.68897133  0.81799202  1
  Si  Si36  1  0.30085875  0.00201799  0.25013293  1
  Si  Si37  1  0.70115923  0.00201799  0.75013293  1
  Si  Si38  1  0.66675597  0.62710897  0.58331698  1
  Si  Si39  1  0.96035400  0.62710897  0.08331698  1
  Si  Si40  1  0.33266970  0.97240923  0.91687920  1
  Si  Si41  1  0.63973853  0.97240923  0.41687920  1
  S  S42  1  0.70249323  0.70295247  0.25037670  1
  S  S43  1  0.00103821  0.29351886  0.24981986  1
  S  S44  1  0.29248065  0.29351886  0.74981986  1
  S  S45  1  0.00045924  0.70295247  0.75037670  1
  S  S46  1  0.96646003  0.33658772  0.58307690  1
  S  S47  1  0.36761107  0.03739980  0.58356774  1
  S  S48  1  0.66978974  0.03739980  0.08356774  1
  S  S49  1  0.37012868  0.33658772  0.08307690  1
  S  S50  1  0.62382869  0.66387563  0.91715446  1
  S  S51  1  0.04252617  0.37334594  0.91607668  1
  S  S52  1  0.33081878  0.37334594  0.41607668  1
  S  S53  1  0.04004594  0.66387563  0.41715446  1
  O  O54  1  0.21563510  0.03464201  0.31074460  1
  O  O55  1  0.80725993  0.78593869  0.30478306  1
  O  O56  1  0.97628030  0.18756746  0.30437373  1
  O  O57  1  0.21128717  0.18756746  0.80437373  1
  O  O58  1  0.97867876  0.78593869  0.80478306  1
  O  O59  1  0.81900691  0.03464201  0.81074460  1
  O  O60  1  0.79131146  0.97649816  0.69040842  1
  O  O61  1  0.19151316  0.21109322  0.69440612  1
  O  O62  1  0.03333622  0.81109412  0.69550189  1
  O  O63  1  0.77775790  0.81109412  0.19550189  1
  O  O64  1  0.01958006  0.21109322  0.19440612  1
  O  O65  1  0.18518669  0.97649816  0.19040842  1
  O  O66  1  0.88552802  0.35811692  0.63827920  1
  O  O67  1  0.47647665  0.11367936  0.63772555  1
  O  O68  1  0.63986226  0.51032868  0.64342854  1
  O  O69  1  0.87046742  0.51032868  0.14342854  1
  O  O70  1  0.63720371  0.11367936  0.13772555  1
  O  O71  1  0.47258990  0.35811692  0.13827920  1
  O  O72  1  0.44739723  0.30467776  0.02898569  1
  O  O73  1  0.84455971  0.53766797  0.02298879  1
  O  O74  1  0.69221904  0.13992656  0.02846223  1
  O  O75  1  0.44770852  0.13992656  0.52846223  1
  O  O76  1  0.69310925  0.53766797  0.52298879  1
  O  O77  1  0.85728153  0.30467776  0.52898569  1
  O  O78  1  0.54094306  0.68324566  0.97234597  1
  O  O79  1  0.14833716  0.45341191  0.97101246  1
  O  O80  1  0.30036465  0.85484732  0.97680591  1
  O  O81  1  0.55448167  0.85484732  0.47680591  1
  O  O82  1  0.30507376  0.45341191  0.47101246  1
  O  O83  1  0.14230160  0.68324566  0.47234597  1
  O  O84  1  0.12016411  0.63769244  0.36249758  1
  O  O85  1  0.52142611  0.88729787  0.35707215  1
  O  O86  1  0.34898837  0.47555928  0.36104092  1
  O  O87  1  0.12656992  0.47555928  0.86104092  1
  O  O88  1  0.36587076  0.88729787  0.85707215  1
  O  O89  1  0.51752733  0.63769244  0.86249758  1
  O  O90  1  0.02439140  0.81946530  0.41229627  1
  O  O91  1  0.83085396  0.99086791  0.41073555  1
  O  O92  1  0.17857838  0.20037808  0.41281863  1
  O  O93  1  0.02179970  0.20037808  0.91281863  1
  O  O94  1  0.16001395  0.99086791  0.91073555  1
  O  O95  1  0.79507391  0.81946530  0.91229627  1
  O  O96  1  0.99769910  0.19075627  0.58807318  1
  O  O97  1  0.19961639  0.02857907  0.59068687  1
  O  O98  1  0.84112915  0.81825271  0.58559692  1
  O  O99  1  0.97712356  0.81825271  0.08559692  1
  O  O100  1  0.82896268  0.02857907  0.09068687  1
  O  O101  1  0.19305717  0.19075627  0.08807318  1
  O  O102  1  0.67850686  0.17284758  0.74482697  1
  O  O103  1  0.46611400  0.31574368  0.74662309  1
  O  O104  1  0.84383094  0.53391261  0.74475891  1
  O  O105  1  0.69008267  0.53391261  0.24475891  1
  O  O106  1  0.84963069  0.31574368  0.24662309  1
  O  O107  1  0.49434173  0.17284758  0.24482697  1
  O  O108  1  0.64538268  0.51232104  0.92076362  1
  O  O109  1  0.87146514  0.35747658  0.92058239  1
  O  O110  1  0.50576169  0.16329733  0.92243949  1
  O  O111  1  0.65753664  0.16329733  0.42243949  1
  O  O112  1  0.48601244  0.35747658  0.42058239  1
  O  O113  1  0.86693937  0.51232104  0.42076362  1
  O  O114  1  0.36179826  0.49589725  0.07618779  1
  O  O115  1  0.15187139  0.64446591  0.08127510  1
  O  O116  1  0.52375706  0.86024763  0.07815867  1
  O  O117  1  0.33648958  0.86024763  0.57815867  1
  O  O118  1  0.49259352  0.64446591  0.58127510  1
  O  O119  1  0.13409799  0.49589725  0.57618779  1
  O  O120  1  0.31377299  0.82604665  0.25265559  1
  O  O121  1  0.52608999  0.67388589  0.25593533  1
  O  O122  1  0.15826294  0.46341016  0.25549835  1
  O  O123  1  0.30514621  0.46341016  0.75549835  1
  O  O124  1  0.14779490  0.67388589  0.75593533  1
  O  O125  1  0.51227266  0.82604665  0.75265559  1
