# generated using pymatgen
data_ClF
_symmetry_space_group_name_H-M   'P 1'
_cell_length_a   3.79272931
_cell_length_b   6.24615659
_cell_length_c   6.49238265
_cell_angle_alpha   104.68761669
_cell_angle_beta   90.00000000
_cell_angle_gamma   90.00000000
_symmetry_Int_Tables_number   1
_chemical_formula_structural   ClF
_chemical_formula_sum   'Cl4 F4'
_cell_volume   148.77849019
_cell_formula_units_Z   4
loop_
 _symmetry_equiv_pos_site_id
 _symmetry_equiv_pos_as_xyz
  1  'x, y, z'
loop_
 _atom_site_type_symbol
 _atom_site_label
 _atom_site_symmetry_multiplicity
 _atom_site_fract_x
 _atom_site_fract_y
 _atom_site_fract_z
 _atom_site_occupancy
  Cl  Cl0  1  0.48989617  0.16249374  0.29268154  1
  Cl  Cl1  1  0.98989617  0.83750626  0.20731846  1
  Cl  Cl2  1  0.51010383  0.83750626  0.70731846  1
  Cl  Cl3  1  0.01010383  0.16249374  0.79268154  1
  F  F4  1  0.22001483  0.37907052  0.35081091  1
  F  F5  1  0.72001483  0.62092948  0.14918909  1
  F  F6  1  0.77998517  0.62092948  0.64918909  1
  F  F7  1  0.27998517  0.37907052  0.85081091  1
