# generated using pymatgen
data_Ba2LuMgSbO6
_symmetry_space_group_name_H-M   'P 1'
_cell_length_a   6.55539637
_cell_length_b   6.21998843
_cell_length_c   6.55539637
_cell_angle_alpha   61.67856806
_cell_angle_beta   55.19093885
_cell_angle_gamma   61.67856806
_symmetry_Int_Tables_number   1
_chemical_formula_structural   Ba2LuMgSbO6
_chemical_formula_sum   'Ba2 Lu1 Mg1 Sb1 O6'
_cell_volume   185.37021543
_cell_formula_units_Z   1
loop_
 _symmetry_equiv_pos_site_id
 _symmetry_equiv_pos_as_xyz
  1  'x, y, z'
loop_
 _atom_site_type_symbol
 _atom_site_label
 _atom_site_symmetry_multiplicity
 _atom_site_fract_x
 _atom_site_fract_y
 _atom_site_fract_z
 _atom_site_occupancy
  Ba  Ba0  1  0.30672400  0.19327600  0.30672400  1
  Ba  Ba1  1  0.69327600  0.80672400  0.69327600  1
  Lu  Lu2  1  0.50000000  0.50000000  0.50000000  1
  Mg  Mg3  1  0.00000000  0.50000000  0.00000000  1
  Sb  Sb4  1  0.00000000  0.00000000  0.00000000  1
  O  O5  1  0.76212800  0.26949400  0.23787200  1
  O  O6  1  0.73898300  0.26101700  0.73898300  1
  O  O7  1  0.76212800  0.73050600  0.23787200  1
  O  O8  1  0.23787200  0.73050600  0.76212800  1
  O  O9  1  0.26101700  0.73898300  0.26101700  1
  O  O10  1  0.23787200  0.26949400  0.76212800  1
