# generated using pymatgen
data_Zn3(AsO3)2
_symmetry_space_group_name_H-M   'P 1'
_cell_length_a   6.13676814
_cell_length_b   7.83003351
_cell_length_c   14.38836457
_cell_angle_alpha   90.00000000
_cell_angle_beta   90.00000000
_cell_angle_gamma   90.00000000
_symmetry_Int_Tables_number   1
_chemical_formula_structural   Zn3(AsO3)2
_chemical_formula_sum   'Zn12 As8 O24'
_cell_volume   691.37674737
_cell_formula_units_Z   4
loop_
 _symmetry_equiv_pos_site_id
 _symmetry_equiv_pos_as_xyz
  1  'x, y, z'
loop_
 _atom_site_type_symbol
 _atom_site_label
 _atom_site_symmetry_multiplicity
 _atom_site_fract_x
 _atom_site_fract_y
 _atom_site_fract_z
 _atom_site_occupancy
  Zn  Zn0  1  0.00000000  0.31460626  0.50000000  1
  Zn  Zn1  1  0.50000000  0.68539374  0.00000000  1
  Zn  Zn2  1  0.00000000  0.68539374  0.50000000  1
  Zn  Zn3  1  0.50000000  0.31460626  0.00000000  1
  Zn  Zn4  1  0.43637771  0.78518198  0.22196345  1
  Zn  Zn5  1  0.93637771  0.21481802  0.27803655  1
  Zn  Zn6  1  0.56362229  0.78518198  0.77803655  1
  Zn  Zn7  1  0.06362229  0.21481802  0.72196345  1
  Zn  Zn8  1  0.93637771  0.78518198  0.27803655  1
  Zn  Zn9  1  0.43637771  0.21481802  0.22196345  1
  Zn  Zn10  1  0.06362229  0.78518198  0.72196345  1
  Zn  Zn11  1  0.56362229  0.21481802  0.77803655  1
  As  As12  1  0.08835754  0.50000000  0.12570988  1
  As  As13  1  0.58835754  0.50000000  0.37429012  1
  As  As14  1  0.91164246  0.50000000  0.87429012  1
  As  As15  1  0.41164246  0.50000000  0.62570988  1
  As  As16  1  0.77582239  -0.00000000  0.09738276  1
  As  As17  1  0.27582239  -0.00000000  0.40261724  1
  As  As18  1  0.22417761  -0.00000000  0.90261724  1
  As  As19  1  0.72417761  -0.00000000  0.59738276  1
  O  O20  1  0.41155543  0.17376981  0.89601833  1
  O  O21  1  0.91155543  0.82623019  0.60398167  1
  O  O22  1  0.58844457  0.17376981  0.10398167  1
  O  O23  1  0.08844457  0.82623019  0.39601833  1
  O  O24  1  0.58844457  0.82623019  0.10398167  1
  O  O25  1  0.08844457  0.17376981  0.39601833  1
  O  O26  1  0.41155543  0.82623019  0.89601833  1
  O  O27  1  0.91155543  0.17376981  0.60398167  1
  O  O28  1  0.34455375  0.32505567  0.69970277  1
  O  O29  1  0.84455375  0.67494433  0.80029723  1
  O  O30  1  0.65544625  0.32505567  0.30029723  1
  O  O31  1  0.15544625  0.67494433  0.19970277  1
  O  O32  1  0.65544625  0.67494433  0.30029723  1
  O  O33  1  0.15544625  0.32505567  0.19970277  1
  O  O34  1  0.34455375  0.67494433  0.69970277  1
  O  O35  1  0.84455375  0.32505567  0.80029723  1
  O  O36  1  0.83854978  -0.00000000  0.21821717  1
  O  O37  1  0.33854978  -0.00000000  0.28178283  1
  O  O38  1  0.16145022  -0.00000000  0.78178283  1
  O  O39  1  0.66145022  -0.00000000  0.71821717  1
  O  O40  1  0.66714008  0.50000000  0.93960398  1
  O  O41  1  0.16714008  0.50000000  0.56039602  1
  O  O42  1  0.33285992  0.50000000  0.06039602  1
  O  O43  1  0.83285992  0.50000000  0.43960398  1
