# generated using pymatgen
data_Na4Hf3Zn(PO4)6
_symmetry_space_group_name_H-M   'P 1'
_cell_length_a   8.92497706
_cell_length_b   8.94532171
_cell_length_c   22.87877017
_cell_angle_alpha   90.01649670
_cell_angle_beta   89.97608856
_cell_angle_gamma   120.01314561
_symmetry_Int_Tables_number   1
_chemical_formula_structural   Na4Hf3Zn(PO4)6
_chemical_formula_sum   'Na12 Hf9 Zn3 P18 O72'
_cell_volume   1581.64421255
_cell_formula_units_Z   3
loop_
 _symmetry_equiv_pos_site_id
 _symmetry_equiv_pos_as_xyz
  1  'x, y, z'
loop_
 _atom_site_type_symbol
 _atom_site_label
 _atom_site_symmetry_multiplicity
 _atom_site_fract_x
 _atom_site_fract_y
 _atom_site_fract_z
 _atom_site_occupancy
  Na  Na0  1  0.64161824  0.01254326  0.24643797  1
  Na  Na1  1  0.37067396  0.35797192  0.24635107  1
  Na  Na2  1  0.98734593  0.62839078  0.24612853  1
  Na  Na3  1  0.98757800  0.36219649  0.74443557  1
  Na  Na4  1  0.37346086  0.00968315  0.74454133  1
  Na  Na5  1  0.70715570  0.67631266  0.41485393  1
  Na  Na6  1  0.00959138  0.01007658  0.49505422  1
  Na  Na7  1  0.99998202  0.00009070  0.00123238  1
  Na  Na8  1  0.66597127  0.34276569  0.83089692  1
  Na  Na9  1  0.66583461  0.32453501  0.33184123  1
  Na  Na10  1  0.33320115  0.66664994  0.16215496  1
  Na  Na11  1  0.34265105  0.66580896  0.66223625  1
  Hf  Hf12  1  0.99943730  0.99830829  0.85428419  1
  Hf  Hf13  1  0.99718834  0.99714018  0.64371846  1
  Hf  Hf14  1  0.00046829  0.00028028  0.14549125  1
  Hf  Hf15  1  0.66691472  0.33280135  0.98192245  1
  Hf  Hf16  1  0.66602581  0.32779422  0.48266954  1
  Hf  Hf17  1  0.33315482  0.66652626  0.02046379  1
  Hf  Hf18  1  0.33123127  0.66591552  0.52030762  1
  Hf  Hf19  1  0.33124552  0.66669593  0.31704803  1
  Hf  Hf20  1  0.33804093  0.66585746  0.81541866  1
  Zn  Zn21  1  0.00777380  0.00875548  0.35152067  1
  Zn  Zn22  1  0.66568296  0.34079607  0.67911057  1
  Zn  Zn23  1  0.66666405  0.33289807  0.17723719  1
  P  P24  1  0.29169679  0.00174231  0.25127487  1
  P  P25  1  0.70912685  0.70755366  0.25224235  1
  P  P26  1  0.99780277  0.28944322  0.25135544  1
  P  P27  1  0.29192569  0.29007982  0.74980134  1
  P  P28  1  0.99642343  0.70670616  0.75028404  1
  P  P29  1  0.70930336  0.99969708  0.74995459  1
  P  P30  1  0.95843149  0.33425412  0.58612981  1
  P  P31  1  0.37637355  0.04110906  0.58608978  1
  P  P32  1  0.66484682  0.62220008  0.58366427  1
  P  P33  1  0.95801810  0.62434146  0.08512500  1
  P  P34  1  0.66581741  0.04151651  0.08510371  1
  P  P35  1  0.37588384  0.33432762  0.08509044  1
  P  P36  1  0.62553691  0.66548143  0.91779241  1
  P  P37  1  0.04111075  0.37518606  0.91642089  1
  P  P38  1  0.33486177  0.95890359  0.91656094  1
  P  P39  1  0.62810817  0.96079027  0.41670970  1
  P  P40  1  0.32968646  0.36968999  0.41719918  1
  P  P41  1  0.03883247  0.66855631  0.41721911  1
  O  O42  1  0.21104667  0.03265648  0.30481549  1
  O  O43  1  0.81545235  0.78442092  0.30771326  1
  O  O44  1  0.96515552  0.17700729  0.30478634  1
  O  O45  1  0.19988652  0.17579204  0.80421347  1
  O  O46  1  0.97862825  0.79970408  0.80479551  1
  O  O47  1  0.82392047  0.02342925  0.80401652  1
  O  O48  1  0.79512440  0.97207566  0.69584008  1
  O  O49  1  0.17223696  0.20529379  0.69635402  1
  O  O50  1  0.03240947  0.82619266  0.69682853  1
  O  O51  1  0.79549864  0.82785005  0.19819402  1
  O  O52  1  0.03407174  0.20751438  0.19646406  1
  O  O53  1  0.17387322  0.96632193  0.19634434  1
  O  O54  1  0.88661761  0.36333245  0.64282737  1
  O  O55  1  0.47813173  0.11233467  0.64268112  1
  O  O56  1  0.63341163  0.51499266  0.63800577  1
  O  O57  1  0.88792828  0.52395746  0.14211531  1
  O  O58  1  0.63551872  0.11173554  0.14203480  1
  O  O59  1  0.47640582  0.36455059  0.14205458  1
  O  O60  1  0.46586625  0.30903168  0.03103691  1
  O  O61  1  0.84301855  0.53422901  0.03107566  1
  O  O62  1  0.69134874  0.15668683  0.03107591  1
  O  O63  1  0.46550490  0.15682438  0.53171619  1
  O  O64  1  0.69211434  0.54065374  0.52703108  1
  O  O65  1  0.84298294  0.30865286  0.53178083  1
  O  O66  1  0.53736121  0.69194721  0.97111849  1
  O  O67  1  0.15702305  0.46524752  0.96944108  1
  O  O68  1  0.30892648  0.84323965  0.96957387  1
  O  O69  1  0.53109908  0.84156260  0.46885524  1
  O  O70  1  0.31402513  0.46951147  0.46974953  1
  O  O71  1  0.15466275  0.68647653  0.46950260  1
  O  O72  1  0.12236462  0.64021712  0.36065298  1
  O  O73  1  0.51569282  0.87642115  0.36018671  1
  O  O74  1  0.36395504  0.48708939  0.36112476  1
  O  O75  1  0.12526785  0.48402953  0.86013138  1
  O  O76  1  0.35930342  0.87462268  0.86027565  1
  O  O77  1  0.51284158  0.64032558  0.86261304  1
  O  O78  1  0.01399926  0.82467853  0.41291899  1
  O  O79  1  0.80288926  0.97010495  0.41216770  1
  O  O80  1  0.17139753  0.19309023  0.41255411  1
  O  O81  1  0.02296040  0.19448478  0.90978749  1
  O  O82  1  0.17185520  0.97705774  0.91015825  1
  O  O83  1  0.80565213  0.82829087  0.91038975  1
  O  O84  1  0.97708525  0.17001947  0.58951316  1
  O  O85  1  0.19343110  0.02307191  0.58987844  1
  O  O86  1  0.82963931  0.80542325  0.58901011  1
  O  O87  1  0.97666128  0.80730335  0.08921312  1
  O  O88  1  0.83034556  0.02263816  0.08920689  1
  O  O89  1  0.19257028  0.16968321  0.08911983  1
  O  O90  1  0.68926408  0.16050487  0.74677209  1
  O  O91  1  0.46916136  0.30429528  0.74578663  1
  O  O92  1  0.84258326  0.52354832  0.74640311  1
  O  O93  1  0.68243346  0.52431877  0.24432250  1
  O  O94  1  0.84176870  0.31795522  0.24394951  1
  O  O95  1  0.47618326  0.15792802  0.24400683  1
  O  O96  1  0.64358823  0.50337209  0.92359488  1
  O  O97  1  0.86049890  0.35721666  0.92311173  1
  O  O98  1  0.49698350  0.13952412  0.92315992  1
  O  O99  1  0.64124049  0.13959490  0.42301311  1
  O  O100  1  0.50329146  0.36663249  0.42322653  1
  O  O101  1  0.85666821  0.50229669  0.42310862  1
  O  O102  1  0.35236352  0.49382712  0.07526052  1
  O  O103  1  0.14131912  0.64762036  0.07526732  1
  O  O104  1  0.50576729  0.85871627  0.07522355  1
  O  O105  1  0.35286563  0.85884448  0.57558874  1
  O  O106  1  0.50621069  0.64826027  0.57487485  1
  O  O107  1  0.14107419  0.49367450  0.57600675  1
  O  O108  1  0.30696515  0.83260502  0.25613732  1
  O  O109  1  0.52434152  0.69217473  0.25619036  1
  O  O110  1  0.16712876  0.47387496  0.25653423  1
  O  O111  1  0.30085274  0.46900801  0.75709464  1
  O  O112  1  0.16730466  0.69479676  0.75711272  1
  O  O113  1  0.52423288  0.83722676  0.75660152  1
