# generated using pymatgen
data_Na21Nb4Zn8Si3(P5O24)3
_symmetry_space_group_name_H-M   'P 1'
_cell_length_a   9.08205309
_cell_length_b   9.06740190
_cell_length_c   22.08457409
_cell_angle_alpha   89.79327399
_cell_angle_beta   90.05727550
_cell_angle_gamma   119.82021581
_symmetry_Int_Tables_number   1
_chemical_formula_structural   Na21Nb4Zn8Si3(P5O24)3
_chemical_formula_sum   'Na21 Nb4 Zn8 Si3 P15 O72'
_cell_volume   1577.85642938
_cell_formula_units_Z   1
loop_
 _symmetry_equiv_pos_site_id
 _symmetry_equiv_pos_as_xyz
  1  'x, y, z'
loop_
 _atom_site_type_symbol
 _atom_site_label
 _atom_site_symmetry_multiplicity
 _atom_site_fract_x
 _atom_site_fract_y
 _atom_site_fract_z
 _atom_site_occupancy
  Na  Na0  1  0.64957383  0.01485021  0.24397731  1
  Na  Na1  1  0.98707589  0.63245126  0.24388105  1
  Na  Na2  1  0.64695781  0.63412065  0.74642939  1
  Na  Na3  1  0.98528939  0.35060766  0.74726553  1
  Na  Na4  1  0.36707724  0.01358153  0.74687820  1
  Na  Na5  1  0.29477908  0.33500709  0.58512430  1
  Na  Na6  1  0.04351816  0.70768476  0.58257517  1
  Na  Na7  1  0.66322111  0.95585002  0.58297572  1
  Na  Na8  1  0.29339724  0.95960567  0.08467980  1
  Na  Na9  1  0.66553424  0.70401165  0.08441765  1
  Na  Na10  1  0.04343132  0.33650891  0.08230083  1
  Na  Na11  1  0.97429933  0.67906227  0.91501283  1
  Na  Na12  1  0.97468427  0.29002906  0.41003129  1
  Na  Na13  1  0.31368538  0.02161605  0.41207314  1
  Na  Na14  1  0.71332678  0.69050133  0.41260710  1
  Na  Na15  1  0.99558574  0.99472580  0.49711559  1
  Na  Na16  1  0.00187794  0.01612763  0.99484835  1
  Na  Na17  1  0.65839811  0.32282386  0.83106182  1
  Na  Na18  1  0.65626218  0.33442964  0.32232080  1
  Na  Na19  1  0.33346881  0.65462363  0.15944658  1
  Na  Na20  1  0.33493309  0.66820751  0.66073527  1
  Nb  Nb21  1  0.66568616  0.32930255  0.97900609  1
  Nb  Nb22  1  0.66967740  0.33295880  0.47969735  1
  Nb  Nb23  1  0.33162023  0.66667539  0.31388844  1
  Nb  Nb24  1  0.33112532  0.66392289  0.81844690  1
  Zn  Zn25  1  0.99569977  0.99537080  0.34644757  1
  Zn  Zn26  1  0.00047691  0.01266519  0.85105470  1
  Zn  Zn27  1  0.99931570  0.00101602  0.65520659  1
  Zn  Zn28  1  0.00257292  0.00323315  0.15334166  1
  Zn  Zn29  1  0.66657902  0.33266005  0.68119542  1
  Zn  Zn30  1  0.66036719  0.33411416  0.18148576  1
  Zn  Zn31  1  0.33186633  0.66053142  0.01262621  1
  Zn  Zn32  1  0.33612081  0.67249465  0.51166404  1
  Si  Si33  1  0.03632768  0.36201484  0.92178478  1
  Si  Si34  1  0.62995988  0.95985021  0.41960465  1
  Si  Si35  1  0.04035585  0.67055640  0.41993459  1
  P  P36  1  0.29736225  0.00314796  0.25102199  1
  P  P37  1  0.70239542  0.70128284  0.25002864  1
  P  P38  1  0.00165104  0.29600478  0.25014470  1
  P  P39  1  0.29605155  0.29598433  0.74948569  1
  P  P40  1  0.00211420  0.70616310  0.75113662  1
  P  P41  1  0.70255685  0.99795571  0.74897147  1
  P  P42  1  0.96323210  0.33372614  0.58586287  1
  P  P43  1  0.37188527  0.03888439  0.58583459  1
  P  P44  1  0.66486157  0.62663453  0.58536199  1
  P  P45  1  0.96045846  0.62732071  0.08503298  1
  P  P46  1  0.66493761  0.03743769  0.08558697  1
  P  P47  1  0.37503705  0.33477115  0.08445315  1
  P  P48  1  0.63041401  0.66779670  0.91993289  1
  P  P49  1  0.33255433  0.96089415  0.91935441  1
  P  P50  1  0.33387384  0.37478961  0.41978511  1
  O  O51  1  0.21593833  0.02077541  0.30948151  1
  O  O52  1  0.80711850  0.78087507  0.30799911  1
  O  O53  1  0.97598437  0.18982716  0.30781330  1
  O  O54  1  0.21119862  0.17730453  0.80247587  1
  O  O55  1  0.97519042  0.78715528  0.80705186  1
  O  O56  1  0.81831799  0.02714728  0.80236094  1
  O  O57  1  0.76743061  0.95614805  0.68966657  1
  O  O58  1  0.18872601  0.23519367  0.69032049  1
  O  O59  1  0.04146368  0.81553294  0.69256763  1
  O  O60  1  0.77307741  0.81641572  0.19335095  1
  O  O61  1  0.03114641  0.22192676  0.19213633  1
  O  O62  1  0.18480840  0.96085594  0.19416696  1
  O  O63  1  0.88035884  0.36082584  0.64173848  1
  O  O64  1  0.47964912  0.12247001  0.64204500  1
  O  O65  1  0.64177257  0.51978407  0.64209936  1
  O  O66  1  0.87939810  0.51699637  0.14158842  1
  O  O67  1  0.63768668  0.11726371  0.14263581  1
  O  O68  1  0.48741861  0.36365120  0.13953107  1
  O  O69  1  0.47612497  0.31549220  0.02781749  1
  O  O70  1  0.84073413  0.52635189  0.02798608  1
  O  O71  1  0.68264231  0.16135536  0.02963969  1
  O  O72  1  0.47347288  0.15732466  0.52860040  1
  O  O73  1  0.68198406  0.52491040  0.52824966  1
  O  O74  1  0.84248258  0.31648839  0.52852933  1
  O  O75  1  0.55074735  0.69192318  0.97684665  1
  O  O76  1  0.13891681  0.45557060  0.98122454  1
  O  O77  1  0.31073460  0.85621963  0.97614985  1
  O  O78  1  0.55457082  0.84679492  0.47945335  1
  O  O79  1  0.30388666  0.44819850  0.47768822  1
  O  O80  1  0.14805810  0.69687126  0.48019150  1
  O  O81  1  0.13222968  0.62989215  0.36102959  1
  O  O82  1  0.49785510  0.86368481  0.36093891  1
  O  O83  1  0.36669435  0.49934699  0.36496742  1
  O  O84  1  0.13772283  0.50026938  0.86177368  1
  O  O85  1  0.36247790  0.86835749  0.86201438  1
  O  O86  1  0.50953078  0.64371233  0.86297291  1
  O  O87  1  0.01287000  0.83133245  0.41121400  1
  O  O88  1  0.82120658  0.99740269  0.41080859  1
  O  O89  1  0.18552068  0.19716307  0.41039657  1
  O  O90  1  0.00946993  0.17778629  0.91204588  1
  O  O91  1  0.17407938  0.97194422  0.90868355  1
  O  O92  1  0.80984490  0.80984076  0.91007297  1
  O  O93  1  0.96708270  0.16558376  0.58335840  1
  O  O94  1  0.19858686  0.03269149  0.58364144  1
  O  O95  1  0.83094153  0.79966159  0.58306000  1
  O  O96  1  0.96571596  0.80056844  0.08363969  1
  O  O97  1  0.83164706  0.03170981  0.08336695  1
  O  O98  1  0.20173731  0.16879897  0.08370574  1
  O  O99  1  0.67419288  0.15328176  0.74510785  1
  O  O100  1  0.47972521  0.32710431  0.74524962  1
  O  O101  1  0.84962471  0.52256385  0.74645884  1
  O  O102  1  0.68629611  0.52537250  0.24510821  1
  O  O103  1  0.84709009  0.32513636  0.24744430  1
  O  O104  1  0.48152552  0.14661490  0.24705839  1
  O  O105  1  0.63606563  0.49536343  0.92137079  1
  O  O106  1  0.85119969  0.36702241  0.92194577  1
  O  O107  1  0.49938305  0.13938826  0.92125460  1
  O  O108  1  0.63189036  0.14693628  0.42298552  1
  O  O109  1  0.50427700  0.36656181  0.42252561  1
  O  O110  1  0.84945925  0.49095094  0.42295221  1
  O  O111  1  0.35655624  0.49453805  0.07906839  1
  O  O112  1  0.13981651  0.65018534  0.07988091  1
  O  O113  1  0.50636490  0.86109131  0.07807488  1
  O  O114  1  0.35411482  0.86139745  0.58142864  1
  O  O115  1  0.50405453  0.64218883  0.58017215  1
  O  O116  1  0.14022806  0.49089160  0.57953664  1
  O  O117  1  0.30996647  0.82890397  0.25733882  1
  O  O118  1  0.52010701  0.68667228  0.25856656  1
  O  O119  1  0.16635852  0.48112047  0.25715825  1
  O  O120  1  0.31559856  0.48196303  0.75889559  1
  O  O121  1  0.17090331  0.68939703  0.75746118  1
  O  O122  1  0.51816841  0.83273661  0.75738869  1
