# generated using pymatgen
data_La4MgFeO8
_symmetry_space_group_name_H-M   'P 1'
_cell_length_a   5.52999785
_cell_length_b   6.87018007
_cell_length_c   5.64571679
_cell_angle_alpha   90.03178977
_cell_angle_beta   89.90792597
_cell_angle_gamma   113.73457576
_symmetry_Int_Tables_number   1
_chemical_formula_structural   La4MgFeO8
_chemical_formula_sum   'La4 Mg1 Fe1 O8'
_cell_volume   196.35046846
_cell_formula_units_Z   1
loop_
 _symmetry_equiv_pos_site_id
 _symmetry_equiv_pos_as_xyz
  1  'x, y, z'
loop_
 _atom_site_type_symbol
 _atom_site_label
 _atom_site_symmetry_multiplicity
 _atom_site_fract_x
 _atom_site_fract_y
 _atom_site_fract_z
 _atom_site_occupancy
  La  La0  1  0.13662100  0.27331600  0.49999600  1
  La  La1  1  0.63819400  0.27621500  0.00001200  1
  La  La2  1  0.36180500  0.72378500  0.99998400  1
  La  La3  1  0.86338600  0.72668400  0.49999200  1
  Mg  Mg4  1  0.99999900  0.00000000  0.99999900  1
  Fe  Fe5  1  0.50000100  0.00000100  0.50000000  1
  O  O6  1  0.24828100  0.00005600  0.24434300  1
  O  O7  1  0.24881700  0.00005300  0.75522800  1
  O  O8  1  0.75118200  0.99994600  0.24477200  1
  O  O9  1  0.75171900  0.99994300  0.75565700  1
  O  O10  1  0.17923600  0.35861600  0.00001800  1
  O  O11  1  0.68293300  0.36557000  0.49998500  1
  O  O12  1  0.31705400  0.63443100  0.50001500  1
  O  O13  1  0.82077000  0.64138200  0.99999700  1
