# generated using pymatgen
data_Na5Ga3Si3Ge(SO8)3
_symmetry_space_group_name_H-M   'P 1'
_cell_length_a   8.79878534
_cell_length_b   8.74860680
_cell_length_c   22.04702233
_cell_angle_alpha   91.25776334
_cell_angle_beta   90.51953408
_cell_angle_gamma   120.20158257
_symmetry_Int_Tables_number   1
_chemical_formula_structural   Na5Ga3Si3Ge(SO8)3
_chemical_formula_sum   'Na15 Ga9 Si9 Ge3 S9 O72'
_cell_volume   1466.00054350
_cell_formula_units_Z   3
loop_
 _symmetry_equiv_pos_site_id
 _symmetry_equiv_pos_as_xyz
  1  'x, y, z'
loop_
 _atom_site_type_symbol
 _atom_site_label
 _atom_site_symmetry_multiplicity
 _atom_site_fract_x
 _atom_site_fract_y
 _atom_site_fract_z
 _atom_site_occupancy
  Na  Na0  1  0.63976109  0.00233136  0.25465385  1
  Na  Na1  1  0.00256957  0.62628925  0.24859787  1
  Na  Na2  1  0.63264155  0.63629538  0.74554673  1
  Na  Na3  1  0.36637784  0.01033389  0.75513459  1
  Na  Na4  1  0.66714517  0.95707107  0.58545931  1
  Na  Na5  1  0.97080144  0.67704859  0.92111536  1
  Na  Na6  1  0.70017015  0.02592803  0.91352442  1
  Na  Na7  1  0.96767633  0.30488479  0.41069066  1
  Na  Na8  1  0.70501938  0.68046314  0.42261780  1
  Na  Na9  1  0.00898040  0.98666497  0.50246487  1
  Na  Na10  1  0.01023477  0.99451772  -0.00008170  1
  Na  Na11  1  0.65369175  0.32647491  0.83206643  1
  Na  Na12  1  0.65933017  0.32398177  0.33291004  1
  Na  Na13  1  0.31411729  0.64190824  0.16126809  1
  Na  Na14  1  0.32387630  0.64052207  0.66560612  1
  Ga  Ga15  1  0.98823858  0.99771596  0.35427943  1
  Ga  Ga16  1  0.00745517  0.01214534  0.85225460  1
  Ga  Ga17  1  0.98445453  0.99299573  0.65239385  1
  Ga  Ga18  1  0.00631359  0.00200400  0.14348938  1
  Ga  Ga19  1  0.64777968  0.33226332  0.68868602  1
  Ga  Ga20  1  0.69567814  0.34199717  0.18073388  1
  Ga  Ga21  1  0.32909406  0.68491146  0.01676102  1
  Ga  Ga22  1  0.34575878  0.67836075  0.51680527  1
  Ga  Ga23  1  0.31506888  0.65937156  0.31945637  1
  Si  Si24  1  0.00885289  0.28897565  0.24938260  1
  Si  Si25  1  0.27726293  0.28959497  0.75054636  1
  Si  Si26  1  0.71214036  0.00972904  0.75066317  1
  Si  Si27  1  0.66558608  0.62260020  0.58466601  1
  Si  Si28  1  0.96551413  0.62954687  0.08330729  1
  Si  Si29  1  0.62028220  0.66730522  0.92010699  1
  Si  Si30  1  0.33258193  0.96214118  0.91717922  1
  Si  Si31  1  0.61890278  0.96122223  0.41757505  1
  Si  Si32  1  0.04729655  0.67469300  0.41818789  1
  Ge  Ge33  1  0.64948229  0.34812964  0.98026898  1
  Ge  Ge34  1  0.68568958  0.34628673  0.48055628  1
  Ge  Ge35  1  0.36434593  0.67745492  0.81397461  1
  S  S36  1  0.29260544  0.00657085  0.24927622  1
  S  S37  1  0.70154147  0.70101237  0.24883145  1
  S  S38  1  0.00225052  0.70487465  0.75049370  1
  S  S39  1  0.96067487  0.33870123  0.58341553  1
  S  S40  1  0.37499979  0.04622186  0.58154515  1
  S  S41  1  0.66687848  0.04257292  0.08273273  1
  S  S42  1  0.38105764  0.33355091  0.08488468  1
  S  S43  1  0.04953575  0.38147137  0.91725960  1
  S  S44  1  0.33626417  0.37360266  0.41709202  1
  O  O45  1  0.21272504  0.02879844  0.30477982  1
  O  O46  1  0.81312731  0.77531765  0.30597849  1
  O  O47  1  0.96706724  0.17016318  0.31051078  1
  O  O48  1  0.20245016  0.15798208  0.80656628  1
  O  O49  1  0.96672605  0.77971382  0.80596782  1
  O  O50  1  0.82211791  0.03087583  0.81253796  1
  O  O51  1  0.77777547  0.94955568  0.69026627  1
  O  O52  1  0.16410640  0.19860927  0.68810070  1
  O  O53  1  0.03490172  0.81713759  0.69711186  1
  O  O54  1  0.78741802  0.81323210  0.19698435  1
  O  O55  1  0.02749451  0.18847967  0.19011733  1
  O  O56  1  0.17846156  0.96802047  0.19482307  1
  O  O57  1  0.87137266  0.35826662  0.63571570  1
  O  O58  1  0.48449801  0.12236503  0.63828635  1
  O  O59  1  0.64376102  0.50988859  0.64431977  1
  O  O60  1  0.88553271  0.52299094  0.14585194  1
  O  O61  1  0.63976812  0.12166477  0.14019111  1
  O  O62  1  0.49132351  0.35235527  0.13873954  1
  O  O63  1  0.45463019  0.29709690  0.02739768  1
  O  O64  1  0.83042940  0.52521433  0.02271368  1
  O  O65  1  0.68541653  0.15032912  0.02941694  1
  O  O66  1  0.46499304  0.15427802  0.52816296  1
  O  O67  1  0.68966906  0.52679745  0.52159822  1
  O  O68  1  0.84698961  0.30156566  0.52467536  1
  O  O69  1  0.52509141  0.70052486  0.97637930  1
  O  O70  1  0.15216472  0.45848657  0.97337859  1
  O  O71  1  0.28136007  0.83292999  0.97315828  1
  O  O72  1  0.54778933  0.83688557  0.47586264  1
  O  O73  1  0.30320378  0.45178506  0.47162349  1
  O  O74  1  0.16537339  0.69203716  0.47653331  1
  O  O75  1  0.10782933  0.61448888  0.35636336  1
  O  O76  1  0.50366511  0.87085434  0.35483364  1
  O  O77  1  0.37137334  0.48603569  0.36344855  1
  O  O78  1  0.12789463  0.49257913  0.86371714  1
  O  O79  1  0.37803093  0.87396971  0.85595107  1
  O  O80  1  0.50848831  0.62741225  0.85519447  1
  O  O81  1  0.01642041  0.84252772  0.40969222  1
  O  O82  1  0.82040514  0.99418997  0.41211632  1
  O  O83  1  0.17884654  0.19676808  0.40962043  1
  O  O84  1  0.02401703  0.20105636  0.91262680  1
  O  O85  1  0.16134641  0.98252098  0.90854813  1
  O  O86  1  0.81756396  0.83964381  0.91355566  1
  O  O87  1  0.97223405  0.17552929  0.58414586  1
  O  O88  1  0.20161639  0.02899168  0.58559961  1
  O  O89  1  0.84528209  0.82262751  0.58717241  1
  O  O90  1  0.97703197  0.82397173  0.08779027  1
  O  O91  1  0.82801461  0.03049843  0.08666923  1
  O  O92  1  0.20442351  0.17376295  0.08648694  1
  O  O93  1  0.68114904  0.17698892  0.74185630  1
  O  O94  1  0.48195822  0.32610671  0.74640592  1
  O  O95  1  0.84513141  0.52708169  0.74285661  1
  O  O96  1  0.67967920  0.52106135  0.24300516  1
  O  O97  1  0.82629247  0.30808411  0.24538703  1
  O  O98  1  0.47034271  0.16452270  0.24360439  1
  O  O99  1  0.64545530  0.49051015  0.92274591  1
  O  O100  1  0.86807276  0.36004654  0.92055355  1
  O  O101  1  0.52533696  0.15343187  0.92757975  1
  O  O102  1  0.64010566  0.16136870  0.42696243  1
  O  O103  1  0.49572229  0.35662872  0.42284023  1
  O  O104  1  0.84275390  0.49505764  0.42403161  1
  O  O105  1  0.37064880  0.49392376  0.07985646  1
  O  O106  1  0.15524403  0.64044086  0.07656558  1
  O  O107  1  0.50877680  0.86476301  0.07989721  1
  O  O108  1  0.36103045  0.86862477  0.57775088  1
  O  O109  1  0.49085454  0.64679960  0.57782173  1
  O  O110  1  0.13347834  0.49696187  0.57734609  1
  O  O111  1  0.31517369  0.84681222  0.25249289  1
  O  O112  1  0.52964985  0.69036086  0.25532255  1
  O  O113  1  0.18042881  0.49158222  0.25488889  1
  O  O114  1  0.29803833  0.49011478  0.75824108  1
  O  O115  1  0.16264977  0.69142889  0.75706582  1
  O  O116  1  0.50852358  0.82788396  0.75526148  1
