# generated using pymatgen
data_Na2MgSiSn(SO6)2
_symmetry_space_group_name_H-M   'P 1'
_cell_length_a   8.95656685
_cell_length_b   8.88311292
_cell_length_c   22.71022199
_cell_angle_alpha   90.72229462
_cell_angle_beta   90.00000000
_cell_angle_gamma   120.27391343
_symmetry_Int_Tables_number   1
_chemical_formula_structural   Na2MgSiSn(SO6)2
_chemical_formula_sum   'Na12 Mg6 Si6 Sn6 S12 O72'
_cell_volume   1560.29657290
_cell_formula_units_Z   6
loop_
 _symmetry_equiv_pos_site_id
 _symmetry_equiv_pos_as_xyz
  1  'x, y, z'
loop_
 _atom_site_type_symbol
 _atom_site_label
 _atom_site_symmetry_multiplicity
 _atom_site_fract_x
 _atom_site_fract_y
 _atom_site_fract_z
 _atom_site_occupancy
  Na  Na0  1  0.00032533  0.63969118  0.24105999  1
  Na  Na1  1  0.63936585  0.63969118  0.74105999  1
  Na  Na2  1  0.65735864  0.95110273  0.57890943  1
  Na  Na3  1  0.29374510  0.95110273  0.07890943  1
  Na  Na4  1  0.69161091  0.02702620  0.90828637  1
  Na  Na5  1  0.33541429  0.02702620  0.40828637  1
  Na  Na6  1  0.97612196  0.98697986  0.49487114  1
  Na  Na7  1  0.01085790  0.98697986  0.99487114  1
  Na  Na8  1  0.66001268  0.31126341  0.82834418  1
  Na  Na9  1  0.65125173  0.31126341  0.32834418  1
  Na  Na10  1  0.32564871  0.66286155  0.16208836  1
  Na  Na11  1  0.33721184  0.66286155  0.66208836  1
  Mg  Mg12  1  0.99758083  0.00519764  0.35194807  1
  Mg  Mg13  1  0.00761681  0.00519764  0.85194807  1
  Mg  Mg14  1  0.66748051  0.32772088  0.68501730  1
  Mg  Mg15  1  0.66024138  0.32772088  0.18501730  1
  Mg  Mg16  1  0.31501474  0.66617240  0.01917135  1
  Mg  Mg17  1  0.35115666  0.66617240  0.51917135  1
  Si  Si18  1  0.30130218  0.00893091  0.25430283  1
  Si  Si19  1  0.70762873  0.00893091  0.75430283  1
  Si  Si20  1  0.66177483  0.62043720  0.58830650  1
  Si  Si21  1  0.95866336  0.62043720  0.08830650  1
  Si  Si22  1  0.32666144  0.96635617  0.92230346  1
  Si  Si23  1  0.63969373  0.96635617  0.42230346  1
  Sn  Sn24  1  0.98844173  0.98788357  0.65046317  1
  Sn  Sn25  1  0.99944184  0.98788357  0.15046317  1
  Sn  Sn26  1  0.66660992  0.34043483  0.98379055  1
  Sn  Sn27  1  0.67382592  0.34043483  0.48379055  1
  Sn  Sn28  1  0.34560066  0.68652894  0.31667496  1
  Sn  Sn29  1  0.34092728  0.68652894  0.81667496  1
  S  S30  1  0.70450264  0.70597889  0.25153142  1
  S  S31  1  0.00084180  0.29079599  0.25140591  1
  S  S32  1  0.28995420  0.29079599  0.75140591  1
  S  S33  1  0.00147624  0.70597889  0.75153142  1
  S  S34  1  0.96574274  0.33893343  0.58492070  1
  S  S35  1  0.36796454  0.03969368  0.58464856  1
  S  S36  1  0.67173013  0.03969368  0.08464856  1
  S  S37  1  0.37319169  0.33893343  0.08492070  1
  S  S38  1  0.62229906  0.66420159  0.91773417  1
  S  S39  1  0.04568675  0.37656050  0.91661562  1
  S  S40  1  0.33087276  0.37656050  0.41661562  1
  S  S41  1  0.04190154  0.66420159  0.41773417  1
  O  O42  1  0.20379079  0.01857765  0.31221325  1
  O  O43  1  0.81371006  0.79418002  0.30243966  1
  O  O44  1  0.97804512  0.18341986  0.30207982  1
  O  O45  1  0.20537474  0.18341986  0.80207982  1
  O  O46  1  0.98046996  0.79418002  0.80243966  1
  O  O47  1  0.81478686  0.01857765  0.81221325  1
  O  O48  1  0.78305642  0.95821654  0.69294591  1
  O  O49  1  0.18680169  0.21419271  0.69512667  1
  O  O50  1  0.04313266  0.81493028  0.69666707  1
  O  O51  1  0.77179762  0.81493028  0.19666707  1
  O  O52  1  0.02739101  0.21419271  0.19512667  1
  O  O53  1  0.17516012  0.95821654  0.19294591  1
  O  O54  1  0.88078282  0.35850806  0.63641395  1
  O  O55  1  0.48439389  0.12499218  0.63411580  1
  O  O56  1  0.64875794  0.51563930  0.64633065  1
  O  O57  1  0.86688236  0.51563930  0.14633065  1
  O  O58  1  0.64059929  0.12499218  0.13411580  1
  O  O59  1  0.47772624  0.35850806  0.13641395  1
  O  O60  1  0.43996144  0.29008009  0.03035335  1
  O  O61  1  0.83919782  0.54176269  0.02653647  1
  O  O62  1  0.70243340  0.14051909  0.02831475  1
  O  O63  1  0.43808669  0.14051909  0.52831475  1
  O  O64  1  0.70256586  0.54176269  0.52653647  1
  O  O65  1  0.85011964  0.29008009  0.53035335  1
  O  O66  1  0.53382520  0.68394211  0.96821893  1
  O  O67  1  0.15169402  0.46065349  0.96836936  1
  O  O68  1  0.31730978  0.86069007  0.97981978  1
  O  O69  1  0.54337929  0.86069007  0.47981978  1
  O  O70  1  0.30895847  0.46065349  0.46836936  1
  O  O71  1  0.15011592  0.68394211  0.46821893  1
  O  O72  1  0.11054421  0.62857028  0.36096809  1
  O  O73  1  0.50746994  0.89259507  0.36270328  1
  O  O74  1  0.35833557  0.48091098  0.36148017  1
  O  O75  1  0.12257440  0.48091098  0.86148017  1
  O  O76  1  0.38512413  0.89259507  0.86270328  1
  O  O77  1  0.51802506  0.62857028  0.86096809  1
  O  O78  1  0.03046638  0.82288726  0.41184566  1
  O  O79  1  0.82553134  0.98832938  0.41135508  1
  O  O80  1  0.18152977  0.19958978  0.41062366  1
  O  O81  1  0.01806002  0.19958978  0.91062366  1
  O  O82  1  0.16279804  0.98832938  0.91135508  1
  O  O83  1  0.79242089  0.82288726  0.91184566  1
  O  O84  1  0.98308372  0.17743621  0.58952877  1
  O  O85  1  0.19627705  0.03034713  0.59189881  1
  O  O86  1  0.84248726  0.82437616  0.58601393  1
  O  O87  1  0.98188890  0.82437616  0.08601393  1
  O  O88  1  0.83407008  0.03034713  0.09189881  1
  O  O89  1  0.19435249  0.17743621  0.08952877  1
  O  O90  1  0.68191351  0.17233967  0.74453546  1
  O  O91  1  0.46492521  0.31862842  0.74536495  1
  O  O92  1  0.84310703  0.53697115  0.74388099  1
  O  O93  1  0.69386512  0.53697115  0.24388099  1
  O  O94  1  0.85370421  0.31862842  0.24536495  1
  O  O95  1  0.49042716  0.17233967  0.24453546  1
  O  O96  1  0.64309503  0.50685961  0.92042299  1
  O  O97  1  0.86825344  0.35804989  0.92057970  1
  O  O98  1  0.52159625  0.16103056  0.92460925  1
  O  O99  1  0.63943531  0.16103056  0.42460925  1
  O  O100  1  0.48979745  0.35804989  0.42057970  1
  O  O101  1  0.86376558  0.50685961  0.42042299  1
  O  O102  1  0.36038951  0.49325319  0.07540725  1
  O  O103  1  0.15314230  0.65296044  0.08229198  1
  O  O104  1  0.52110647  0.86325417  0.07753475  1
  O  O105  1  0.34214670  0.86325417  0.57753475  1
  O  O106  1  0.49981715  0.65296044  0.58229198  1
  O  O107  1  0.13286268  0.49325319  0.57540725  1
  O  O108  1  0.29831164  0.81306527  0.25366398  1
  O  O109  1  0.52510930  0.67915008  0.25616703  1
  O  O110  1  0.16318870  0.46903962  0.25678477  1
  O  O111  1  0.30584992  0.46903962  0.75678477  1
  O  O112  1  0.15403978  0.67915008  0.75616703  1
  O  O113  1  0.51475263  0.81306527  0.75366398  1
