# generated using pymatgen
data_Na6MgV2(S3O)2
_symmetry_space_group_name_H-M   'P 1'
_cell_length_a   6.32875775
_cell_length_b   7.78442452
_cell_length_c   7.78423923
_cell_angle_alpha   102.18146450
_cell_angle_beta   90.35959162
_cell_angle_gamma   89.61557085
_symmetry_Int_Tables_number   1
_chemical_formula_structural   Na6MgV2(S3O)2
_chemical_formula_sum   'Na6 Mg1 V2 S6 O2'
_cell_volume   374.84848820
_cell_formula_units_Z   1
loop_
 _symmetry_equiv_pos_site_id
 _symmetry_equiv_pos_as_xyz
  1  'x, y, z'
loop_
 _atom_site_type_symbol
 _atom_site_label
 _atom_site_symmetry_multiplicity
 _atom_site_fract_x
 _atom_site_fract_y
 _atom_site_fract_z
 _atom_site_occupancy
  Na  Na0  1  0.48784000  0.12064900  0.87908600  1
  Na  Na1  1  0.49247600  0.17610600  0.41148000  1
  Na  Na2  1  0.49205800  0.58839100  0.82344600  1
  Na  Na3  1  0.01427300  0.38572700  0.16669100  1
  Na  Na4  1  0.00851800  0.90387700  0.09657600  1
  Na  Na5  1  0.01259500  0.83305400  0.61404200  1
  Mg  Mg6  1  0.71623200  0.70237700  0.29656200  1
  V  V7  1  0.30625200  0.70289600  0.29716400  1
  V  V8  1  0.89840600  0.30097600  0.69911200  1
  S  S9  1  0.49275800  0.43643600  0.18686600  1
  S  S10  1  0.00723400  0.12603300  0.87379700  1
  S  S11  1  0.49317200  0.81287900  0.56321200  1
  S  S12  1  0.01168000  0.18721800  0.43397200  1
  S  S13  1  0.01135900  0.56605900  0.81299400  1
  S  S14  1  0.48936900  0.87651600  0.12324200  1
  O  O15  1  0.63054300  0.30388500  0.69599800  1
  O  O16  1  0.01360600  0.69914200  0.30076200  1
