# generated using pymatgen
data_Er5Mg(MoO6)2
_symmetry_space_group_name_H-M   'P 1'
_cell_length_a   5.99886400
_cell_length_b   6.89147218
_cell_length_c   7.26055663
_cell_angle_alpha   104.83035745
_cell_angle_beta   90.00000000
_cell_angle_gamma   115.80045235
_symmetry_Int_Tables_number   1
_chemical_formula_structural   Er5Mg(MoO6)2
_chemical_formula_sum   'Er5 Mg1 Mo2 O12'
_cell_volume   259.08638269
_cell_formula_units_Z   1
loop_
 _symmetry_equiv_pos_site_id
 _symmetry_equiv_pos_as_xyz
  1  'x, y, z'
loop_
 _atom_site_type_symbol
 _atom_site_label
 _atom_site_symmetry_multiplicity
 _atom_site_fract_x
 _atom_site_fract_y
 _atom_site_fract_z
 _atom_site_occupancy
  Er  Er0  1  0.28865100  0.57730200  0.64279600  1
  Er  Er1  1  0.71134900  0.42269800  0.35720400  1
  Er  Er2  1  0.29883200  0.59766300  0.14090800  1
  Er  Er3  1  0.70116800  0.40233700  0.85909200  1
  Er  Er4  1  0.00000000  0.00000000  0.50000000  1
  Mg  Mg5  1  0.50000000  0.00000000  0.50000000  1
  Mo  Mo6  1  0.76261100  0.00000000  0.00000000  1
  Mo  Mo7  1  0.23738900  0.00000000  0.00000000  1
  O  O8  1  0.90622600  0.35327800  0.10523100  1
  O  O9  1  0.44705300  0.35327800  0.10523100  1
  O  O10  1  0.09377400  0.64672200  0.89476900  1
  O  O11  1  0.55294700  0.64672200  0.89476900  1
  O  O12  1  0.12852200  0.72271000  0.44180500  1
  O  O13  1  0.59418900  0.72271000  0.44180500  1
  O  O14  1  0.87147800  0.27729000  0.55819500  1
  O  O15  1  0.40581100  0.27729000  0.55819500  1
  O  O16  1  0.98896400  0.97792700  0.19660700  1
  O  O17  1  0.01103600  0.02207300  0.80339300  1
  O  O18  1  0.49553900  0.99107700  0.20303000  1
  O  O19  1  0.50446100  0.00892300  0.79697000  1
