# generated using pymatgen
data_NaMgMn4O8
_symmetry_space_group_name_H-M   'P 1'
_cell_length_a   6.13095497
_cell_length_b   6.13087171
_cell_length_c   6.19226134
_cell_angle_alpha   88.50993338
_cell_angle_beta   119.99311953
_cell_angle_gamma   121.41131625
_symmetry_Int_Tables_number   1
_chemical_formula_structural   NaMgMn4O8
_chemical_formula_sum   'Na1 Mg1 Mn4 O8'
_cell_volume   163.15314988
_cell_formula_units_Z   1
loop_
 _symmetry_equiv_pos_site_id
 _symmetry_equiv_pos_as_xyz
  1  'x, y, z'
loop_
 _atom_site_type_symbol
 _atom_site_label
 _atom_site_symmetry_multiplicity
 _atom_site_fract_x
 _atom_site_fract_y
 _atom_site_fract_z
 _atom_site_occupancy
  Na  Na0  1  0.50002800  0.99997900  0.50002300  1
  Mg  Mg1  1  0.00001000  0.49996900  0.50000400  1
  Mn  Mn2  1  0.99999900  0.99998800  0.99995700  1
  Mn  Mn3  1  0.99996700  0.49997300  0.99999300  1
  Mn  Mn4  1  0.50000600  0.00003900  0.00000500  1
  Mn  Mn5  1  0.50003200  0.50002300  0.00005700  1
  O  O6  1  0.04255000  0.74633100  0.78878600  1
  O  O7  1  0.03967800  0.30089000  0.79532700  1
  O  O8  1  0.54801500  0.24952500  0.79743500  1
  O  O9  1  0.49454500  0.75574300  0.79534300  1
  O  O10  1  0.45195100  0.75047200  0.20254700  1
  O  O11  1  0.50545800  0.24426800  0.20466100  1
  O  O12  1  0.95740300  0.25366600  0.21117100  1
  O  O13  1  0.96035700  0.69913900  0.20470700  1
