# generated using pymatgen
data_Na3HfZn3PS5O24
_symmetry_space_group_name_H-M   'P 1'
_cell_length_a   8.82245730
_cell_length_b   8.79752969
_cell_length_c   22.80582328
_cell_angle_alpha   90.08372646
_cell_angle_beta   90.28165528
_cell_angle_gamma   120.13297971
_symmetry_Int_Tables_number   1
_chemical_formula_structural   Na3HfZn3PS5O24
_chemical_formula_sum   'Na9 Hf3 Zn9 P3 S15 O72'
_cell_volume   1530.85286516
_cell_formula_units_Z   3
loop_
 _symmetry_equiv_pos_site_id
 _symmetry_equiv_pos_as_xyz
  1  'x, y, z'
loop_
 _atom_site_type_symbol
 _atom_site_label
 _atom_site_symmetry_multiplicity
 _atom_site_fract_x
 _atom_site_fract_y
 _atom_site_fract_z
 _atom_site_occupancy
  Na  Na0  1  0.36343624  0.36332979  0.25077193  1
  Na  Na1  1  0.02958847  0.70011300  0.58584470  1
  Na  Na2  1  0.29823335  0.96372800  0.07964359  1
  Na  Na3  1  0.99004434  0.00398349  0.50082040  1
  Na  Na4  1  0.99801831  0.01006673  0.99108209  1
  Na  Na5  1  0.66617167  0.32660772  0.82543522  1
  Na  Na6  1  0.68133504  0.33069283  0.32912403  1
  Na  Na7  1  0.33272211  0.66563097  0.16704001  1
  Na  Na8  1  0.35747923  0.66356841  0.66217850  1
  Hf  Hf9  1  0.67083789  0.33154485  0.97756424  1
  Hf  Hf10  1  0.66580236  0.33732897  0.48224736  1
  Hf  Hf11  1  0.32827198  0.66792572  0.81576913  1
  Zn  Zn12  1  0.99433907  0.99556589  0.34857084  1
  Zn  Zn13  1  0.01305993  0.01339824  0.85150674  1
  Zn  Zn14  1  0.98457481  0.99652669  0.65205619  1
  Zn  Zn15  1  0.98755548  0.99644404  0.15351195  1
  Zn  Zn16  1  0.65864825  0.33848859  0.68316630  1
  Zn  Zn17  1  0.67853598  0.33656630  0.18283927  1
  Zn  Zn18  1  0.32488965  0.66011753  0.00798852  1
  Zn  Zn19  1  0.35489913  0.66634436  0.51625030  1
  Zn  Zn20  1  0.33253855  0.67713499  0.31949990  1
  P  P21  1  0.66616992  0.63156882  0.58601318  1
  P  P22  1  0.04179466  0.36717854  0.91810357  1
  P  P23  1  0.32491475  0.95778532  0.92033158  1
  S  S24  1  0.29513554  0.99844358  0.24858409  1
  S  S25  1  0.70209018  0.70253045  0.25027943  1
  S  S26  1  0.00033934  0.29580869  0.25070754  1
  S  S27  1  0.29430628  0.29182244  0.74919005  1
  S  S28  1  0.99681421  0.70536716  0.74937285  1
  S  S29  1  0.70695597  0.00345546  0.75045388  1
  S  S30  1  0.96156333  0.33298365  0.58417083  1
  S  S31  1  0.37163413  0.03767999  0.58427015  1
  S  S32  1  0.96166106  0.62968751  0.08536325  1
  S  S33  1  0.66784087  0.03800864  0.08467197  1
  S  S34  1  0.37339319  0.33701060  0.08567828  1
  S  S35  1  0.62859345  0.67090549  0.91810124  1
  S  S36  1  0.63079821  0.96162907  0.41612729  1
  S  S37  1  0.32786295  0.36752765  0.41460484  1
  S  S38  1  0.04220334  0.67011616  0.41802504  1
  O  O39  1  0.20900976  0.02760870  0.29960454  1
  O  O40  1  0.80800448  0.78450677  0.30327771  1
  O  O41  1  0.97609709  0.18985153  0.30363968  1
  O  O42  1  0.21384175  0.18994578  0.80242494  1
  O  O43  1  0.97834655  0.79407296  0.80085439  1
  O  O44  1  0.81121086  0.02388147  0.80332270  1
  O  O45  1  0.77684993  0.97018810  0.69641466  1
  O  O46  1  0.18899249  0.21629151  0.69552922  1
  O  O47  1  0.02671617  0.80410323  0.69386676  1
  O  O48  1  0.78081031  0.80472417  0.19638103  1
  O  O49  1  0.03114223  0.21670089  0.19727677  1
  O  O50  1  0.19547213  0.97539295  0.19278598  1
  O  O51  1  0.87919715  0.35891952  0.63640095  1
  O  O52  1  0.47890612  0.11703997  0.63690149  1
  O  O53  1  0.64326153  0.52182542  0.64023128  1
  O  O54  1  0.87864445  0.52641130  0.13811716  1
  O  O55  1  0.63834626  0.12017521  0.13685985  1
  O  O56  1  0.47214205  0.35573600  0.14095565  1
  O  O57  1  0.47018089  0.31425321  0.03458542  1
  O  O58  1  0.85322471  0.53760718  0.03205387  1
  O  O59  1  0.68657479  0.14947195  0.03148075  1
  O  O60  1  0.46576248  0.14675695  0.53086387  1
  O  O61  1  0.68913625  0.53376254  0.53071592  1
  O  O62  1  0.84860800  0.31088193  0.53037585  1
  O  O63  1  0.55114571  0.69456582  0.97165125  1
  O  O64  1  0.14652817  0.44368216  0.97434095  1
  O  O65  1  0.30927677  0.86397837  0.97871114  1
  O  O66  1  0.54886779  0.85886502  0.46913880  1
  O  O67  1  0.30627202  0.45346776  0.46654867  1
  O  O68  1  0.14110074  0.68886597  0.47264614  1
  O  O69  1  0.11906315  0.63838011  0.36545609  1
  O  O70  1  0.52491159  0.88791632  0.36233290  1
  O  O71  1  0.36060245  0.47029466  0.35987769  1
  O  O72  1  0.13363837  0.48629296  0.86383891  1
  O  O73  1  0.35669627  0.86430322  0.86735203  1
  O  O74  1  0.51483052  0.63993846  0.86538663  1
  O  O75  1  0.01775010  0.82390853  0.41181767  1
  O  O76  1  0.80853120  0.98494600  0.41111839  1
  O  O77  1  0.17430311  0.18833377  0.40987861  1
  O  O78  1  0.00844935  0.18182128  0.90993572  1
  O  O79  1  0.16468147  0.97612095  0.91112175  1
  O  O80  1  0.80379374  0.82043083  0.90982367  1
  O  O81  1  0.97886298  0.17575572  0.58623941  1
  O  O82  1  0.19877480  0.02686558  0.58572802  1
  O  O83  1  0.84132650  0.81018993  0.58678700  1
  O  O84  1  0.97810463  0.80707111  0.08727187  1
  O  O85  1  0.82905826  0.02754393  0.08804420  1
  O  O86  1  0.20052429  0.16964675  0.08678184  1
  O  O87  1  0.68252390  0.15796704  0.74462371  1
  O  O88  1  0.47280441  0.31460821  0.74531837  1
  O  O89  1  0.84451716  0.52427454  0.74569489  1
  O  O90  1  0.67854135  0.52084779  0.24580893  1
  O  O91  1  0.84336940  0.31539764  0.24457147  1
  O  O92  1  0.47216899  0.16300690  0.24490791  1
  O  O93  1  0.63860134  0.50432597  0.92319719  1
  O  O94  1  0.86021426  0.36239110  0.92266125  1
  O  O95  1  0.49713664  0.14411086  0.92349835  1
  O  O96  1  0.64902064  0.14222879  0.42306401  1
  O  O97  1  0.49063261  0.34998716  0.42292750  1
  O  O98  1  0.86017689  0.50540756  0.42296274  1
  O  O99  1  0.35583604  0.49297673  0.07833467  1
  O  O100  1  0.13966267  0.65172726  0.08069686  1
  O  O101  1  0.50756149  0.86343712  0.07777900  1
  O  O102  1  0.34380279  0.85717471  0.57678556  1
  O  O103  1  0.50410819  0.65070864  0.57831488  1
  O  O104  1  0.13278520  0.49760142  0.57600938  1
  O  O105  1  0.31468737  0.84137391  0.25516706  1
  O  O106  1  0.52140886  0.67888529  0.25494784  1
  O  O107  1  0.16404700  0.47288505  0.25603435  1
  O  O108  1  0.31580961  0.47458383  0.75607762  1
  O  O109  1  0.16085796  0.68840737  0.75637688  1
  O  O110  1  0.52573361  0.83974031  0.75719548  1
