# generated using pymatgen
data_Na4Zn3SiGeS5O24
_symmetry_space_group_name_H-M   'P 1'
_cell_length_a   8.80890847
_cell_length_b   8.83159676
_cell_length_c   22.16378597
_cell_angle_alpha   90.86065787
_cell_angle_beta   89.98536151
_cell_angle_gamma   120.27233236
_symmetry_Int_Tables_number   1
_chemical_formula_structural   Na4Zn3SiGeS5O24
_chemical_formula_sum   'Na12 Zn9 Si3 Ge3 S15 O72'
_cell_volume   1488.92552601
_cell_formula_units_Z   3
loop_
 _symmetry_equiv_pos_site_id
 _symmetry_equiv_pos_as_xyz
  1  'x, y, z'
loop_
 _atom_site_type_symbol
 _atom_site_label
 _atom_site_symmetry_multiplicity
 _atom_site_fract_x
 _atom_site_fract_y
 _atom_site_fract_z
 _atom_site_occupancy
  Na  Na0  1  0.36145032  0.36174119  0.25035108  1
  Na  Na1  1  0.30846767  0.34140063  0.58892668  1
  Na  Na2  1  0.02967413  0.70070759  0.58174805  1
  Na  Na3  1  0.98273441  0.68046834  0.91898085  1
  Na  Na4  1  0.69767604  0.02635190  0.91169216  1
  Na  Na5  1  0.31373828  0.29216989  0.92051093  1
  Na  Na6  1  0.97359492  0.98545407  0.49812052  1
  Na  Na7  1  0.01430453  0.01385566  0.00132773  1
  Na  Na8  1  0.66574255  0.32748847  0.82735901  1
  Na  Na9  1  0.68069772  0.33027199  0.33147967  1
  Na  Na10  1  0.33129359  0.67939722  0.16493935  1
  Na  Na11  1  0.36704690  0.67998493  0.66508537  1
  Zn  Zn12  1  0.99756539  0.99881285  0.34859867  1
  Zn  Zn13  1  0.00990361  0.01189761  0.84840975  1
  Zn  Zn14  1  0.96875132  0.98148307  0.65133228  1
  Zn  Zn15  1  0.99570136  0.99351660  0.15002354  1
  Zn  Zn16  1  0.66120801  0.34328188  0.68337171  1
  Zn  Zn17  1  0.67295299  0.33153881  0.18512076  1
  Zn  Zn18  1  0.31711340  0.66177602  0.01498961  1
  Zn  Zn19  1  0.35564466  0.67477991  0.51342703  1
  Zn  Zn20  1  0.33419789  0.67977300  0.31977383  1
  Si  Si21  1  0.66470735  0.62699373  0.58307049  1
  Si  Si22  1  0.04164044  0.37601922  0.91865992  1
  Si  Si23  1  0.33539375  0.96166436  0.91969251  1
  Ge  Ge24  1  0.67145180  0.31880436  0.98367315  1
  Ge  Ge25  1  0.67338653  0.34276587  0.48275484  1
  Ge  Ge26  1  0.32001431  0.67469613  0.81971916  1
  S  S27  1  0.29468869  0.99732824  0.24937595  1
  S  S28  1  0.70144110  0.70354309  0.25039263  1
  S  S29  1  0.00102778  0.29668875  0.25067630  1
  S  S30  1  0.30022461  0.31174651  0.75175452  1
  S  S31  1  0.00849467  0.70060801  0.75186980  1
  S  S32  1  0.68599913  0.98917874  0.75374598  1
  S  S33  1  0.95205891  0.32913464  0.58156700  1
  S  S34  1  0.38221640  0.04556747  0.58168184  1
  S  S35  1  0.95175572  0.62325348  0.08316851  1
  S  S36  1  0.66915356  0.03730171  0.08302211  1
  S  S37  1  0.38064239  0.33519527  0.08309297  1
  S  S38  1  0.61915266  0.66060714  0.91672233  1
  S  S39  1  0.63615531  0.98137656  0.41880982  1
  S  S40  1  0.33813258  0.36101130  0.41723784  1
  S  S41  1  0.02982914  0.65837404  0.41996074  1
  O  O42  1  0.21350564  0.02718854  0.30360078  1
  O  O43  1  0.80570842  0.78612089  0.30563631  1
  O  O44  1  0.97872728  0.19340275  0.30513707  1
  O  O45  1  0.21564602  0.21254861  0.80669499  1
  O  O46  1  0.99012083  0.78604835  0.80685224  1
  O  O47  1  0.78734055  0.00875983  0.80929599  1
  O  O48  1  0.76769394  0.96492973  0.69899131  1
  O  O49  1  0.19651699  0.22722372  0.69572172  1
  O  O50  1  0.02974099  0.80026348  0.69628301  1
  O  O51  1  0.78153144  0.80408500  0.19534443  1
  O  O52  1  0.02942895  0.21500909  0.19567148  1
  O  O53  1  0.19133815  0.97390534  0.19369120  1
  O  O54  1  0.86974765  0.35031773  0.63586617  1
  O  O55  1  0.48850791  0.11572896  0.63657302  1
  O  O56  1  0.61872893  0.49992027  0.63949423  1
  O  O57  1  0.85988747  0.51866474  0.13520822  1
  O  O58  1  0.64800154  0.12908914  0.13462229  1
  O  O59  1  0.47898940  0.34712539  0.13838102  1
  O  O60  1  0.47122922  0.31177795  0.02540539  1
  O  O61  1  0.84417838  0.53593811  0.02402177  1
  O  O62  1  0.69500723  0.14323692  0.02384797  1
  O  O63  1  0.47012470  0.15804991  0.52662930  1
  O  O64  1  0.71158179  0.53261246  0.52328688  1
  O  O65  1  0.83804394  0.29189183  0.52522382  1
  O  O66  1  0.55228925  0.70003984  0.97128261  1
  O  O67  1  0.17640902  0.44154462  0.97410534  1
  O  O68  1  0.29248961  0.84048972  0.97650019  1
  O  O69  1  0.55642946  0.88029942  0.47327163  1
  O  O70  1  0.31633447  0.44372808  0.47245735  1
  O  O71  1  0.12950932  0.67769272  0.47611991  1
  O  O72  1  0.11324920  0.63418862  0.36585052  1
  O  O73  1  0.52944316  0.90387597  0.36359410  1
  O  O74  1  0.36527376  0.46606484  0.36249513  1
  O  O75  1  0.12505373  0.51518652  0.85983626  1
  O  O76  1  0.39457114  0.88202334  0.85993055  1
  O  O77  1  0.49974111  0.62183087  0.86230488  1
  O  O78  1  0.00030103  0.80812350  0.41515839  1
  O  O79  1  0.81546951  0.00923007  0.41309271  1
  O  O80  1  0.18396671  0.18196643  0.41192624  1
  O  O81  1  0.99256383  0.17554532  0.90694801  1
  O  O82  1  0.16900087  0.98808955  0.90848665  1
  O  O83  1  0.79829078  0.81024286  0.90683802  1
  O  O84  1  0.98544003  0.18075498  0.58430164  1
  O  O85  1  0.21141223  0.04260523  0.58530782  1
  O  O86  1  0.84892384  0.81504111  0.58552889  1
  O  O87  1  0.96557673  0.79754951  0.08348366  1
  O  O88  1  0.83238241  0.02873038  0.08542197  1
  O  O89  1  0.20497900  0.17470125  0.08224503  1
  O  O90  1  0.66120765  0.14171680  0.74844363  1
  O  O91  1  0.47737271  0.33193725  0.74960405  1
  O  O92  1  0.85913514  0.51890945  0.74821351  1
  O  O93  1  0.67661774  0.52216929  0.24634639  1
  O  O94  1  0.84471338  0.31754810  0.24554545  1
  O  O95  1  0.47226527  0.16114292  0.24575505  1
  O  O96  1  0.63268819  0.49756181  0.92106196  1
  O  O97  1  0.84852577  0.37168235  0.92767458  1
  O  O98  1  0.51622133  0.16332748  0.92658179  1
  O  O99  1  0.64819760  0.16150176  0.42474362  1
  O  O100  1  0.50427227  0.34655683  0.42258526  1
  O  O101  1  0.85050934  0.48645871  0.42171522  1
  O  O102  1  0.37325366  0.49677728  0.07881469  1
  O  O103  1  0.12448711  0.63625972  0.08011926  1
  O  O104  1  0.51232264  0.86306861  0.07708779  1
  O  O105  1  0.34293476  0.86311234  0.57276480  1
  O  O106  1  0.48893052  0.64119829  0.57553542  1
  O  O107  1  0.12340378  0.49452687  0.57468031  1
  O  O108  1  0.31508364  0.84130346  0.25471049  1
  O  O109  1  0.51998663  0.67945718  0.25512886  1
  O  O110  1  0.16492542  0.47396618  0.25618927  1
  O  O111  1  0.31500329  0.49149243  0.75671353  1
  O  O112  1  0.18049779  0.69555137  0.75547061  1
  O  O113  1  0.50862328  0.81864679  0.75699632  1
