# generated using pymatgen
data_Na6Ca8Ta4Si3(S5O24)3
_symmetry_space_group_name_H-M   'P 1'
_cell_length_a   9.12311664
_cell_length_b   9.11138190
_cell_length_c   23.72858703
_cell_angle_alpha   89.81337022
_cell_angle_beta   90.24458979
_cell_angle_gamma   119.85215204
_symmetry_Int_Tables_number   1
_chemical_formula_structural   Na6Ca8Ta4Si3(S5O24)3
_chemical_formula_sum   'Na6 Ca8 Ta4 Si3 S15 O72'
_cell_volume   1710.68777510
_cell_formula_units_Z   1
loop_
 _symmetry_equiv_pos_site_id
 _symmetry_equiv_pos_as_xyz
  1  'x, y, z'
loop_
 _atom_site_type_symbol
 _atom_site_label
 _atom_site_symmetry_multiplicity
 _atom_site_fract_x
 _atom_site_fract_y
 _atom_site_fract_z
 _atom_site_occupancy
  Na  Na0  1  0.97404407  0.97155822  0.48659172  1
  Na  Na1  1  0.00697266  0.03112278  0.99762779  1
  Na  Na2  1  0.66619556  0.32719602  0.82864862  1
  Na  Na3  1  0.67340045  0.33703421  0.33410699  1
  Na  Na4  1  0.33326505  0.65780681  0.17559152  1
  Na  Na5  1  0.34195462  0.67503707  0.65130532  1
  Ca  Ca6  1  0.99323533  0.99684548  0.35206393  1
  Ca  Ca7  1  0.99803383  0.00430638  0.85207826  1
  Ca  Ca8  1  0.99638284  0.99745082  0.64231177  1
  Ca  Ca9  1  0.00018553  0.00123520  0.15318308  1
  Ca  Ca10  1  0.66639787  0.33069409  0.68433933  1
  Ca  Ca11  1  0.66686343  0.33345415  0.18958974  1
  Ca  Ca12  1  0.33083031  0.66105403  0.01980908  1
  Ca  Ca13  1  0.33766245  0.67336913  0.51718113  1
  Ta  Ta14  1  0.67474620  0.33578749  0.97988169  1
  Ta  Ta15  1  0.67336435  0.33369819  0.47655531  1
  Ta  Ta16  1  0.33188268  0.67507710  0.32460382  1
  Ta  Ta17  1  0.32130700  0.65691422  0.81858363  1
  Si  Si18  1  0.03401725  0.36938387  0.92074788  1
  Si  Si19  1  0.63250167  0.96657689  0.42144837  1
  Si  Si20  1  0.03608852  0.66715985  0.42150381  1
  S  S21  1  0.29962594  0.98524230  0.25274032  1
  S  S22  1  0.68345043  0.69903680  0.25187982  1
  S  S23  1  0.01756139  0.31662633  0.25180846  1
  S  S24  1  0.30170115  0.30981483  0.75428870  1
  S  S25  1  0.00823671  0.70015993  0.75447201  1
  S  S26  1  0.68573263  0.98729057  0.75446863  1
  S  S27  1  0.95130222  0.32837719  0.58039576  1
  S  S28  1  0.37648485  0.04890913  0.58150291  1
  S  S29  1  0.66858574  0.61972125  0.58114180  1
  S  S30  1  0.94957786  0.62540026  0.08062642  1
  S  S31  1  0.67355208  0.05074934  0.08007055  1
  S  S32  1  0.37883897  0.32625460  0.07973667  1
  S  S33  1  0.61846733  0.65286671  0.91705485  1
  S  S34  1  0.34650852  0.96466690  0.91707369  1
  S  S35  1  0.34600603  0.38116632  0.41707799  1
  O  O36  1  0.21694687  0.00781126  0.30110171  1
  O  O37  1  0.79012890  0.78375699  0.30016466  1
  O  O38  1  0.99739442  0.21153218  0.30038199  1
  O  O39  1  0.22063109  0.20682820  0.80372093  1
  O  O40  1  0.98824113  0.78078196  0.80431781  1
  O  O41  1  0.79276767  0.01060040  0.80329593  1
  O  O42  1  0.75103822  0.95591799  0.70210165  1
  O  O43  1  0.20328692  0.24840487  0.70247763  1
  O  O44  1  0.03937296  0.79789091  0.70266502  1
  O  O45  1  0.75410646  0.79467366  0.19840786  1
  O  O46  1  0.03792410  0.24276471  0.19840036  1
  O  O47  1  0.20407918  0.95883971  0.19936497  1
  O  O48  1  0.86887258  0.33820986  0.63204281  1
  O  O49  1  0.46508179  0.13087358  0.63429949  1
  O  O50  1  0.66746033  0.53332421  0.63376110  1
  O  O51  1  0.86496308  0.52740631  0.13028498  1
  O  O52  1  0.66363025  0.13597845  0.12999244  1
  O  O53  1  0.47140624  0.33114233  0.13049144  1
  O  O54  1  0.48145065  0.32316680  0.02750528  1
  O  O55  1  0.83897402  0.51859428  0.02743181  1
  O  O56  1  0.67809276  0.16119807  0.02683579  1
  O  O57  1  0.47783429  0.15444904  0.53152457  1
  O  O58  1  0.67018540  0.51755393  0.53065767  1
  O  O59  1  0.84304485  0.32531221  0.52936031  1
  O  O60  1  0.55062643  0.68412299  0.96780646  1
  O  O61  1  0.14094872  0.46241964  0.97399486  1
  O  O62  1  0.32869113  0.87078263  0.96828272  1
  O  O63  1  0.55481190  0.85434063  0.47501252  1
  O  O64  1  0.31789469  0.44961913  0.46795195  1
  O  O65  1  0.13413909  0.67245880  0.47613346  1
  O  O66  1  0.14007658  0.63578266  0.36399471  1
  O  O67  1  0.49577933  0.85856293  0.36447797  1
  O  O68  1  0.37148837  0.49822515  0.36602518  1
  O  O69  1  0.14284327  0.50342845  0.86374692  1
  O  O70  1  0.37125631  0.87489625  0.86641299  1
  O  O71  1  0.50525340  0.63130408  0.86660732  1
  O  O72  1  0.00189772  0.81753254  0.40971105  1
  O  O73  1  0.82282544  0.02479978  0.40786488  1
  O  O74  1  0.21058119  0.21202958  0.40450962  1
  O  O75  1  0.99302690  0.18026219  0.91171119  1
  O  O76  1  0.20207542  0.98870062  0.90722553  1
  O  O77  1  0.79083488  0.78678046  0.90637392  1
  O  O78  1  0.95535134  0.16896420  0.57807943  1
  O  O79  1  0.20940916  0.03904201  0.57967957  1
  O  O80  1  0.82401334  0.78740194  0.57838848  1
  O  O81  1  0.95215377  0.78722532  0.07672246  1
  O  O82  1  0.83074272  0.04404939  0.07660953  1
  O  O83  1  0.21220360  0.17087953  0.07650602  1
  O  O84  1  0.65455825  0.13142515  0.75035237  1
  O  O85  1  0.47704204  0.34463242  0.75006393  1
  O  O86  1  0.87122249  0.52347493  0.75028551  1
  O  O87  1  0.65713343  0.52493107  0.24763405  1
  O  O88  1  0.87194122  0.34648812  0.24757599  1
  O  O89  1  0.47526557  0.12706407  0.24791254  1
  O  O90  1  0.62005282  0.48576161  0.92273354  1
  O  O91  1  0.84206466  0.36466018  0.92685504  1
  O  O92  1  0.50619926  0.13846625  0.92106644  1
  O  O93  1  0.62275012  0.14994454  0.42897743  1
  O  O94  1  0.51136804  0.37845547  0.42181099  1
  O  O95  1  0.84288788  0.48365869  0.42700689  1
  O  O96  1  0.36633739  0.48044282  0.07675511  1
  O  O97  1  0.11732071  0.64397716  0.07547632  1
  O  O98  1  0.52247124  0.88540787  0.07391739  1
  O  O99  1  0.35861231  0.87884035  0.58047330  1
  O  O100  1  0.51469198  0.63417140  0.58024674  1
  O  O101  1  0.12111689  0.47667086  0.57768023  1
  O  O102  1  0.31139844  0.82245493  0.26083587  1
  O  O103  1  0.51001854  0.68294733  0.25968227  1
  O  O104  1  0.17790105  0.48816160  0.25875768  1
  O  O105  1  0.31838755  0.48870919  0.76594520  1
  O  O106  1  0.17578877  0.69157362  0.76498784  1
  O  O107  1  0.51266695  0.82801314  0.76645900  1
