# generated using pymatgen
data_MgV2(PO5)2
_symmetry_space_group_name_H-M   'P 1'
_cell_length_a   5.52575824
_cell_length_b   5.47848852
_cell_length_c   6.44880374
_cell_angle_alpha   81.09472157
_cell_angle_beta   81.10570875
_cell_angle_gamma   71.88451896
_symmetry_Int_Tables_number   1
_chemical_formula_structural   MgV2(PO5)2
_chemical_formula_sum   'Mg1 V2 P2 O10'
_cell_volume   182.12739588
_cell_formula_units_Z   1
loop_
 _symmetry_equiv_pos_site_id
 _symmetry_equiv_pos_as_xyz
  1  'x, y, z'
loop_
 _atom_site_type_symbol
 _atom_site_label
 _atom_site_symmetry_multiplicity
 _atom_site_fract_x
 _atom_site_fract_y
 _atom_site_fract_z
 _atom_site_occupancy
  Mg  Mg0  1  0.49037500  0.51692200  0.50720700  1
  V  V1  1  0.15987900  0.18846500  0.29896700  1
  V  V2  1  0.82118700  0.84515700  0.71486200  1
  P  P3  1  0.21933200  0.24287100  0.77149700  1
  P  P4  1  0.76097700  0.79090900  0.24232100  1
  O  O5  1  0.34145300  0.37783300  0.29627100  1
  O  O6  1  0.64219900  0.65317500  0.71766100  1
  O  O7  1  0.08843800  0.11709300  0.63435500  1
  O  O8  1  0.89221100  0.91658800  0.37935200  1
  O  O9  1  0.15023700  0.54275000  0.70768700  1
  O  O10  1  0.51553200  0.17015600  0.70196100  1
  O  O11  1  0.83141400  0.49095700  0.30608000  1
  O  O12  1  0.46480700  0.86212000  0.31223100  1
  O  O13  1  0.82996400  0.86917000  0.01068100  1
  O  O14  1  0.14913700  0.16583300  0.00303400  1
