# generated using pymatgen
data_XeIF7
_symmetry_space_group_name_H-M   'P 1'
_cell_length_a   7.59243453
_cell_length_b   7.59240536
_cell_length_c   7.59235862
_cell_angle_alpha   120.17253080
_cell_angle_beta   120.17224600
_cell_angle_gamma   89.70163169
_symmetry_Int_Tables_number   1
_chemical_formula_structural   XeIF7
_chemical_formula_sum   'Xe2 I2 F14'
_cell_volume   308.66176717
_cell_formula_units_Z   2
loop_
 _symmetry_equiv_pos_site_id
 _symmetry_equiv_pos_as_xyz
  1  'x, y, z'
loop_
 _atom_site_type_symbol
 _atom_site_label
 _atom_site_symmetry_multiplicity
 _atom_site_fract_x
 _atom_site_fract_y
 _atom_site_fract_z
 _atom_site_occupancy
  Xe  Xe0  1  0.49998669  0.00000291  0.49998746  1
  Xe  Xe1  1  0.00002082  0.50004485  0.50007255  1
  I  I2  1  0.29200357  0.29199980  0.00002208  1
  I  I3  1  0.70800931  0.70799939  -0.00001397  1
  F  F4  1  0.74487320  0.59808422  0.34296686  1
  F  F5  1  0.40192269  0.74485786  0.14678241  1
  F  F6  1  0.59806091  0.25513364  0.85320132  1
  F  F7  1  0.25513569  0.40192388  0.65707631  1
  F  F8  1  0.87933317  0.87932625  0.00000149  1
  F  F9  1  0.12064640  0.12064537  -0.00001823  1
  F  F10  1  0.80152820  0.97724804  0.30242745  1
  F  F11  1  0.49910754  0.80151741  0.82428268  1
  F  F12  1  0.97724564  0.67481304  0.17571759  1
  F  F13  1  0.67481678  0.49910479  0.69758326  1
  F  F14  1  0.19846529  0.02272911  0.69753737  1
  F  F15  1  0.50090750  0.19848348  0.17570854  1
  F  F16  1  0.02274330  0.32518372  0.82425764  1
  F  F17  1  0.32519330  0.50090225  0.30240718  1
