# generated using pymatgen
data_Er2O3
_symmetry_space_group_name_H-M   'P 1'
_cell_length_a   3.43167153
_cell_length_b   7.10234264
_cell_length_c   8.48446669
_cell_angle_alpha   99.89320707
_cell_angle_beta   90.00002787
_cell_angle_gamma   103.97785276
_symmetry_Int_Tables_number   1
_chemical_formula_structural   Er2O3
_chemical_formula_sum   'Er6 O9'
_cell_volume   197.49749428
_cell_formula_units_Z   3
loop_
 _symmetry_equiv_pos_site_id
 _symmetry_equiv_pos_as_xyz
  1  'x, y, z'
loop_
 _atom_site_type_symbol
 _atom_site_label
 _atom_site_symmetry_multiplicity
 _atom_site_fract_x
 _atom_site_fract_y
 _atom_site_fract_z
 _atom_site_occupancy
  Er  Er0  1  0.53295106  0.06572679  0.81342034  1
  Er  Er1  1  0.46704894  0.93427321  0.18657966  1
  Er  Er2  1  0.80903089  0.61808198  0.86270294  1
  Er  Er3  1  0.19096911  0.38191802  0.13729706  1
  Er  Er4  1  0.86495239  0.72991472  0.51269673  1
  Er  Er5  1  0.13504761  0.27008528  0.48730327  1
  O  O6  1  0.70618439  0.41238860  0.62354018  1
  O  O7  1  0.29381561  0.58761140  0.37645982  1
  O  O8  1  0.97049527  0.94118203  0.34332549  1
  O  O9  1  0.02950473  0.05881897  0.65667451  1
  O  O10  1  0.67457634  0.34916369  0.96931590  1
  O  O11  1  0.32542366  0.65083631  0.03068410  1
  O  O12  1  0.00000000  0.00000000  -0.00000000  1
  O  O13  1  0.37238146  0.74488342  0.71811652  1
  O  O14  1  0.62761854  0.25511658  0.28188348  1
