# generated using pymatgen
data_Na7MgSbO6
_symmetry_space_group_name_H-M   'P 1'
_cell_length_a   6.53440283
_cell_length_b   6.53485453
_cell_length_c   7.26201977
_cell_angle_alpha   63.27342449
_cell_angle_beta   116.75874400
_cell_angle_gamma   120.02297814
_symmetry_Int_Tables_number   1
_chemical_formula_structural   Na7MgSbO6
_chemical_formula_sum   'Na7 Mg1 Sb1 O6'
_cell_volume   229.41136515
_cell_formula_units_Z   1
loop_
 _symmetry_equiv_pos_site_id
 _symmetry_equiv_pos_as_xyz
  1  'x, y, z'
loop_
 _atom_site_type_symbol
 _atom_site_label
 _atom_site_symmetry_multiplicity
 _atom_site_fract_x
 _atom_site_fract_y
 _atom_site_fract_z
 _atom_site_occupancy
  Na  Na0  1  0.93757358  0.83268244  0.66205254  1
  Na  Na1  1  0.49945419  0.86690255  0.35976300  1
  Na  Na2  1  0.72715259  0.50038686  0.35997559  1
  Na  Na3  1  0.32226848  0.67767920  0.96664281  1
  Na  Na4  1  0.55717406  0.06251271  0.66216918  1
  Na  Na5  1  0.16740937  0.44255756  0.66224429  1
  Na  Na6  1  0.13314304  0.27295318  0.35970925  1
  Mg  Mg7  1  0.61523989  0.38525213  0.84501941  1
  Sb  Sb8  1  0.02990089  0.96966264  0.09047492  1
  O  O9  1  0.81412605  0.91767638  0.25424187  1
  O  O10  1  0.56992761  0.69472706  0.75292839  1
  O  O11  1  0.87795691  0.43035663  0.75305910  1
  O  O12  1  0.08188674  0.64191508  0.25425823  1
  O  O13  1  0.35798118  0.18560185  0.25455074  1
  O  O14  1  0.30547243  0.12246374  0.75290967  1
