# generated using pymatgen
data_Na3MgZnP(SO6)2
_symmetry_space_group_name_H-M   'P 1'
_cell_length_a   8.92520140
_cell_length_b   8.93360615
_cell_length_c   22.21822998
_cell_angle_alpha   90.04468382
_cell_angle_beta   90.08032716
_cell_angle_gamma   119.95475597
_symmetry_Int_Tables_number   1
_chemical_formula_structural   Na3MgZnP(SO6)2
_chemical_formula_sum   'Na18 Mg6 Zn6 P6 S12 O72'
_cell_volume   1534.90561511
_cell_formula_units_Z   6
loop_
 _symmetry_equiv_pos_site_id
 _symmetry_equiv_pos_as_xyz
  1  'x, y, z'
loop_
 _atom_site_type_symbol
 _atom_site_label
 _atom_site_symmetry_multiplicity
 _atom_site_fract_x
 _atom_site_fract_y
 _atom_site_fract_z
 _atom_site_occupancy
  Na  Na0  1  0.62827527  0.99962736  0.25386873  1
  Na  Na1  1  0.00849586  0.64489633  0.24489279  1
  Na  Na2  1  0.63503776  0.64341353  0.74554547  1
  Na  Na3  1  0.37055182  0.99862935  0.75382218  1
  Na  Na4  1  0.31101546  0.34108093  0.58407931  1
  Na  Na5  1  0.66499091  0.95917673  0.58305735  1
  Na  Na6  1  0.29377991  0.95954362  0.08368230  1
  Na  Na7  1  0.03000410  0.34088876  0.08403515  1
  Na  Na8  1  0.97363810  0.67081428  0.92182695  1
  Na  Na9  1  0.69317759  0.03074428  0.91122243  1
  Na  Na10  1  0.33907247  0.03004061  0.41106297  1
  Na  Na11  1  0.69545219  0.67034959  0.42249795  1
  Na  Na12  1  0.98516697  0.99183545  0.49986804  1
  Na  Na13  1  0.00572740  0.99194083  0.99916357  1
  Na  Na14  1  0.66228997  0.32079855  0.83408351  1
  Na  Na15  1  0.65780820  0.31992032  0.33406278  1
  Na  Na16  1  0.33841981  0.66172224  0.16593239  1
  Na  Na17  1  0.32217775  0.66064218  0.66661813  1
  Mg  Mg18  1  0.00422177  0.00868815  0.34905285  1
  Mg  Mg19  1  0.98803282  0.98812664  0.65023809  1
  Mg  Mg20  1  0.00018569  0.98803270  0.15049539  1
  Mg  Mg21  1  0.67622935  0.33568351  0.68281206  1
  Mg  Mg22  1  0.65935952  0.33576569  0.18325179  1
  Mg  Mg23  1  0.33633297  0.67300470  0.31727455  1
  Zn  Zn24  1  0.00670244  0.01114966  0.84635675  1
  Zn  Zn25  1  0.65649087  0.33640471  0.98695992  1
  Zn  Zn26  1  0.67982052  0.33597200  0.48640089  1
  Zn  Zn27  1  0.32520803  0.67084244  0.01351708  1
  Zn  Zn28  1  0.34521939  0.67064631  0.51301538  1
  Zn  Zn29  1  0.34095249  0.67875322  0.81999224  1
  P  P30  1  0.29952941  0.00163825  0.25062295  1
  P  P31  1  0.70292454  0.00230008  0.75074256  1
  P  P32  1  0.66790399  0.62802365  0.58258010  1
  P  P33  1  0.96011969  0.62822133  0.08293079  1
  P  P34  1  0.33331801  0.97199027  0.91688130  1
  P  P35  1  0.63650547  0.96982128  0.41682021  1
  S  S36  1  0.70432476  0.70437399  0.25147507  1
  S  S37  1  0.00189050  0.29611533  0.24824654  1
  S  S38  1  0.29650375  0.29688751  0.74753269  1
  S  S39  1  0.99874635  0.70203351  0.75087697  1
  S  S40  1  0.96567494  0.33450306  0.58412151  1
  S  S41  1  0.36652929  0.03675149  0.58411841  1
  S  S42  1  0.67022955  0.03684202  0.08422467  1
  S  S43  1  0.36869725  0.33455615  0.08422991  1
  S  S44  1  0.62636323  0.66320014  0.91616624  1
  S  S45  1  0.03997655  0.36975674  0.91688707  1
  S  S46  1  0.32845451  0.36941636  0.41658003  1
  S  S47  1  0.03845601  0.66526868  0.41532141  1
  O  O48  1  0.21350015  0.01939303  0.30814976  1
  O  O49  1  0.80841298  0.78297794  0.30671287  1
  O  O50  1  0.97385312  0.18320965  0.30032331  1
  O  O51  1  0.21831050  0.18715993  0.80109512  1
  O  O52  1  0.97171078  0.77533587  0.80743472  1
  O  O53  1  0.80387803  0.02077809  0.80967867  1
  O  O54  1  0.79002599  0.97584969  0.69526285  1
  O  O55  1  0.19644804  0.21354916  0.69243226  1
  O  O56  1  0.02777972  0.81880394  0.69962644  1
  O  O57  1  0.78717724  0.81862159  0.19914493  1
  O  O58  1  0.01979017  0.21728403  0.19216857  1
  O  O59  1  0.18705287  0.97425623  0.19430701  1
  O  O60  1  0.88116648  0.35339964  0.63733619  1
  O  O61  1  0.47855705  0.12220804  0.63708392  1
  O  O62  1  0.64354239  0.51597744  0.63830365  1
  O  O63  1  0.87277596  0.51625169  0.13875887  1
  O  O64  1  0.64383087  0.12235537  0.13712891  1
  O  O65  1  0.47251127  0.35372081  0.13748663  1
  O  O66  1  0.44080316  0.29966209  0.02956541  1
  O  O67  1  0.86051364  0.54389418  0.02401873  1
  O  O68  1  0.69667670  0.13960100  0.02851295  1
  O  O69  1  0.44278890  0.13970912  0.52846639  1
  O  O70  1  0.68373010  0.54404937  0.52363755  1
  O  O71  1  0.85870953  0.29967841  0.52937378  1
  O  O72  1  0.53680396  0.68360557  0.96852497  1
  O  O73  1  0.13453964  0.44370514  0.97411122  1
  O  O74  1  0.30155596  0.85803682  0.97369766  1
  O  O75  1  0.55753416  0.85874035  0.47468162  1
  O  O76  1  0.30609585  0.43986268  0.47435402  1
  O  O77  1  0.14583663  0.68788714  0.46894291  1
  O  O78  1  0.11789550  0.64609657  0.35988162  1
  O  O79  1  0.51985288  0.88180466  0.36135995  1
  O  O80  1  0.34756750  0.48227192  0.36585654  1
  O  O81  1  0.12977823  0.47961067  0.86478082  1
  O  O82  1  0.36534379  0.89033704  0.85993625  1
  O  O83  1  0.53161686  0.64242962  0.85912223  1
  O  O84  1  0.02297627  0.82594157  0.41214734  1
  O  O85  1  0.81483051  0.98147430  0.40988446  1
  O  O86  1  0.17852416  0.19134856  0.41077418  1
  O  O87  1  0.01267640  0.19148772  0.91266118  1
  O  O88  1  0.16452430  0.98085738  0.91026129  1
  O  O89  1  0.80141487  0.82445393  0.91440450  1
  O  O90  1  0.98909671  0.17878893  0.58958518  1
  O  O91  1  0.19505938  0.02500507  0.59111227  1
  O  O92  1  0.82520582  0.81424154  0.58676175  1
  O  O93  1  0.98855163  0.81420156  0.08690230  1
  O  O94  1  0.82988277  0.02496525  0.09130164  1
  O  O95  1  0.18964288  0.17896929  0.08959010  1
  O  O96  1  0.67277532  0.15848027  0.74531069  1
  O  O97  1  0.47446719  0.31742653  0.74371389  1
  O  O98  1  0.83955970  0.53188648  0.74312255  1
  O  O99  1  0.69417719  0.53438560  0.24428772  1
  O  O100  1  0.84381754  0.31584030  0.24504543  1
  O  O101  1  0.48602082  0.15878094  0.24531811  1
  O  O102  1  0.65458617  0.51292992  0.92045915  1
  O  O103  1  0.86480861  0.35557903  0.91874675  1
  O  O104  1  0.50254219  0.14914669  0.92341475  1
  O  O105  1  0.64418318  0.14763833  0.42270257  1
  O  O106  1  0.48980911  0.35601288  0.41821116  1
  O  O107  1  0.86014512  0.51469637  0.41918714  1
  O  O108  1  0.34902753  0.48994340  0.07863943  1
  O  O109  1  0.14562360  0.64470946  0.08092323  1
  O  O110  1  0.51307808  0.86303144  0.07984301  1
  O  O111  1  0.34975088  0.86290027  0.57985178  1
  O  O112  1  0.49881511  0.64426234  0.58054051  1
  O  O113  1  0.14075812  0.48984745  0.57855638  1
  O  O114  1  0.31589165  0.83344706  0.25384416  1
  O  O115  1  0.52920366  0.68443995  0.25664648  1
  O  O116  1  0.15522011  0.47124222  0.25504100  1
  O  O117  1  0.31619678  0.47125362  0.75315486  1
  O  O118  1  0.15544555  0.68405450  0.75462971  1
  O  O119  1  0.51845928  0.83278081  0.75311664  1
