# generated using pymatgen
data_Ag2PdCl4
_symmetry_space_group_name_H-M   'P 1'
_cell_length_a   6.45885217
_cell_length_b   6.45885268
_cell_length_c   8.10102674
_cell_angle_alpha   90.00000000
_cell_angle_beta   90.00000000
_cell_angle_gamma   101.59431106
_symmetry_Int_Tables_number   1
_chemical_formula_structural   Ag2PdCl4
_chemical_formula_sum   'Ag4 Pd2 Cl8'
_cell_volume   331.05293421
_cell_formula_units_Z   2
loop_
 _symmetry_equiv_pos_site_id
 _symmetry_equiv_pos_as_xyz
  1  'x, y, z'
loop_
 _atom_site_type_symbol
 _atom_site_label
 _atom_site_symmetry_multiplicity
 _atom_site_fract_x
 _atom_site_fract_y
 _atom_site_fract_z
 _atom_site_occupancy
  Ag  Ag0  1  0.52925359  0.02925359  0.75000000  1
  Ag  Ag1  1  0.97074641  0.47074641  0.25000000  1
  Ag  Ag2  1  0.02925359  0.52925359  0.75000000  1
  Ag  Ag3  1  0.47074641  0.97074641  0.25000000  1
  Pd  Pd4  1  -0.00000000  -0.00000000  0.00000000  1
  Pd  Pd5  1  0.50000000  0.50000000  0.50000000  1
  Cl  Cl6  1  0.19509428  0.19509428  0.79251906  1
  Cl  Cl7  1  0.30490572  0.30490572  0.29251906  1
  Cl  Cl8  1  0.69509428  0.69509428  0.70748094  1
  Cl  Cl9  1  0.80490572  0.80490572  0.20748094  1
  Cl  Cl10  1  0.26835289  0.73164711  0.50000000  1
  Cl  Cl11  1  0.23164711  0.76835289  0.00000000  1
  Cl  Cl12  1  0.76835289  0.23164711  0.00000000  1
  Cl  Cl13  1  0.73164711  0.26835289  0.50000000  1
