# generated using pymatgen
data_Na6ZnSi6Sn7(SO8)6
_symmetry_space_group_name_H-M   'P 1'
_cell_length_a   17.76041160
_cell_length_b   8.86165827
_cell_length_c   22.99178660
_cell_angle_alpha   89.92655190
_cell_angle_beta   90.16509875
_cell_angle_gamma   119.92148845
_symmetry_Int_Tables_number   1
_chemical_formula_structural   Na6ZnSi6Sn7(SO8)6
_chemical_formula_sum   'Na18 Zn3 Si18 Sn21 S18 O144'
_cell_volume   3136.26396814
_cell_formula_units_Z   3
loop_
 _symmetry_equiv_pos_site_id
 _symmetry_equiv_pos_as_xyz
  1  'x, y, z'
loop_
 _atom_site_type_symbol
 _atom_site_label
 _atom_site_symmetry_multiplicity
 _atom_site_fract_x
 _atom_site_fract_y
 _atom_site_fract_z
 _atom_site_occupancy
  Na  Na0  1  0.68646438  0.37596487  0.25225470  1
  Na  Na1  1  0.99687823  0.64253126  0.25267605  1
  Na  Na2  1  0.99721954  0.35693806  0.75147191  1
  Na  Na3  1  0.49472208  0.36139589  0.74790140  1
  Na  Na4  1  0.19098472  0.01448730  0.75276766  1
  Na  Na5  1  0.68470184  0.00592008  0.74984295  1
  Na  Na6  1  0.99799387  0.99804290  0.49230103  1
  Na  Na7  1  0.50587399  0.00324586  0.49727899  1
  Na  Na8  1  0.00870502  0.01420972  0.99839626  1
  Na  Na9  1  0.50164252  0.99087456  0.99828866  1
  Na  Na10  1  0.33077726  0.33365371  0.82725384  1
  Na  Na11  1  0.82985671  0.32542100  0.83095233  1
  Na  Na12  1  0.33325768  0.33331240  0.33230977  1
  Na  Na13  1  0.83385482  0.33386226  0.33753037  1
  Na  Na14  1  0.16942058  0.66604514  0.16603329  1
  Na  Na15  1  0.66382338  0.66572977  0.17035490  1
  Na  Na16  1  0.17419395  0.66555479  0.66885772  1
  Na  Na17  1  0.66946622  0.66634263  0.66828690  1
  Zn  Zn18  1  0.33366638  0.33824740  0.69277273  1
  Zn  Zn19  1  0.82587853  0.32326084  0.68750363  1
  Zn  Zn20  1  0.83548739  0.34204584  0.18669217  1
  Si  Si21  1  0.14859757  0.00264539  0.25189155  1
  Si  Si22  1  0.85403048  0.71285276  0.24839101  1
  Si  Si23  1  0.49808555  0.28935094  0.24980807  1
  Si  Si24  1  0.14787372  0.29618620  0.74866118  1
  Si  Si25  1  0.64954733  0.29727248  0.75018206  1
  Si  Si26  1  0.49683317  0.70454118  0.74946758  1
  Si  Si27  1  0.35365649  0.99430271  0.75116973  1
  Si  Si28  1  0.85658384  0.00051386  0.75022967  1
  Si  Si29  1  0.47716335  0.62208503  0.08378320  1
  Si  Si30  1  0.18480069  0.33471342  0.08530031  1
  Si  Si31  1  0.02066149  0.37668566  0.91583113  1
  Si  Si32  1  0.16781468  0.95886464  0.91741193  1
  Si  Si33  1  0.66331732  0.95933197  0.91578145  1
  Si  Si34  1  0.81276539  0.95542541  0.41555466  1
  Si  Si35  1  0.16617358  0.37370994  0.41540073  1
  Si  Si36  1  0.66538795  0.37440302  0.41769848  1
  Si  Si37  1  0.02130264  0.66708220  0.41791582  1
  Si  Si38  1  0.52144112  0.66820118  0.41507529  1
  Sn  Sn39  1  0.00072957  0.98953702  0.35659708  1
  Sn  Sn40  1  0.50480428  0.00995173  0.35515708  1
  Sn  Sn41  1  0.00835824  0.02212397  0.85489375  1
  Sn  Sn42  1  0.50448033  0.99759077  0.84782979  1
  Sn  Sn43  1  0.99736841  0.00465869  0.64981844  1
  Sn  Sn44  1  0.50035838  0.00225145  0.65407301  1
  Sn  Sn45  1  0.00556456  0.99969812  0.15139039  1
  Sn  Sn46  1  0.49870988  0.99589058  0.14854417  1
  Sn  Sn47  1  0.33288212  0.33412379  0.18643944  1
  Sn  Sn48  1  0.32571956  0.33128081  0.98387882  1
  Sn  Sn49  1  0.83463800  0.32430033  0.97785234  1
  Sn  Sn50  1  0.33530234  0.34678219  0.47872644  1
  Sn  Sn51  1  0.83239295  0.33115946  0.47530026  1
  Sn  Sn52  1  0.16223722  0.65592129  0.01696572  1
  Sn  Sn53  1  0.66010541  0.67179405  0.01913292  1
  Sn  Sn54  1  0.16217110  0.65673562  0.51505339  1
  Sn  Sn55  1  0.66664606  0.67016852  0.51040486  1
  Sn  Sn56  1  0.16373159  0.66396831  0.31752865  1
  Sn  Sn57  1  0.66779378  0.66133332  0.31688927  1
  Sn  Sn58  1  0.16984163  0.66779642  0.81646630  1
  Sn  Sn59  1  0.66973465  0.67716877  0.81099027  1
  S  S60  1  0.64683432  0.99806844  0.24886332  1
  S  S61  1  0.35375086  0.70991897  0.25160610  1
  S  S62  1  0.99932469  0.29060122  0.24984897  1
  S  S63  1  0.99799114  0.70922744  0.75019189  1
  S  S64  1  0.47975801  0.33381028  0.58355511  1
  S  S65  1  0.97906458  0.33442933  0.58448979  1
  S  S66  1  0.18721645  0.03896747  0.58373008  1
  S  S67  1  0.68591525  0.03822493  0.58355822  1
  S  S68  1  0.33329839  0.62933582  0.58417074  1
  S  S69  1  0.83362211  0.62512953  0.58444035  1
  S  S70  1  0.97743299  0.62277781  0.08337147  1
  S  S71  1  0.33304428  0.03894719  0.08271340  1
  S  S72  1  0.83397604  0.04195530  0.08507847  1
  S  S73  1  0.68859872  0.33552993  0.08227282  1
  S  S74  1  0.31559762  0.66966522  0.91762016  1
  S  S75  1  0.81110229  0.66640485  0.91837178  1
  S  S76  1  0.51953817  0.37252725  0.91716683  1
  S  S77  1  0.31290496  0.95934234  0.41800767  1
  O  O78  1  0.10431551  0.03721536  0.30722634  1
  O  O79  1  0.60776887  0.03274259  0.30069188  1
  O  O80  1  0.40814359  0.79030860  0.30331734  1
  O  O81  1  0.91854704  0.79327600  0.30393167  1
  O  O82  1  0.48023755  0.16078512  0.30562289  1
  O  O83  1  0.98620884  0.18734903  0.30213700  1
  O  O84  1  0.10746645  0.16734564  0.80469334  1
  O  O85  1  0.60917102  0.17484159  0.80754210  1
  O  O86  1  0.47966277  0.78224946  0.80842188  1
  O  O87  1  0.98444530  0.78709476  0.80243648  1
  O  O88  1  0.41591975  0.03959460  0.80917613  1
  O  O89  1  0.91706962  0.03337423  0.80764061  1
  O  O90  1  0.39122467  0.95427002  0.69141872  1
  O  O91  1  0.89216450  0.95472316  0.69081531  1
  O  O92  1  0.08350258  0.21520230  0.69095697  1
  O  O93  1  0.58597730  0.22318565  0.69209360  1
  O  O94  1  0.01762140  0.82107629  0.69656130  1
  O  O95  1  0.52620606  0.83311999  0.69174082  1
  O  O96  1  0.39099831  0.81490812  0.19735854  1
  O  O97  1  0.89571207  0.83121178  0.18886707  1
  O  O98  1  0.01548286  0.21830075  0.19605939  1
  O  O99  1  0.52160057  0.20416780  0.19195026  1
  O  O100  1  0.08664976  0.94546752  0.19322412  1
  O  O101  1  0.59183385  0.96756160  0.19567680  1
  O  O102  1  0.44033769  0.35881878  0.63557170  1
  O  O103  1  0.94157725  0.36053833  0.63767895  1
  O  O104  1  0.23825622  0.11524847  0.63623427  1
  O  O105  1  0.73734302  0.11367144  0.63674729  1
  O  O106  1  0.31792442  0.52103236  0.63495609  1
  O  O107  1  0.82249270  0.52156495  0.63687290  1
  O  O108  1  0.43654196  0.50547529  0.14138618  1
  O  O109  1  0.93970108  0.51712841  0.13594768  1
  O  O110  1  0.31816771  0.11322707  0.13557284  1
  O  O111  1  0.81844450  0.12202261  0.13606746  1
  O  O112  1  0.24632116  0.37073663  0.14189046  1
  O  O113  1  0.73874801  0.36156851  0.13578631  1
  O  O114  1  0.22221588  0.29215735  0.02665361  1
  O  O115  1  0.72917454  0.30711772  0.02979033  1
  O  O116  1  0.42131894  0.54106201  0.02370904  1
  O  O117  1  0.92244914  0.54071491  0.03038109  1
  O  O118  1  0.35038447  0.14685394  0.02996140  1
  O  O119  1  0.84732077  0.14727645  0.03087964  1
  O  O120  1  0.22629438  0.14664427  0.53033422  1
  O  O121  1  0.72666003  0.14852006  0.53159797  1
  O  O122  1  0.34742387  0.55242305  0.53013464  1
  O  O123  1  0.84826279  0.54820873  0.53125847  1
  O  O124  1  0.42391234  0.30206974  0.53006051  1
  O  O125  1  0.92630924  0.30854433  0.53197029  1
  O  O126  1  0.27623277  0.69736615  0.97025037  1
  O  O127  1  0.77105321  0.69408229  0.97169105  1
  O  O128  1  0.07893212  0.45284377  0.97392345  1
  O  O129  1  0.57632675  0.45031399  0.96990833  1
  O  O130  1  0.15342348  0.84211808  0.97606405  1
  O  O131  1  0.64910465  0.84302331  0.97389128  1
  O  O132  1  0.27500738  0.85240702  0.47115769  1
  O  O133  1  0.77667656  0.84430387  0.47653737  1
  O  O134  1  0.15172148  0.45483237  0.47572624  1
  O  O135  1  0.64540781  0.44918532  0.47694460  1
  O  O136  1  0.08296356  0.71129658  0.47585056  1
  O  O137  1  0.57569450  0.70924620  0.47619830  1
  O  O138  1  0.05770302  0.62674187  0.35747765  1
  O  O139  1  0.56115940  0.63199191  0.35712028  1
  O  O140  1  0.26030082  0.88663463  0.36463538  1
  O  O141  1  0.75116055  0.87915882  0.35800963  1
  O  O142  1  0.19086536  0.50274973  0.35837803  1
  O  O143  1  0.68457336  0.47904465  0.35633841  1
  O  O144  1  0.06018995  0.48941240  0.85585254  1
  O  O145  1  0.55927624  0.47968293  0.86433611  1
  O  O146  1  0.18490485  0.88026472  0.85732488  1
  O  O147  1  0.68444202  0.87768271  0.85860380  1
  O  O148  1  0.26158082  0.63502901  0.86461321  1
  O  O149  1  0.75654778  0.63128748  0.86567840  1
  O  O150  1  0.01349916  0.83914925  0.41544594  1
  O  O151  1  0.50456643  0.83432014  0.40838944  1
  O  O152  1  0.39861115  0.97297220  0.41213518  1
  O  O153  1  0.90883558  0.97989704  0.40980852  1
  O  O154  1  0.07945353  0.18888454  0.40999446  1
  O  O155  1  0.57821910  0.18180569  0.41404133  1
  O  O156  1  0.00671636  0.18073159  0.91492109  1
  O  O157  1  0.51040687  0.19784068  0.91284557  1
  O  O158  1  0.07720157  0.96586734  0.91205183  1
  O  O159  1  0.57616104  0.97786698  0.91312132  1
  O  O160  1  0.40112849  0.82900643  0.91252433  1
  O  O161  1  0.89757758  0.82017201  0.91212623  1
  O  O162  1  0.48838724  0.17264766  0.58634901  1
  O  O163  1  0.98916351  0.17506595  0.58660237  1
  O  O164  1  0.09704134  0.01669829  0.58792985  1
  O  O165  1  0.59739330  0.02242008  0.58710678  1
  O  O166  1  0.41281408  0.80595055  0.58714360  1
  O  O167  1  0.91582674  0.80451840  0.58832209  1
  O  O168  1  0.48984383  0.82240611  0.09020397  1
  O  O169  1  0.98482091  0.79709802  0.08619123  1
  O  O170  1  0.41256711  0.02144456  0.08847453  1
  O  O171  1  0.91233455  0.02520138  0.08892417  1
  O  O172  1  0.08619337  0.16010431  0.09065585  1
  O  O173  1  0.60013347  0.17817637  0.08610115  1
  O  O174  1  0.34412966  0.16459693  0.74438373  1
  O  O175  1  0.85045566  0.17695380  0.74408789  1
  O  O176  1  0.23860738  0.30383644  0.74254374  1
  O  O177  1  0.74211501  0.30860855  0.74431413  1
  O  O178  1  0.41791137  0.51117829  0.74414456  1
  O  O179  1  0.92339885  0.53468203  0.74246968  1
  O  O180  1  0.34603702  0.53737262  0.24618104  1
  O  O181  1  0.84368252  0.51663255  0.24237187  1
  O  O182  1  0.41228145  0.30750616  0.24354852  1
  O  O183  1  0.92300621  0.31470054  0.24259749  1
  O  O184  1  0.24355284  0.17380966  0.24404350  1
  O  O185  1  0.73188875  0.15837494  0.24174972  1
  O  O186  1  0.32420044  0.51138765  0.92192717  1
  O  O187  1  0.81922077  0.50779514  0.92558304  1
  O  O188  1  0.43401426  0.36064544  0.92423706  1
  O  O189  1  0.92601612  0.36688504  0.92160406  1
  O  O190  1  0.25724561  0.15356538  0.92256691  1
  O  O191  1  0.75001648  0.15224093  0.92321277  1
  O  O192  1  0.32107898  0.13315175  0.42512166  1
  O  O193  1  0.82074638  0.14577666  0.42329223  1
  O  O194  1  0.25245577  0.35176681  0.42306767  1
  O  O195  1  0.75122811  0.35579215  0.42376306  1
  O  O196  1  0.42623649  0.48961263  0.42249430  1
  O  O197  1  0.92775793  0.49294477  0.42450783  1
  O  O198  1  0.17915233  0.51614440  0.07913983  1
  O  O199  1  0.68062387  0.49549817  0.07429236  1
  O  O200  1  0.06557249  0.64278122  0.07804073  1
  O  O201  1  0.57524533  0.64121800  0.08014324  1
  O  O202  1  0.25514383  0.86382539  0.07642273  1
  O  O203  1  0.75519593  0.86390769  0.07767169  1
  O  O204  1  0.17909472  0.86116379  0.57704454  1
  O  O205  1  0.67684586  0.86081888  0.57801704  1
  O  O206  1  0.25380870  0.65040568  0.57662084  1
  O  O207  1  0.75540606  0.64639618  0.57906493  1
  O  O208  1  0.06890150  0.49329335  0.57993485  1
  O  O209  1  0.56778208  0.49228051  0.57709810  1
  O  O210  1  0.15522866  0.81902872  0.25666666  1
  O  O211  1  0.65364723  0.84110429  0.25392008  1
  O  O212  1  0.26671587  0.69521015  0.25589904  1
  O  O213  1  0.75599797  0.68650572  0.25239891  1
  O  O214  1  0.07914618  0.47010565  0.25345322  1
  O  O215  1  0.58777294  0.47719642  0.25420610  1
  O  O216  1  0.14757873  0.48083913  0.75555572  1
  O  O217  1  0.64995868  0.48071957  0.75883103  1
  O  O218  1  0.07928145  0.69610747  0.75422008  1
  O  O219  1  0.58633706  0.69170744  0.75519756  1
  O  O220  1  0.25407720  0.82489538  0.75548598  1
  O  O221  1  0.75904780  0.83233440  0.75366511  1
