# generated using pymatgen
data_SbXe2F9
_symmetry_space_group_name_H-M   'P 1'
_cell_length_a   8.29966046
_cell_length_b   8.29966046
_cell_length_c   9.98218084
_cell_angle_alpha   55.61964450
_cell_angle_beta   55.61964450
_cell_angle_gamma   58.52328560
_symmetry_Int_Tables_number   1
_chemical_formula_structural   SbXe2F9
_chemical_formula_sum   'Sb2 Xe4 F18'
_cell_volume   447.01203725
_cell_formula_units_Z   2
loop_
 _symmetry_equiv_pos_site_id
 _symmetry_equiv_pos_as_xyz
  1  'x, y, z'
loop_
 _atom_site_type_symbol
 _atom_site_label
 _atom_site_symmetry_multiplicity
 _atom_site_fract_x
 _atom_site_fract_y
 _atom_site_fract_z
 _atom_site_occupancy
  Sb  Sb0  1  0.96857973  0.22114301  0.80701046  1
  Sb  Sb1  1  0.22114301  0.96857973  0.30701046  1
  Xe  Xe2  1  0.50767181  0.33844077  0.33360275  1
  Xe  Xe3  1  0.33844077  0.50767181  0.83360275  1
  Xe  Xe4  1  0.69310471  0.89152306  0.75709934  1
  Xe  Xe5  1  0.89152306  0.69310471  0.25709934  1
  F  F6  1  0.78096355  0.09981934  0.87219321  1
  F  F7  1  0.09981934  0.78096355  0.37219321  1
  F  F8  1  0.76713409  0.48032247  0.76539293  1
  F  F9  1  0.48032247  0.76713409  0.26539293  1
  F  F10  1  0.06909299  0.26181320  0.56968331  1
  F  F11  1  0.26181320  0.06909299  0.06968331  1
  F  F12  1  0.68920043  0.83985030  0.41925457  1
  F  F13  1  0.83985030  0.68920043  0.91925457  1
  F  F14  1  0.10574225  0.51537336  0.09050147  1
  F  F15  1  0.51537336  0.10574225  0.59050147  1
  F  F16  1  0.54778484  0.47240174  0.60839348  1
  F  F17  1  0.47240174  0.54778484  0.10839348  1
  F  F18  1  0.34987544  0.14785033  0.24322480  1
  F  F19  1  0.14785033  0.34987544  0.74322480  1
  F  F20  1  0.18025969  0.86324251  0.54565999  1
  F  F21  1  0.86324251  0.18025969  0.04565999  1
  F  F22  1  0.95799850  0.16401187  0.35218369  1
  F  F23  1  0.16401187  0.95799850  0.85218369  1
