# generated using pymatgen
data_Sc2SiGe2S5O24
_symmetry_space_group_name_H-M   'P 1'
_cell_length_a   8.62991401
_cell_length_b   8.65637915
_cell_length_c   22.30936466
_cell_angle_alpha   89.68250271
_cell_angle_beta   90.01808883
_cell_angle_gamma   120.14914385
_symmetry_Int_Tables_number   1
_chemical_formula_structural   Sc2SiGe2S5O24
_chemical_formula_sum   'Sc6 Si3 Ge6 S15 O72'
_cell_volume   1441.11116624
_cell_formula_units_Z   3
loop_
 _symmetry_equiv_pos_site_id
 _symmetry_equiv_pos_as_xyz
  1  'x, y, z'
loop_
 _atom_site_type_symbol
 _atom_site_label
 _atom_site_symmetry_multiplicity
 _atom_site_fract_x
 _atom_site_fract_y
 _atom_site_fract_z
 _atom_site_occupancy
  Sc  Sc0  1  0.98922606  0.00124427  0.36260205  1
  Sc  Sc1  1  0.00385523  0.00317305  0.85928136  1
  Sc  Sc2  1  0.68207488  0.33787582  0.68392006  1
  Sc  Sc3  1  0.65600451  0.33531233  0.18495642  1
  Sc  Sc4  1  0.65283970  0.32936919  0.98390042  1
  Sc  Sc5  1  0.32963279  0.66334866  0.80720669  1
  Si  Si6  1  0.96936962  0.33771172  0.58143932  1
  Si  Si7  1  0.36137029  0.33356017  0.08399034  1
  Si  Si8  1  0.60349688  0.95036735  0.41895921  1
  Ge  Ge9  1  0.99948514  0.00799269  0.64200865  1
  Ge  Ge10  1  0.00579756  0.00431883  0.14715038  1
  Ge  Ge11  1  0.67564902  0.31411408  0.47896078  1
  Ge  Ge12  1  0.33328048  0.66063403  0.02254118  1
  Ge  Ge13  1  0.33653997  0.66316924  0.52128021  1
  Ge  Ge14  1  0.33649181  0.67495224  0.31516789  1
  S  S15  1  0.28186557  0.98585352  0.25148668  1
  S  S16  1  0.70786085  0.71739906  0.25026682  1
  S  S17  1  0.01204184  0.30041219  0.25161281  1
  S  S18  1  0.28560772  0.28254923  0.74737437  1
  S  S19  1  0.99909117  0.72235429  0.74704499  1
  S  S20  1  0.71787760  -0.00115606  0.74810876  1
  S  S21  1  0.37010735  0.03837296  0.58229471  1
  S  S22  1  0.66951100  0.62744925  0.58133962  1
  S  S23  1  0.96833471  0.63632085  0.08375179  1
  S  S24  1  0.66689354  0.03093691  0.08391559  1
  S  S25  1  0.61610617  0.66698879  0.91799338  1
  S  S26  1  0.04661834  0.38366587  0.91865753  1
  S  S27  1  0.33554135  0.94625345  0.91893586  1
  S  S28  1  0.34800499  0.38903233  0.41843241  1
  S  S29  1  0.04343236  0.65553282  0.41779772  1
  O  O30  1  0.20119804  0.01557496  0.30402925  1
  O  O31  1  0.81921694  0.80205345  0.30254469  1
  O  O32  1  0.98222699  0.18835301  0.30454350  1
  O  O33  1  0.20346405  0.17525606  0.80208697  1
  O  O34  1  0.97680982  0.80548899  0.80132222  1
  O  O35  1  0.82671326  0.02637271  0.80207386  1
  O  O36  1  0.79867728  0.96523427  0.69337569  1
  O  O37  1  0.16904156  0.19987657  0.69316728  1
  O  O38  1  0.03157543  0.83583205  0.69151249  1
  O  O39  1  0.78819402  0.83299545  0.19415663  1
  O  O40  1  0.04866600  0.22133461  0.19688332  1
  O  O41  1  0.16798880  0.95327919  0.19590042  1
  O  O42  1  0.88659473  0.37853106  0.63953419  1
  O  O43  1  0.48082996  0.11814842  0.63551847  1
  O  O44  1  0.63294772  0.51588331  0.63514599  1
  O  O45  1  0.89368214  0.51960533  0.13656482  1
  O  O46  1  0.63462489  0.11041768  0.13696014  1
  O  O47  1  0.49079261  0.37249949  0.14092777  1
  O  O48  1  0.44649533  0.29135463  0.02636055  1
  O  O49  1  0.85799540  0.55816779  0.03012444  1
  O  O50  1  0.70917421  0.14598881  0.03055323  1
  O  O51  1  0.44634985  0.15878309  0.52852087  1
  O  O52  1  0.70286877  0.54845209  0.52741110  1
  O  O53  1  0.83313469  0.29427957  0.52403372  1
  O  O54  1  0.53466977  0.70112107  0.97230883  1
  O  O55  1  0.16308832  0.46695330  0.97268999  1
  O  O56  1  0.30277270  0.83220233  0.97427340  1
  O  O57  1  0.51421281  0.82289423  0.47783566  1
  O  O58  1  0.30323903  0.46256750  0.47135343  1
  O  O59  1  0.15627729  0.68685959  0.47087917  1
  O  O60  1  0.11503672  0.61134475  0.36248980  1
  O  O61  1  0.47993151  0.86295708  0.35759248  1
  O  O62  1  0.38022612  0.50094266  0.36255697  1
  O  O63  1  0.12901674  0.49093439  0.86396701  1
  O  O64  1  0.35741526  0.86269458  0.86477635  1
  O  O65  1  0.50736953  0.63964126  0.86398769  1
  O  O66  1  0.03205159  0.81629522  0.40879086  1
  O  O67  1  0.79762417  0.97050999  0.41164773  1
  O  O68  1  0.19326890  0.21074147  0.40997012  1
  O  O69  1  0.03417690  0.20794191  0.91301815  1
  O  O70  1  0.17473673  0.96364005  0.91396303  1
  O  O71  1  0.79333325  0.82914256  0.91208211  1
  O  O72  1  0.98546254  0.15732707  0.59205117  1
  O  O73  1  0.18688593  0.01441403  0.59047044  1
  O  O74  1  0.83333804  0.80767626  0.58994859  1
  O  O75  1  0.97956920  0.81232308  0.09400330  1
  O  O76  1  0.82165052  0.00177515  0.09388481  1
  O  O77  1  0.16492264  0.15395812  0.09631931  1
  O  O78  1  0.69750105  0.15528336  0.74101875  1
  O  O79  1  0.46116330  0.30104308  0.73952970  1
  O  O80  1  0.83731892  0.54775139  0.74167545  1
  O  O81  1  0.69317316  0.54286545  0.24259056  1
  O  O82  1  0.85772223  0.32303463  0.24162377  1
  O  O83  1  0.46277968  0.13801138  0.24222360  1
  O  O84  1  0.63687725  0.51084065  0.92547540  1
  O  O85  1  0.87100413  0.36493358  0.92669146  1
  O  O86  1  0.49724317  0.12050908  0.92497755  1
  O  O87  1  0.61708748  0.14561936  0.42578587  1
  O  O88  1  0.51406352  0.38164371  0.42768401  1
  O  O89  1  0.85963863  0.49855250  0.42522565  1
  O  O90  1  0.34234168  0.51011857  0.07240003  1
  O  O91  1  0.15320742  0.66741057  0.07411317  1
  O  O92  1  0.50197620  0.85420584  0.07389016  1
  O  O93  1  0.35140421  0.86106728  0.57362390  1
  O  O94  1  0.51033303  0.64968968  0.57460828  1
  O  O95  1  0.16632829  0.51335478  0.56874480  1
  O  O96  1  0.29041783  0.81581578  0.25638234  1
  O  O97  1  0.52548249  0.69731508  0.25617853  1
  O  O98  1  0.18047803  0.48111504  0.25943855  1
  O  O99  1  0.29856512  0.45845946  0.75324009  1
  O  O100  1  0.15974527  0.70462055  0.75228905  1
  O  O101  1  0.54060074  0.83700985  0.75409930  1
