# generated using pymatgen
data_Na3CaYP2SO12
_symmetry_space_group_name_H-M   'P 1'
_cell_length_a   9.39021643
_cell_length_b   9.37370478
_cell_length_c   23.38529047
_cell_angle_alpha   89.64926547
_cell_angle_beta   90.00000000
_cell_angle_gamma   120.05828665
_symmetry_Int_Tables_number   1
_chemical_formula_structural   Na3CaYP2SO12
_chemical_formula_sum   'Na18 Ca6 Y6 P12 S6 O72'
_cell_volume   1781.53367460
_cell_formula_units_Z   6
loop_
 _symmetry_equiv_pos_site_id
 _symmetry_equiv_pos_as_xyz
  1  'x, y, z'
loop_
 _atom_site_type_symbol
 _atom_site_label
 _atom_site_symmetry_multiplicity
 _atom_site_fract_x
 _atom_site_fract_y
 _atom_site_fract_z
 _atom_site_occupancy
  Na  Na0  1  0.35539114  0.34895608  0.24456726  1
  Na  Na1  1  0.00265160  0.63478777  0.24285682  1
  Na  Na2  1  0.63213617  0.63478777  0.74285682  1
  Na  Na3  1  0.99356495  0.34895608  0.74456726  1
  Na  Na4  1  0.02205814  0.68228908  0.57790026  1
  Na  Na5  1  0.66931860  0.96812077  0.57618982  1
  Na  Na6  1  0.29880317  0.96812077  0.07618982  1
  Na  Na7  1  0.66023195  0.68228908  0.07790026  1
  Na  Na8  1  0.68872414  0.01562308  0.91123426  1
  Na  Na9  1  0.33598460  0.30145477  0.90952382  1
  Na  Na10  1  0.96546917  0.30145477  0.40952382  1
  Na  Na11  1  0.32689795  0.01562308  0.41123426  1
  Na  Na12  1  0.97188499  0.97858774  0.49451457  1
  Na  Na13  1  0.00670275  0.97858774  0.99451457  1
  Na  Na14  1  0.63855199  0.31192074  0.82784757  1
  Na  Na15  1  0.67336975  0.31192074  0.32784757  1
  Na  Na16  1  0.30521799  0.64525474  0.16118157  1
  Na  Na17  1  0.34003575  0.64525474  0.66118157  1
  Ca  Ca18  1  0.98633359  0.99237258  0.34920242  1
  Ca  Ca19  1  0.00603899  0.99237258  0.84920242  1
  Ca  Ca20  1  0.65300059  0.32570558  0.68253542  1
  Ca  Ca21  1  0.67270599  0.32570558  0.18253542  1
  Ca  Ca22  1  0.31966659  0.65903958  0.01586942  1
  Ca  Ca23  1  0.33937199  0.65903958  0.51586942  1
  Y  Y24  1  0.00850887  0.01544738  0.65101283  1
  Y  Y25  1  0.00693851  0.01544738  0.15101283  1
  Y  Y26  1  0.67517587  0.34878038  0.98434583  1
  Y  Y27  1  0.67360551  0.34878038  0.48434583  1
  Y  Y28  1  0.34184187  0.68211438  0.31767983  1
  Y  Y29  1  0.34027151  0.68211438  0.81767983  1
  P  P30  1  0.29778234  0.00063281  0.25198918  1
  P  P31  1  0.00709069  0.31045771  0.25522582  1
  P  P32  1  0.30336702  0.31045771  0.75522582  1
  P  P33  1  0.70285047  0.00063281  0.75198918  1
  P  P34  1  0.96444934  0.33396581  0.58532218  1
  P  P35  1  0.67375769  0.64379071  0.58855882  1
  P  P36  1  0.97003402  0.64379071  0.08855882  1
  P  P37  1  0.36951747  0.33396581  0.08532218  1
  P  P38  1  0.63111534  0.66729981  0.91865618  1
  P  P39  1  0.34042369  0.97712471  0.92189282  1
  P  P40  1  0.63670002  0.97712471  0.42189282  1
  P  P41  1  0.03618347  0.66729981  0.41865618  1
  S  S42  1  0.69569018  0.69543589  0.24751506  1
  S  S43  1  0.99974571  0.69543589  0.74751506  1
  S  S44  1  0.36235718  0.02876889  0.58084806  1
  S  S45  1  0.66641271  0.02876889  0.08084806  1
  S  S46  1  0.02902318  0.36210289  0.91418206  1
  S  S47  1  0.33307871  0.36210289  0.41418206  1
  O  O48  1  0.21398782  0.01540544  0.30642839  1
  O  O49  1  0.79727683  0.78150954  0.29732875  1
  O  O50  1  0.99146964  0.21946107  0.31158446  1
  O  O51  1  0.22799143  0.21946107  0.81158446  1
  O  O52  1  0.98423271  0.78150954  0.79732875  1
  O  O53  1  0.80141762  0.01540544  0.80642839  1
  O  O54  1  0.79180570  0.97952613  0.69854613  1
  O  O55  1  0.19230062  0.21195531  0.70373717  1
  O  O56  1  0.02046210  0.79155219  0.69409566  1
  O  O57  1  0.77109009  0.79155219  0.19409566  1
  O  O58  1  0.01965469  0.21195531  0.20373717  1
  O  O59  1  0.18772043  0.97952613  0.19854613  1
  O  O60  1  0.88065482  0.34873844  0.63976139  1
  O  O61  1  0.46394383  0.11484254  0.63066175  1
  O  O62  1  0.65813664  0.55279407  0.64491746  1
  O  O63  1  0.89465843  0.55279407  0.14491746  1
  O  O64  1  0.65089971  0.11484254  0.13066175  1
  O  O65  1  0.46808462  0.34873844  0.13976139  1
  O  O66  1  0.45847270  0.31285913  0.03187913  1
  O  O67  1  0.85896762  0.54528831  0.03707017  1
  O  O68  1  0.68712910  0.12488519  0.02742866  1
  O  O69  1  0.43775709  0.12488519  0.52742866  1
  O  O70  1  0.68632169  0.54528831  0.53707017  1
  O  O71  1  0.85438743  0.31285913  0.53187913  1
  O  O72  1  0.54732082  0.68207244  0.97309539  1
  O  O73  1  0.13060983  0.44817654  0.96399575  1
  O  O74  1  0.32480264  0.88612807  0.97825146  1
  O  O75  1  0.56132443  0.88612807  0.47825146  1
  O  O76  1  0.31756571  0.44817654  0.46399575  1
  O  O77  1  0.13475062  0.68207244  0.47309539  1
  O  O78  1  0.12513870  0.64619313  0.36521313  1
  O  O79  1  0.52563362  0.87862231  0.37040417  1
  O  O80  1  0.35379510  0.45821919  0.36076266  1
  O  O81  1  0.10442309  0.45821919  0.86076266  1
  O  O82  1  0.35298769  0.87862231  0.87040417  1
  O  O83  1  0.52105343  0.64619313  0.86521313  1
  O  O84  1  0.02346052  0.82509835  0.41373944  1
  O  O85  1  0.81568639  0.01152183  0.41654118  1
  O  O86  1  0.18257599  0.19609752  0.41217271  1
  O  O87  1  0.01352153  0.19609752  0.91217271  1
  O  O88  1  0.19583544  0.01152183  0.91654118  1
  O  O89  1  0.80163782  0.82509835  0.91373944  1
  O  O90  1  0.97580585  0.17268981  0.58669750  1
  O  O91  1  0.19206097  0.00381530  0.58573090  1
  O  O92  1  0.84021330  0.81468955  0.58651375  1
  O  O93  1  0.97447625  0.81468955  0.08651375  1
  O  O94  1  0.81175433  0.00381530  0.08573090  1
  O  O95  1  0.19688396  0.17268981  0.08669750  1
  O  O96  1  0.69012752  0.15843135  0.74707244  1
  O  O97  1  0.48235339  0.34485483  0.74987418  1
  O  O98  1  0.84924299  0.52943052  0.74550571  1
  O  O99  1  0.68018853  0.52943052  0.24550571  1
  O  O100  1  0.86250244  0.34485483  0.24987418  1
  O  O101  1  0.46830482  0.15843135  0.24707244  1
  O  O102  1  0.64247285  0.50602281  0.92003050  1
  O  O103  1  0.85872797  0.33714830  0.91906390  1
  O  O104  1  0.50688030  0.14802255  0.91984675  1
  O  O105  1  0.64114325  0.14802255  0.41984675  1
  O  O106  1  0.47842133  0.33714830  0.41906390  1
  O  O107  1  0.86355096  0.50602281  0.42003050  1
  O  O108  1  0.35679352  0.49176535  0.08040644  1
  O  O109  1  0.14901939  0.67818883  0.08320818  1
  O  O110  1  0.51590899  0.86276452  0.07883971  1
  O  O111  1  0.34685453  0.86276452  0.57883971  1
  O  O112  1  0.52916844  0.67818883  0.58320818  1
  O  O113  1  0.13497082  0.49176535  0.58040644  1
  O  O114  1  0.30913885  0.83935681  0.25336450  1
  O  O115  1  0.52539397  0.67048230  0.25239790  1
  O  O116  1  0.17354630  0.48135655  0.25318075  1
  O  O117  1  0.30780925  0.48135655  0.75318075  1
  O  O118  1  0.14508733  0.67048230  0.75239790  1
  O  O119  1  0.53021696  0.83935681  0.75336450  1
