# generated using pymatgen
data_Mg4Ta2(SO4)9
_symmetry_space_group_name_H-M   'P 1'
_cell_length_a   8.69020292
_cell_length_b   8.69020265
_cell_length_c   22.33755893
_cell_angle_alpha   90.00000000
_cell_angle_beta   90.00000000
_cell_angle_gamma   120.00000103
_symmetry_Int_Tables_number   1
_chemical_formula_structural   Mg4Ta2(SO4)9
_chemical_formula_sum   'Mg8 Ta4 S18 O72'
_cell_volume   1460.91907610
_cell_formula_units_Z   2
loop_
 _symmetry_equiv_pos_site_id
 _symmetry_equiv_pos_as_xyz
  1  'x, y, z'
loop_
 _atom_site_type_symbol
 _atom_site_label
 _atom_site_symmetry_multiplicity
 _atom_site_fract_x
 _atom_site_fract_y
 _atom_site_fract_z
 _atom_site_occupancy
  Mg  Mg0  1  -0.00000000  0.00000000  0.35252078  1
  Mg  Mg1  1  -0.00000000  0.00000000  0.85252078  1
  Mg  Mg2  1  -0.00000000  0.00000000  0.64574969  1
  Mg  Mg3  1  -0.00000000  0.00000000  0.14574969  1
  Mg  Mg4  1  0.66666700  0.33333300  0.68732659  1
  Mg  Mg5  1  0.66666700  0.33333300  0.18732659  1
  Mg  Mg6  1  0.33333300  0.66666700  0.02193041  1
  Mg  Mg7  1  0.33333300  0.66666700  0.52193041  1
  Ta  Ta8  1  0.66666700  0.33333300  0.98174755  1
  Ta  Ta9  1  0.66666700  0.33333300  0.48174755  1
  Ta  Ta10  1  0.33333300  0.66666700  0.30835365  1
  Ta  Ta11  1  0.33333300  0.66666700  0.80835365  1
  S  S12  1  0.28957660  0.00795405  0.24965473  1
  S  S13  1  0.71837744  0.71042340  0.24965473  1
  S  S14  1  0.99204595  0.28162256  0.24965473  1
  S  S15  1  0.28957660  0.28162256  0.74965473  1
  S  S16  1  0.99204596  0.71042340  0.74965473  1
  S  S17  1  0.71837744  0.00795405  0.74965473  1
  S  S18  1  0.96227607  0.33433292  0.58603741  1
  S  S19  1  0.37205785  0.03772393  0.58603741  1
  S  S20  1  0.66566708  0.62794215  0.58603741  1
  S  S21  1  0.96227607  0.62794215  0.08603741  1
  S  S22  1  0.66566708  0.03772393  0.08603741  1
  S  S23  1  0.37205785  0.33433292  0.08603741  1
  S  S24  1  0.62564062  0.67174770  0.91783314  1
  S  S25  1  0.04610608  0.37435938  0.91783314  1
  S  S26  1  0.32825230  0.95389392  0.91783314  1
  S  S27  1  0.62564062  0.95389392  0.41783314  1
  S  S28  1  0.32825230  0.37435938  0.41783314  1
  S  S29  1  0.04610608  0.67174770  0.41783314  1
  O  O30  1  0.20972770  0.02854545  0.30426049  1
  O  O31  1  0.81881774  0.79027230  0.30426049  1
  O  O32  1  0.97145455  0.18118226  0.30426049  1
  O  O33  1  0.20972770  0.18118226  0.80426049  1
  O  O34  1  0.97145455  0.79027230  0.80426049  1
  O  O35  1  0.81881774  0.02854545  0.80426049  1
  O  O36  1  0.78515855  0.96301733  0.69690162  1
  O  O37  1  0.17785878  0.21484145  0.69690162  1
  O  O38  1  0.03698267  0.82214122  0.69690162  1
  O  O39  1  0.78515855  0.82214122  0.19690162  1
  O  O40  1  0.03698267  0.21484145  0.19690162  1
  O  O41  1  0.17785878  0.96301733  0.19690162  1
  O  O42  1  0.87385714  0.36484573  0.63611439  1
  O  O43  1  0.49098959  0.12614286  0.63611439  1
  O  O44  1  0.63515427  0.50901041  0.63611439  1
  O  O45  1  0.87385714  0.50901041  0.13611439  1
  O  O46  1  0.63515427  0.12614286  0.13611439  1
  O  O47  1  0.49098959  0.36484573  0.13611439  1
  O  O48  1  0.46620853  0.30436801  0.02878276  1
  O  O49  1  0.83816048  0.53379147  0.02878276  1
  O  O50  1  0.69563199  0.16183952  0.02878276  1
  O  O51  1  0.46620853  0.16183952  0.52878276  1
  O  O52  1  0.69563199  0.53379147  0.52878276  1
  O  O53  1  0.83816048  0.30436801  0.52878276  1
  O  O54  1  0.54041295  0.69546214  0.96999065  1
  O  O55  1  0.15504819  0.45958705  0.96999065  1
  O  O56  1  0.30453786  0.84495181  0.96999065  1
  O  O57  1  0.54041295  0.84495181  0.46999065  1
  O  O58  1  0.30453786  0.45958705  0.46999065  1
  O  O59  1  0.15504819  0.69546214  0.46999065  1
  O  O60  1  0.12727950  0.63402966  0.36297256  1
  O  O61  1  0.50674916  0.87272050  0.36297256  1
  O  O62  1  0.36597034  0.49325084  0.36297256  1
  O  O63  1  0.12727950  0.49325084  0.86297256  1
  O  O64  1  0.36597034  0.87272050  0.86297256  1
  O  O65  1  0.50674916  0.63402966  0.86297256  1
  O  O66  1  0.02215535  0.82225269  0.40735959  1
  O  O67  1  0.80009735  0.97784465  0.40735959  1
  O  O68  1  0.17774731  0.19990265  0.40735959  1
  O  O69  1  0.02215535  0.19990265  0.90735959  1
  O  O70  1  0.17774731  0.97784465  0.90735959  1
  O  O71  1  0.80009735  0.82225269  0.90735959  1
  O  O72  1  0.97162597  0.17346013  0.58995722  1
  O  O73  1  0.20183416  0.02837403  0.58995722  1
  O  O74  1  0.82653987  0.79816584  0.58995722  1
  O  O75  1  0.97162597  0.79816584  0.08995722  1
  O  O76  1  0.82653987  0.02837403  0.08995722  1
  O  O77  1  0.20183416  0.17346013  0.08995722  1
  O  O78  1  0.68568714  0.15506153  0.74200576  1
  O  O79  1  0.46937540  0.31431286  0.74200576  1
  O  O80  1  0.84493847  0.53062460  0.74200576  1
  O  O81  1  0.68568714  0.53062460  0.24200576  1
  O  O82  1  0.84493847  0.31431286  0.24200576  1
  O  O83  1  0.46937540  0.15506153  0.24200576  1
  O  O84  1  0.63968567  0.50512838  0.92486617  1
  O  O85  1  0.86544371  0.36031433  0.92486617  1
  O  O86  1  0.49487162  0.13455629  0.92486617  1
  O  O87  1  0.63968567  0.13455629  0.42486617  1
  O  O88  1  0.49487162  0.36031433  0.42486617  1
  O  O89  1  0.86544371  0.50512838  0.42486617  1
  O  O90  1  0.36026221  0.49189930  0.07333999  1
  O  O91  1  0.13163609  0.63973779  0.07333999  1
  O  O92  1  0.50810070  0.86836391  0.07333999  1
  O  O93  1  0.36026221  0.86836391  0.57333999  1
  O  O94  1  0.50810070  0.63973779  0.57333999  1
  O  O95  1  0.13163609  0.49189930  0.57333999  1
  O  O96  1  0.30915411  0.83836573  0.26071396  1
  O  O97  1  0.52921062  0.69084589  0.26071396  1
  O  O98  1  0.16163427  0.47078938  0.26071396  1
  O  O99  1  0.30915411  0.47078938  0.76071396  1
  O  O100  1  0.16163427  0.69084589  0.76071396  1
  O  O101  1  0.52921062  0.83836573  0.76071396  1
