# generated using pymatgen
data_Na15Nb11Zn(SiO4)18
_symmetry_space_group_name_H-M   'P 1'
_cell_length_a   9.07568166
_cell_length_b   9.07711314
_cell_length_c   22.56714355
_cell_angle_alpha   90.18290201
_cell_angle_beta   89.83239720
_cell_angle_gamma   120.16865256
_symmetry_Int_Tables_number   1
_chemical_formula_structural   Na15Nb11Zn(SiO4)18
_chemical_formula_sum   'Na15 Nb11 Zn1 Si18 O72'
_cell_volume   1607.27774441
_cell_formula_units_Z   1
loop_
 _symmetry_equiv_pos_site_id
 _symmetry_equiv_pos_as_xyz
  1  'x, y, z'
loop_
 _atom_site_type_symbol
 _atom_site_label
 _atom_site_symmetry_multiplicity
 _atom_site_fract_x
 _atom_site_fract_y
 _atom_site_fract_z
 _atom_site_occupancy
  Na  Na0  1  0.36651016  0.36567870  0.25128314  1
  Na  Na1  1  0.63163754  0.61153726  0.74257540  1
  Na  Na2  1  0.97893685  0.36900589  0.74279772  1
  Na  Na3  1  0.39088942  0.02081567  0.74243730  1
  Na  Na4  1  0.31171765  0.33679215  0.58374947  1
  Na  Na5  1  0.02444440  0.68734315  0.58381472  1
  Na  Na6  1  0.66261587  0.97502378  0.58375289  1
  Na  Na7  1  0.30049689  0.96748226  0.08486569  1
  Na  Na8  1  0.70110569  0.03532566  0.91790543  1
  Na  Na9  1  0.00064739  0.00032606  0.49329250  1
  Na  Na10  1  0.00055319  0.00073538  0.00198798  1
  Na  Na11  1  0.66549880  0.34038615  0.82813506  1
  Na  Na12  1  0.67593968  0.33196323  0.33470471  1
  Na  Na13  1  0.33410871  0.66719626  0.16853377  1
  Na  Na14  1  0.33350782  0.66700372  0.66506870  1
  Nb  Nb15  1  0.99913314  0.99984902  0.35512704  1
  Nb  Nb16  1  0.00487220  0.99970654  0.85693611  1
  Nb  Nb17  1  0.99971418  0.99983032  0.64591426  1
  Nb  Nb18  1  0.99413891  0.99894813  0.14517782  1
  Nb  Nb19  1  0.67121310  0.33402395  0.18913140  1
  Nb  Nb20  1  0.66743451  0.33836617  0.97810616  1
  Nb  Nb21  1  0.66577630  0.33333470  0.47752351  1
  Nb  Nb22  1  0.33246398  0.66151647  0.02304394  1
  Nb  Nb23  1  0.33285742  0.66638729  0.51625586  1
  Nb  Nb24  1  0.33309507  0.67188228  0.31153320  1
  Nb  Nb25  1  0.33302698  0.66556813  0.81365048  1
  Zn  Zn26  1  0.66702651  0.33385000  0.68203213  1
  Si  Si27  1  0.28619781  0.99710498  0.24867548  1
  Si  Si28  1  0.71155820  0.71123928  0.25069031  1
  Si  Si29  1  0.99776289  0.28725345  0.25079819  1
  Si  Si30  1  0.28921110  0.29161487  0.75084053  1
  Si  Si31  1  0.00220566  0.71102372  0.75091337  1
  Si  Si32  1  0.70978331  0.99821204  0.75253602  1
  Si  Si33  1  0.95686841  0.33534888  0.58527829  1
  Si  Si34  1  0.37830923  0.04237646  0.58553332  1
  Si  Si35  1  0.66342978  0.62158423  0.58542883  1
  Si  Si36  1  0.95490930  0.62222251  0.08343951  1
  Si  Si37  1  0.66976160  0.04714649  0.08188618  1
  Si  Si38  1  0.37947880  0.33495570  0.08484450  1
  Si  Si39  1  0.62106599  0.66359483  0.91684622  1
  Si  Si40  1  0.04341368  0.37796904  0.91697469  1
  Si  Si41  1  0.33139084  0.95476164  0.91876855  1
  Si  Si42  1  0.62607076  0.95933142  0.41592974  1
  Si  Si43  1  0.33431481  0.37572580  0.41428993  1
  Si  Si44  1  0.04116886  0.66666746  0.41565842  1
  O  O45  1  0.19243065  0.03048413  0.30516828  1
  O  O46  1  0.83167731  0.80628772  0.30791317  1
  O  O47  1  0.97348116  0.16803166  0.30822023  1
  O  O48  1  0.18191496  0.16896145  0.80682783  1
  O  O49  1  0.98406899  0.81675393  0.80690834  1
  O  O50  1  0.82637859  0.01441261  0.81007713  1
  O  O51  1  0.80312442  0.96916470  0.69272019  1
  O  O52  1  0.16873549  0.20007819  0.69090924  1
  O  O53  1  0.03186106  0.83215740  0.69113951  1
  O  O54  1  0.80854514  0.83163995  0.19250339  1
  O  O55  1  0.02981877  0.19305256  0.19318333  1
  O  O56  1  0.17366235  0.97375179  0.18868865  1
  O  O57  1  0.89518826  0.38460392  0.64537400  1
  O  O58  1  0.48962706  0.10538807  0.64533850  1
  O  O59  1  0.61486495  0.51053073  0.64522882  1
  O  O60  1  0.85829737  0.50200733  0.14087983  1
  O  O61  1  0.63660010  0.14213608  0.13843689  1
  O  O62  1  0.49230531  0.35957967  0.14422281  1
  O  O63  1  0.47631857  0.30439465  0.02775907  1
  O  O64  1  0.83544426  0.52484943  0.02544333  1
  O  O65  1  0.69313075  0.15927156  0.02198789  1
  O  O66  1  0.47195339  0.17206465  0.52955967  1
  O  O67  1  0.70011175  0.52803865  0.52947625  1
  O  O68  1  0.82720184  0.29982470  0.52951391  1
  O  O69  1  0.52499909  0.69659714  0.97259565  1
  O  O70  1  0.16640730  0.47735719  0.97335452  1
  O  O71  1  0.30824699  0.83942708  0.97699644  1
  O  O72  1  0.53178822  0.84408769  0.47575526  1
  O  O73  1  0.31261254  0.47171541  0.47388852  1
  O  O74  1  0.15714432  0.68853025  0.47537619  1
  O  O75  1  0.14162270  0.64190005  0.35940070  1
  O  O76  1  0.50189695  0.85739659  0.35964020  1
  O  O77  1  0.35799468  0.49296058  0.35631881  1
  O  O78  1  0.13611923  0.49419436  0.85723579  1
  O  O79  1  0.36094344  0.86077031  0.85977963  1
  O  O80  1  0.50440311  0.63981658  0.85701810  1
  O  O81  1  0.02697771  0.83768271  0.41041596  1
  O  O82  1  0.81216324  0.97505560  0.41135173  1
  O  O83  1  0.16354115  0.18784295  0.41097994  1
  O  O84  1  0.01794919  0.18616865  0.91220834  1
  O  O85  1  0.16364017  0.97529904  0.91180618  1
  O  O86  1  0.80594708  0.83946910  0.91166887  1
  O  O87  1  0.97456478  0.16111612  0.58884113  1
  O  O88  1  0.18634231  0.02465979  0.58883874  1
  O  O89  1  0.83827934  0.81376408  0.58885683  1
  O  O90  1  0.98136443  0.81436542  0.08774109  1
  O  O91  1  0.83763324  0.02654385  0.08904274  1
  O  O92  1  0.19320232  0.15939237  0.08824519  1
  O  O93  1  0.69149911  0.16416975  0.75109610  1
  O  O94  1  0.47269414  0.30858918  0.75036352  1
  O  O95  1  0.83514612  0.52700592  0.75007910  1
  O  O96  1  0.68566870  0.51877588  0.24477747  1
  O  O97  1  0.82880313  0.30611752  0.24367183  1
  O  O98  1  0.47359353  0.17274447  0.24378312  1
  O  O99  1  0.63878471  0.49471288  0.92253207  1
  O  O100  1  0.85226426  0.35295719  0.92156829  1
  O  O101  1  0.50753206  0.13984385  0.92204443  1
  O  O102  1  0.63959197  0.14504079  0.42325851  1
  O  O103  1  0.50549478  0.36052322  0.42370884  1
  O  O104  1  0.85496270  0.49446682  0.42349497  1
  O  O105  1  0.36000907  0.50388978  0.07677346  1
  O  O106  1  0.14725392  0.64725433  0.07824666  1
  O  O107  1  0.49351366  0.86004717  0.07747833  1
  O  O108  1  0.34431545  0.84697938  0.57490150  1
  O  O109  1  0.50197549  0.65506741  0.57469866  1
  O  O110  1  0.15291486  0.49718150  0.57456907  1
  O  O111  1  0.30751609  0.82898539  0.25541509  1
  O  O112  1  0.51907872  0.68518990  0.25492768  1
  O  O113  1  0.17378582  0.47296466  0.25537606  1
  O  O114  1  0.29631758  0.47703839  0.75416970  1
  O  O115  1  0.18098345  0.70494695  0.75498172  1
  O  O116  1  0.52281223  0.81921707  0.75457751  1
