# generated using pymatgen
data_Ba4Mg(Fe2O5)2
_symmetry_space_group_name_H-M   'P 1'
_cell_length_a   5.77710236
_cell_length_b   5.75346475
_cell_length_c   9.51692550
_cell_angle_alpha   94.98256245
_cell_angle_beta   107.16886873
_cell_angle_gamma   89.49921099
_symmetry_Int_Tables_number   1
_chemical_formula_structural   Ba4Mg(Fe2O5)2
_chemical_formula_sum   'Ba4 Mg1 Fe4 O10'
_cell_volume   301.04153927
_cell_formula_units_Z   1
loop_
 _symmetry_equiv_pos_site_id
 _symmetry_equiv_pos_as_xyz
  1  'x, y, z'
loop_
 _atom_site_type_symbol
 _atom_site_label
 _atom_site_symmetry_multiplicity
 _atom_site_fract_x
 _atom_site_fract_y
 _atom_site_fract_z
 _atom_site_occupancy
  Ba  Ba0  1  0.60202292  0.09924493  0.23212094  1
  Ba  Ba1  1  0.36317126  0.86607694  0.75784178  1
  Ba  Ba2  1  0.14010460  0.65863183  0.31019842  1
  Ba  Ba3  1  0.80095859  0.27406044  0.66637745  1
  Mg  Mg4  1  0.96563766  0.59104295  0.94749557  1
  Fe  Fe5  1  0.01101689  0.08493508  0.04239933  1
  Fe  Fe6  1  0.49622438  0.53364783  0.01191470  1
  Fe  Fe7  1  0.21364527  0.20434733  0.46904797  1
  Fe  Fe8  1  0.75821196  0.75505996  0.53204212  1
  O  O9  1  0.20674595  0.30393963  0.96584483  1
  O  O10  1  0.25692396  0.79714655  0.04558912  1
  O  O11  1  0.74142871  0.30721496  0.96460779  1
  O  O12  1  0.76903773  0.80002942  0.04653615  1
  O  O13  1  0.11143859  0.16455775  0.24999018  1
  O  O14  1  0.86610601  0.72980823  0.74360562  1
  O  O15  1  0.71650198  0.49539198  0.39706721  1
  O  O16  1  0.32659231  0.42854212  0.62637049  1
  O  O17  1  0.98775393  0.95943815  0.49849232  1
  O  O18  1  0.48406129  0.94688491  0.49245704  1
