# generated using pymatgen
data_Na5Al3H14
_symmetry_space_group_name_H-M   'P 1'
_cell_length_a   6.67364466
_cell_length_b   6.67364466
_cell_length_c   10.20552098
_cell_angle_alpha   90.00000000
_cell_angle_beta   90.00000000
_cell_angle_gamma   90.00000000
_symmetry_Int_Tables_number   1
_chemical_formula_structural   Na5Al3H14
_chemical_formula_sum   'Na10 Al6 H28'
_cell_volume   454.52872792
_cell_formula_units_Z   2
loop_
 _symmetry_equiv_pos_site_id
 _symmetry_equiv_pos_as_xyz
  1  'x, y, z'
loop_
 _atom_site_type_symbol
 _atom_site_label
 _atom_site_symmetry_multiplicity
 _atom_site_fract_x
 _atom_site_fract_y
 _atom_site_fract_z
 _atom_site_occupancy
  Na  Na0  1  -0.00000000  -0.00000000  0.50000000  1
  Na  Na1  1  0.50000000  0.50000000  0.00000000  1
  Na  Na2  1  0.28734710  0.78734710  0.25000000  1
  Na  Na3  1  0.21265290  0.28734710  0.25000000  1
  Na  Na4  1  0.78734710  0.71265290  0.25000000  1
  Na  Na5  1  0.71265290  0.21265290  0.25000000  1
  Na  Na6  1  0.28734710  0.78734710  0.75000000  1
  Na  Na7  1  0.21265290  0.28734710  0.75000000  1
  Na  Na8  1  0.78734710  0.71265290  0.75000000  1
  Na  Na9  1  0.71265290  0.21265290  0.75000000  1
  Al  Al10  1  -0.00000000  -0.00000000  0.00000000  1
  Al  Al11  1  0.50000000  0.50000000  0.50000000  1
  Al  Al12  1  -0.00000000  0.50000000  0.00000000  1
  Al  Al13  1  0.50000000  -0.00000000  0.00000000  1
  Al  Al14  1  0.50000000  -0.00000000  0.50000000  1
  Al  Al15  1  -0.00000000  0.50000000  0.50000000  1
  H  H16  1  0.54379796  0.82005069  0.11751370  1
  H  H17  1  0.45620204  0.17994931  0.11751370  1
  H  H18  1  0.32005069  0.04379796  0.38248630  1
  H  H19  1  0.82005069  0.45620204  0.11751370  1
  H  H20  1  0.17994931  0.54379796  0.11751370  1
  H  H21  1  0.95620204  0.32005069  0.38248630  1
  H  H22  1  0.04379796  0.67994931  0.38248630  1
  H  H23  1  0.67994931  0.95620204  0.38248630  1
  H  H24  1  0.45620204  0.17994931  0.88248630  1
  H  H25  1  0.54379796  0.82005069  0.88248630  1
  H  H26  1  0.67994931  0.95620204  0.61751370  1
  H  H27  1  0.17994931  0.54379796  0.88248630  1
  H  H28  1  0.82005069  0.45620204  0.88248630  1
  H  H29  1  0.04379796  0.67994931  0.61751370  1
  H  H30  1  0.95620204  0.32005069  0.61751370  1
  H  H31  1  0.32005069  0.04379796  0.61751370  1
  H  H32  1  -0.00000000  -0.00000000  0.17050483  1
  H  H33  1  0.50000000  0.50000000  0.32949517  1
  H  H34  1  -0.00000000  -0.00000000  0.82949517  1
  H  H35  1  0.50000000  0.50000000  0.67050483  1
  H  H36  1  0.75237337  0.07512173  0.00000000  1
  H  H37  1  0.92487827  0.75237337  0.00000000  1
  H  H38  1  0.07512173  0.24762663  0.00000000  1
  H  H39  1  0.25237337  0.42487827  0.50000000  1
  H  H40  1  0.74762663  0.57512173  0.50000000  1
  H  H41  1  0.24762663  0.92487827  0.00000000  1
  H  H42  1  0.57512173  0.25237337  0.50000000  1
  H  H43  1  0.42487827  0.74762663  0.50000000  1
