# generated using pymatgen
data_MgCu2GeS4
_symmetry_space_group_name_H-M   'P 1'
_cell_length_a   5.90865241
_cell_length_b   5.32695631
_cell_length_c   6.60037982
_cell_angle_alpha   113.79930114
_cell_angle_beta   116.58976567
_cell_angle_gamma   89.99998623
_symmetry_Int_Tables_number   1
_chemical_formula_structural   MgCu2GeS4
_chemical_formula_sum   'Mg1 Cu2 Ge1 S4'
_cell_volume   165.78421590
_cell_formula_units_Z   1
loop_
 _symmetry_equiv_pos_site_id
 _symmetry_equiv_pos_as_xyz
  1  'x, y, z'
loop_
 _atom_site_type_symbol
 _atom_site_label
 _atom_site_symmetry_multiplicity
 _atom_site_fract_x
 _atom_site_fract_y
 _atom_site_fract_z
 _atom_site_occupancy
  Mg  Mg0  1  0.00000000  0.50000000  0.00000000  1
  Cu  Cu1  1  0.74582800  0.24582800  0.49165700  1
  Cu  Cu2  1  0.25417200  0.75417200  0.50834300  1
  Ge  Ge3  1  0.50000000  0.50000000  0.00000000  1
  S  S4  1  0.85634900  0.86253700  0.25371700  1
  S  S5  1  0.60263400  0.13746300  0.74628300  1
  S  S6  1  0.39736700  0.39117800  0.25371700  1
  S  S7  1  0.14365100  0.60882200  0.74628300  1
