# generated using pymatgen
data_MgMn4Zn2O8
_symmetry_space_group_name_H-M   'P 1'
_cell_length_a   6.05162418
_cell_length_b   6.24682257
_cell_length_c   6.09449180
_cell_angle_alpha   63.62224962
_cell_angle_beta   57.99318149
_cell_angle_gamma   63.85299202
_symmetry_Int_Tables_number   1
_chemical_formula_structural   MgMn4Zn2O8
_chemical_formula_sum   'Mg1 Mn4 Zn2 O8'
_cell_volume   168.52304855
_cell_formula_units_Z   1
loop_
 _symmetry_equiv_pos_site_id
 _symmetry_equiv_pos_as_xyz
  1  'x, y, z'
loop_
 _atom_site_type_symbol
 _atom_site_label
 _atom_site_symmetry_multiplicity
 _atom_site_fract_x
 _atom_site_fract_y
 _atom_site_fract_z
 _atom_site_occupancy
  Mg  Mg0  1  0.12500000  0.62500000  0.12500000  1
  Mn  Mn1  1  0.95851600  0.09237000  0.97725600  1
  Mn  Mn2  1  0.29148400  0.15763000  0.27274400  1
  Mn  Mn3  1  0.62500000  0.62500000  0.12500000  1
  Mn  Mn4  1  0.62500000  0.62500000  0.62500000  1
  Zn  Zn5  1  0.12500000  0.62500000  0.62500000  1
  Zn  Zn6  1  0.62500000  0.12500000  0.62500000  1
  O  O7  1  0.37762600  0.41037800  0.34171300  1
  O  O8  1  0.42416100  0.79340800  0.40287700  1
  O  O9  1  0.38398000  0.38788000  0.86201400  1
  O  O10  1  0.87523500  0.38092900  0.38547900  1
  O  O11  1  0.37476500  0.86907100  0.86452100  1
  O  O12  1  0.82583900  0.45659200  0.84712300  1
  O  O13  1  0.86602000  0.86212000  0.38798600  1
  O  O14  1  0.87237400  0.83962200  0.90828700  1
