# generated using pymatgen
data_MgV4Ag2O11
_symmetry_space_group_name_H-M   'P 1'
_cell_length_a   3.76521691
_cell_length_b   7.80103098
_cell_length_c   8.21909917
_cell_angle_alpha   85.95200619
_cell_angle_beta   76.75868061
_cell_angle_gamma   76.03505940
_symmetry_Int_Tables_number   1
_chemical_formula_structural   MgV4Ag2O11
_chemical_formula_sum   'Mg1 V4 Ag2 O11'
_cell_volume   228.02213356
_cell_formula_units_Z   1
loop_
 _symmetry_equiv_pos_site_id
 _symmetry_equiv_pos_as_xyz
  1  'x, y, z'
loop_
 _atom_site_type_symbol
 _atom_site_label
 _atom_site_symmetry_multiplicity
 _atom_site_fract_x
 _atom_site_fract_y
 _atom_site_fract_z
 _atom_site_occupancy
  Mg  Mg0  1  0.49338412  0.50000000  0.50000000  1
  V  V1  1  0.62881992  0.12409395  0.60224115  1
  V  V2  1  0.35515602  0.87590505  0.39775785  1
  V  V3  1  0.83144603  0.13845192  0.18767803  1
  V  V4  1  0.15757697  0.86154908  0.81232197  1
  Ag  Ag5  1  0.84796828  0.47088722  0.82220291  1
  Ag  Ag6  1  0.14105841  0.52911178  0.17779809  1
  O  O7  1  0.47622281  0.33279813  0.70267675  1
  O  O8  1  0.51169669  0.66720287  0.29732325  1
  O  O9  1  0.65849450  0.27040388  0.39363910  1
  O  O10  1  0.32253749  0.72959612  0.60636090  1
  O  O11  1  0.78451292  0.33698535  0.08579914  1
  O  O12  1  0.20729841  0.66301565  0.91419986  1
  O  O13  1  0.99107998  0.00000000  1.00000000  1
  O  O14  1  0.34099601  0.07520188  0.22661440  1
  O  O15  1  0.82153562  0.94139208  0.39947882  1
  O  O16  1  0.16240752  0.05860792  0.60052018  1
  O  O17  1  0.64281129  0.92479912  0.77338460  1
