# generated using pymatgen
data_Na2La2Sc2SiS5O24
_symmetry_space_group_name_H-M   'P 1'
_cell_length_a   9.16571706
_cell_length_b   9.14085128
_cell_length_c   24.51774239
_cell_angle_alpha   89.97583094
_cell_angle_beta   89.96148500
_cell_angle_gamma   119.96816677
_symmetry_Int_Tables_number   1
_chemical_formula_structural   Na2La2Sc2SiS5O24
_chemical_formula_sum   'Na6 La6 Sc6 Si3 S15 O72'
_cell_volume   1779.52115376
_cell_formula_units_Z   3
loop_
 _symmetry_equiv_pos_site_id
 _symmetry_equiv_pos_as_xyz
  1  'x, y, z'
loop_
 _atom_site_type_symbol
 _atom_site_label
 _atom_site_symmetry_multiplicity
 _atom_site_fract_x
 _atom_site_fract_y
 _atom_site_fract_z
 _atom_site_occupancy
  Na  Na0  1  0.98722215  0.98286064  0.50831397  1
  Na  Na1  1  0.99960712  0.99991980  0.99786915  1
  Na  Na2  1  0.66816047  0.32285700  0.82695247  1
  Na  Na3  1  0.65236063  0.32179666  0.33253020  1
  Na  Na4  1  0.33197108  0.67453887  0.17348205  1
  Na  Na5  1  0.37135781  0.68113218  0.66520524  1
  La  La6  1  0.01242326  0.00176640  0.34261826  1
  La  La7  1  0.97387447  0.98299538  0.64964490  1
  La  La8  1  0.66634686  0.33187541  0.68745448  1
  La  La9  1  0.66648424  0.34444028  0.48124194  1
  La  La10  1  0.35178663  0.66754724  0.52031089  1
  La  La11  1  0.34794848  0.67776725  0.81876804  1
  Sc  Sc12  1  0.98722098  0.00264668  0.84773220  1
  Sc  Sc13  1  0.01372422  0.99440294  0.15382040  1
  Sc  Sc14  1  0.65701193  0.32229236  0.18293987  1
  Sc  Sc15  1  0.66797432  0.33321612  0.98744205  1
  Sc  Sc16  1  0.33258397  0.66710088  0.01697719  1
  Sc  Sc17  1  0.33257545  0.68013907  0.31085153  1
  Si  Si18  1  0.30693017  0.99975123  0.24610327  1
  Si  Si19  1  0.70264415  0.00754240  0.75478077  1
  Si  Si20  1  0.66838364  0.63630899  0.58444665  1
  S  S21  1  0.69802280  0.69508387  0.24403556  1
  S  S22  1  0.99848998  0.30169564  0.24388276  1
  S  S23  1  0.28860506  0.28662288  0.75561703  1
  S  S24  1  0.99788995  0.70804060  0.75758843  1
  S  S25  1  0.97004832  0.33392334  0.58204990  1
  S  S26  1  0.36083853  0.03119607  0.58267361  1
  S  S27  1  0.95895117  0.62351905  0.08238710  1
  S  S28  1  0.66395099  0.04095699  0.08192060  1
  S  S29  1  0.37705988  0.33552763  0.08256319  1
  S  S30  1  0.63444578  0.66218406  0.92462781  1
  S  S31  1  0.03105163  0.36788218  0.92365244  1
  S  S32  1  0.33746750  0.97191893  0.92491757  1
  S  S33  1  0.62512570  0.96135704  0.40865906  1
  S  S34  1  0.33378446  0.37814085  0.40864143  1
  S  S35  1  0.04385385  0.66305625  0.41096797  1
  O  O36  1  0.24008561  0.04277236  0.30138708  1
  O  O37  1  0.79302900  0.75765419  0.29542675  1
  O  O38  1  0.95955532  0.20479474  0.29528391  1
  O  O39  1  0.18892621  0.18358003  0.80391184  1
  O  O40  1  0.00025391  0.81331291  0.80481001  1
  O  O41  1  0.81576722  0.00294987  0.80828668  1
  O  O42  1  0.78310879  0.99533514  0.69775423  1
  O  O43  1  0.20785359  0.20887890  0.70368065  1
  O  O44  1  0.01662418  0.79384608  0.70523215  1
  O  O45  1  0.79039890  0.81431324  0.19805102  1
  O  O46  1  0.02187381  0.20651137  0.19822535  1
  O  O47  1  0.17300502  0.97177358  0.19534667  1
  O  O48  1  0.88088570  0.33376794  0.63198553  1
  O  O49  1  0.45717377  0.11558297  0.63225861  1
  O  O50  1  0.66664229  0.53569150  0.63929239  1
  O  O51  1  0.88295729  0.51923160  0.13129678  1
  O  O52  1  0.63649676  0.11894466  0.13098984  1
  O  O53  1  0.48263604  0.36369395  0.13148885  1
  O  O54  1  0.45997587  0.31012529  0.03394478  1
  O  O55  1  0.85105360  0.54034954  0.03362132  1
  O  O56  1  0.68655219  0.15011896  0.03347466  1
  O  O57  1  0.45389439  0.12055541  0.53249357  1
  O  O58  1  0.66469287  0.53674508  0.52793546  1
  O  O59  1  0.87260645  0.32346935  0.53239036  1
  O  O60  1  0.53659758  0.68513739  0.96986925  1
  O  O61  1  0.14984358  0.46543650  0.96961608  1
  O  O62  1  0.31757172  0.85109262  0.97019756  1
  O  O63  1  0.54971666  0.87848696  0.46111257  1
  O  O64  1  0.32878966  0.45409847  0.46119832  1
  O  O65  1  0.12816140  0.66950080  0.46265746  1
  O  O66  1  0.14629680  0.66614619  0.36284393  1
  O  O67  1  0.51962365  0.85676782  0.36178962  1
  O  O68  1  0.33451846  0.48097168  0.36166201  1
  O  O69  1  0.09118457  0.46271445  0.87244492  1
  O  O70  1  0.37207984  0.91258991  0.87333072  1
  O  O71  1  0.53995000  0.62533180  0.87320607  1
  O  O72  1  0.01991985  0.81234802  0.40914871  1
  O  O73  1  0.79416037  0.97871978  0.40567099  1
  O  O74  1  0.18097347  0.20781108  0.40801450  1
  O  O75  1  0.01885270  0.19959045  0.91955048  1
  O  O76  1  0.18371280  0.98488423  0.92141518  1
  O  O77  1  0.80219006  0.81682115  0.91985669  1
  O  O78  1  0.99795409  0.18815421  0.58041403  1
  O  O79  1  0.19725995  0.02472756  0.58167482  1
  O  O80  1  0.83534875  0.82152987  0.57833317  1
  O  O81  1  0.97621266  0.79470102  0.08879771  1
  O  O82  1  0.81481681  0.02284403  0.08797670  1
  O  O83  1  0.20653246  0.18333814  0.08967558  1
  O  O84  1  0.69190533  0.17795629  0.75966969  1
  O  O85  1  0.45739817  0.30428905  0.75973029  1
  O  O86  1  0.83881578  0.54558012  0.76001448  1
  O  O87  1  0.67930943  0.52655156  0.23256961  1
  O  O88  1  0.85414457  0.32827965  0.23165572  1
  O  O89  1  0.49276180  0.16212225  0.23125789  1
  O  O90  1  0.65493858  0.51330444  0.93715822  1
  O  O91  1  0.86103513  0.34580421  0.93621839  1
  O  O92  1  0.48762586  0.14121887  0.93688959  1
  O  O93  1  0.63616058  0.12827825  0.40592661  1
  O  O94  1  0.48756135  0.36238261  0.40585132  1
  O  O95  1  0.87760512  0.50599257  0.40698448  1
  O  O96  1  0.35874668  0.48833816  0.07322825  1
  O  O97  1  0.13057500  0.64363164  0.07251179  1
  O  O98  1  0.50959492  0.87045058  0.07293115  1
  O  O99  1  0.33514930  0.85758790  0.58320051  1
  O  O100  1  0.50050879  0.65660504  0.58730746  1
  O  O101  1  0.13429174  0.49254294  0.58206366  1
  O  O102  1  0.32057974  0.82756553  0.25428627  1
  O  O103  1  0.52896663  0.67924400  0.24986591  1
  O  O104  1  0.15487311  0.46867861  0.25029099  1
  O  O105  1  0.30244152  0.45532086  0.75864156  1
  O  O106  1  0.14271662  0.67952564  0.76202535  1
  O  O107  1  0.51579992  0.83700328  0.75702523  1
