# generated using pymatgen
data_Sr2MgTiFeO6
_symmetry_space_group_name_H-M   'P 1'
_cell_length_a   5.66911690
_cell_length_b   6.14832484
_cell_length_c   6.14832420
_cell_angle_alpha   54.68179210
_cell_angle_beta   62.54645213
_cell_angle_gamma   62.54644057
_symmetry_Int_Tables_number   1
_chemical_formula_structural   Sr2MgTiFeO6
_chemical_formula_sum   'Sr2 Mg1 Ti1 Fe1 O6'
_cell_volume   149.46639768
_cell_formula_units_Z   1
loop_
 _symmetry_equiv_pos_site_id
 _symmetry_equiv_pos_as_xyz
  1  'x, y, z'
loop_
 _atom_site_type_symbol
 _atom_site_label
 _atom_site_symmetry_multiplicity
 _atom_site_fract_x
 _atom_site_fract_y
 _atom_site_fract_z
 _atom_site_occupancy
  Sr  Sr0  1  0.31757800  0.18242200  0.18242200  1
  Sr  Sr1  1  0.68242200  0.81757800  0.81757800  1
  Mg  Mg2  1  0.00000000  0.50000000  0.50000000  1
  Ti  Ti3  1  0.50000000  0.50000000  0.50000000  1
  Fe  Fe4  1  0.00000000  0.00000000  0.00000000  1
  O  O5  1  0.71756800  0.28243200  0.28243200  1
  O  O6  1  0.74730500  0.25561500  0.74438500  1
  O  O7  1  0.74730300  0.74438600  0.25561400  1
  O  O8  1  0.28243200  0.71756800  0.71756800  1
  O  O9  1  0.25269500  0.74438500  0.25561500  1
  O  O10  1  0.25269700  0.25561400  0.74438600  1
