# generated using pymatgen
data_Na10Zr4Al4Si7S5O48
_symmetry_space_group_name_H-M   'P 1'
_cell_length_a   17.87971410
_cell_length_b   8.91082681
_cell_length_c   22.46372040
_cell_angle_alpha   89.76263241
_cell_angle_beta   91.08992074
_cell_angle_gamma   119.81110764
_symmetry_Int_Tables_number   1
_chemical_formula_structural   Na10Zr4Al4Si7S5O48
_chemical_formula_sum   'Na30 Zr12 Al12 Si21 S15 O144'
_cell_volume   3104.75729275
_cell_formula_units_Z   3
loop_
 _symmetry_equiv_pos_site_id
 _symmetry_equiv_pos_as_xyz
  1  'x, y, z'
loop_
 _atom_site_type_symbol
 _atom_site_label
 _atom_site_symmetry_multiplicity
 _atom_site_fract_x
 _atom_site_fract_y
 _atom_site_fract_z
 _atom_site_occupancy
  Na  Na0  1  0.18330433  0.37126049  0.24197439  1
  Na  Na1  1  0.68332875  0.37196600  0.24242834  1
  Na  Na2  1  0.99514892  0.62993137  0.25366032  1
  Na  Na3  1  0.49533447  0.62947745  0.25360018  1
  Na  Na4  1  0.49503723  0.35817094  0.75721359  1
  Na  Na5  1  0.18282679  0.99394816  0.74610534  1
  Na  Na6  1  0.68520690  0.99804769  0.74448142  1
  Na  Na7  1  0.65593476  0.33468397  0.57984488  1
  Na  Na8  1  0.01782272  0.70441073  0.57896784  1
  Na  Na9  1  0.82822151  0.96062047  0.58974404  1
  Na  Na10  1  0.48795249  0.66399211  0.91173273  1
  Na  Na11  1  0.98935575  0.66595120  0.91099168  1
  Na  Na12  1  0.85129437  0.03833964  0.90695777  1
  Na  Na13  1  0.16012603  0.29364410  0.92167726  1
  Na  Na14  1  0.48950374  0.31459234  0.41140298  1
  Na  Na15  1  0.98722845  0.31103058  0.41114611  1
  Na  Na16  1  0.35368119  0.66575268  0.40684680  1
  Na  Na17  1  0.85268955  0.66629449  0.41044171  1
  Na  Na18  1  0.01832875  0.00648658  0.49623772  1
  Na  Na19  1  0.51430407  0.99353103  0.49458199  1
  Na  Na20  1  0.01200786  0.01862997  0.99817373  1
  Na  Na21  1  0.51429392  0.03622419  0.99381722  1
  Na  Na22  1  0.33846920  0.32351001  0.83134484  1
  Na  Na23  1  0.84215927  0.33835941  0.82543945  1
  Na  Na24  1  0.33430137  0.33189625  0.32796738  1
  Na  Na25  1  0.83343554  0.33114167  0.32942478  1
  Na  Na26  1  0.17515547  0.66481696  0.15937186  1
  Na  Na27  1  0.67523546  0.66591448  0.15986962  1
  Na  Na28  1  0.17537407  0.67620993  0.66534427  1
  Na  Na29  1  0.67240452  0.68385444  0.66400718  1
  Zr  Zr30  1  0.99929021  0.99081839  0.64820168  1
  Zr  Zr31  1  0.49497331  0.98191527  0.64748880  1
  Zr  Zr32  1  0.00011730  0.01286252  0.14487592  1
  Zr  Zr33  1  0.49964976  0.01196374  0.14489759  1
  Zr  Zr34  1  0.33034817  0.31891241  0.97934057  1
  Zr  Zr35  1  0.82442696  0.32260280  0.98049571  1
  Zr  Zr36  1  0.32634482  0.32926483  0.48026426  1
  Zr  Zr37  1  0.82800911  0.33881483  0.48069358  1
  Zr  Zr38  1  0.16470957  0.65559575  0.31270681  1
  Zr  Zr39  1  0.66413403  0.65571511  0.31339008  1
  Zr  Zr40  1  0.16180225  0.67137408  0.81281060  1
  Zr  Zr41  1  0.66561349  0.67461505  0.81356693  1
  Al  Al42  1  0.00091470  0.00078691  0.35257354  1
  Al  Al43  1  0.50298225  0.00076536  0.35182286  1
  Al  Al44  1  0.99746447  0.99529475  0.85078255  1
  Al  Al45  1  0.49690281  -0.00144385  0.85439729  1
  Al  Al46  1  0.33303333  0.31591477  0.69025744  1
  Al  Al47  1  0.83211969  0.33293669  0.68773975  1
  Al  Al48  1  0.33716076  0.35622085  0.18629570  1
  Al  Al49  1  0.83676113  0.35669456  0.18671757  1
  Al  Al50  1  0.15872822  0.64316435  0.01615811  1
  Al  Al51  1  0.65389561  0.63906556  0.01702970  1
  Al  Al52  1  0.16125748  0.67330712  0.51549355  1
  Al  Al53  1  0.66097248  0.66468980  0.52080327  1
  Si  Si54  1  0.35780206  0.71379066  0.25129539  1
  Si  Si55  1  0.85774539  0.71424970  0.25119112  1
  Si  Si56  1  0.98907652  0.27914341  0.25240027  1
  Si  Si57  1  0.48918653  0.27913341  0.25248538  1
  Si  Si58  1  0.98953843  0.69545850  0.75259093  1
  Si  Si59  1  0.48947318  0.69717192  0.75341294  1
  Si  Si60  1  0.35678144  0.00040982  0.75180128  1
  Si  Si61  1  0.85746834  0.01157302  0.75092794  1
  Si  Si62  1  0.19160463  0.03222841  0.58691197  1
  Si  Si63  1  0.68744669  0.03427350  0.58598444  1
  Si  Si64  1  0.82723811  0.61870590  0.58509512  1
  Si  Si65  1  0.19195180  0.35074001  0.08411947  1
  Si  Si66  1  0.69000623  0.35151098  0.08644050  1
  Si  Si67  1  0.02126514  0.36530355  0.91725535  1
  Si  Si68  1  0.52224586  0.36133064  0.91575761  1
  Si  Si69  1  0.16076892  0.94710398  0.91949817  1
  Si  Si70  1  0.65899876  0.94622244  0.92076906  1
  Si  Si71  1  0.15979743  0.37148076  0.41998996  1
  Si  Si72  1  0.65918300  0.36480738  0.41966292  1
  Si  Si73  1  0.02290882  0.68143512  0.41694684  1
  Si  Si74  1  0.52542590  0.68144420  0.41829590  1
  S  S75  1  0.14686215  0.00842418  0.25145017  1
  S  S76  1  0.64699681  0.00829666  0.25129458  1
  S  S77  1  0.14889300  0.29071623  0.75165553  1
  S  S78  1  0.64647256  0.28595198  0.75063888  1
  S  S79  1  0.48071663  0.34075594  0.58528291  1
  S  S80  1  0.98281341  0.34173436  0.58351698  1
  S  S81  1  0.32609700  0.61712535  0.58386456  1
  S  S82  1  0.48199363  0.62215182  0.08499045  1
  S  S83  1  0.98225570  0.62205831  0.08464361  1
  S  S84  1  0.32622775  0.03612234  0.08626607  1
  S  S85  1  0.82708620  0.03868177  0.08512419  1
  S  S86  1  0.31313238  0.67641963  0.91949209  1
  S  S87  1  0.81255681  0.67200786  0.91941620  1
  S  S88  1  0.31128921  0.95199824  0.41961445  1
  S  S89  1  0.81307332  0.95475776  0.41926898  1
  O  O90  1  0.10533487  0.03499443  0.30378101  1
  O  O91  1  0.60534052  0.03489581  0.30366304  1
  O  O92  1  0.41865704  0.80404618  0.31073480  1
  O  O93  1  0.91888216  0.80474263  0.31031829  1
  O  O94  1  0.48177945  0.16689852  0.31190241  1
  O  O95  1  0.98231157  0.16792578  0.31188419  1
  O  O96  1  0.10826907  0.18301610  0.80517773  1
  O  O97  1  0.60420688  0.17483351  0.80204004  1
  O  O98  1  0.48217589  0.79479432  0.81199572  1
  O  O99  1  0.98550106  0.80108152  0.81096916  1
  O  O100  1  0.42356417  0.03621611  0.80658163  1
  O  O101  1  0.91587388  0.02656532  0.81010327  1
  O  O102  1  0.40075664  0.98316241  0.69078604  1
  O  O103  1  0.90016622  0.98785424  0.69020876  1
  O  O104  1  0.09583996  0.21399894  0.69760090  1
  O  O105  1  0.59383919  0.21432889  0.69453615  1
  O  O106  1  0.01461784  0.82132068  0.69368881  1
  O  O107  1  0.51724727  0.82831734  0.69603351  1
  O  O108  1  0.40530283  0.82505870  0.19297378  1
  O  O109  1  0.90535177  0.82604461  0.19267981  1
  O  O110  1  0.01875809  0.20514202  0.19645342  1
  O  O111  1  0.51836982  0.20432854  0.19660655  1
  O  O112  1  0.09321151  0.97390983  0.19675988  1
  O  O113  1  0.59324812  0.97370222  0.19675238  1
  O  O114  1  0.43687962  0.35683005  0.63831607  1
  O  O115  1  0.93884579  0.36511828  0.63447646  1
  O  O116  1  0.25009752  0.13798730  0.64576988  1
  O  O117  1  0.74887432  0.12917294  0.64481628  1
  O  O118  1  0.32078051  0.51189519  0.63595304  1
  O  O119  1  0.81452226  0.48518188  0.63820867  1
  O  O120  1  0.43892150  0.51666668  0.13869607  1
  O  O121  1  0.93851108  0.51722834  0.13830437  1
  O  O122  1  0.32153867  0.13079658  0.13800032  1
  O  O123  1  0.82284628  0.13561115  0.13637563  1
  O  O124  1  0.25071472  0.36204558  0.14375882  1
  O  O125  1  0.74906701  0.36364728  0.14584606  1
  O  O126  1  0.23561528  0.32118904  0.02465683  1
  O  O127  1  0.73596111  0.32052064  0.02894726  1
  O  O128  1  0.42972427  0.54121263  0.03037107  1
  O  O129  1  0.93041476  0.54143350  0.02975792  1
  O  O130  1  0.34152591  0.14026697  0.03076041  1
  O  O131  1  0.84202889  0.13966164  0.02872407  1
  O  O132  1  0.23680770  0.15176619  0.52851318  1
  O  O133  1  0.73415467  0.16076656  0.52881993  1
  O  O134  1  0.34135186  0.54479315  0.52819416  1
  O  O135  1  0.85236615  0.55143927  0.52412444  1
  O  O136  1  0.43041807  0.31795188  0.52994996  1
  O  O137  1  0.93101549  0.31073342  0.52731975  1
  O  O138  1  0.27056018  0.69484332  0.97190550  1
  O  O139  1  0.77010126  0.69336024  0.97123259  1
  O  O140  1  0.08593564  0.45483046  0.97409790  1
  O  O141  1  0.58177913  0.46014995  0.97351912  1
  O  O142  1  0.14941387  0.81634534  0.97424837  1
  O  O143  1  0.65068497  0.81749709  0.97535310  1
  O  O144  1  0.26723802  0.84567117  0.47166329  1
  O  O145  1  0.77216467  0.85065730  0.47261549  1
  O  O146  1  0.15122193  0.48330438  0.47404503  1
  O  O147  1  0.64791042  0.46376463  0.47714493  1
  O  O148  1  0.07923827  0.70007908  0.47723418  1
  O  O149  1  0.58669282  0.69700554  0.47452343  1
  O  O150  1  0.06586825  0.64729133  0.35825207  1
  O  O151  1  0.56189409  0.64185801  0.35685655  1
  O  O152  1  0.26043309  0.88180534  0.36426946  1
  O  O153  1  0.76008208  0.87928306  0.36493303  1
  O  O154  1  0.18346446  0.48895789  0.35889532  1
  O  O155  1  0.68106373  0.48877612  0.36047448  1
  O  O156  1  0.06414562  0.48973603  0.86002786  1
  O  O157  1  0.56213318  0.48237955  0.85591073  1
  O  O158  1  0.18043351  0.87808148  0.85769138  1
  O  O159  1  0.68340324  0.87697826  0.85977051  1
  O  O160  1  0.25912204  0.63799375  0.86495709  1
  O  O161  1  0.76168607  0.64010492  0.86399234  1
  O  O162  1  0.00766309  0.84642925  0.40875944  1
  O  O163  1  0.50843171  0.84460424  0.40923243  1
  O  O164  1  0.39675687  0.96381963  0.41613702  1
  O  O165  1  0.89877843  0.96683974  0.41415480  1
  O  O166  1  0.07337590  0.18422405  0.40987583  1
  O  O167  1  0.57227691  0.17879756  0.40852982  1
  O  O168  1  0.00980471  0.17172340  0.90769531  1
  O  O169  1  0.51061271  0.17092779  0.90699523  1
  O  O170  1  0.07428249  0.96784593  0.91064624  1
  O  O171  1  0.57247855  0.95993647  0.91004039  1
  O  O172  1  0.39958403  0.82866921  0.91377260  1
  O  O173  1  0.89902147  0.83069525  0.91465674  1
  O  O174  1  0.49342812  0.18788013  0.58874696  1
  O  O175  1  0.99258112  0.18672716  0.58876813  1
  O  O176  1  0.09423200  0.00968852  0.58876585  1
  O  O177  1  0.59413149  0.03070819  0.58785389  1
  O  O178  1  0.40499441  0.79370196  0.58675500  1
  O  O179  1  0.91137378  0.81578677  0.58857547  1
  O  O180  1  0.49148023  0.79627640  0.08926796  1
  O  O181  1  0.99143154  0.79663607  0.08856217  1
  O  O182  1  0.40420842  0.01497059  0.08884749  1
  O  O183  1  0.90552065  0.01780007  0.08794671  1
  O  O184  1  0.09571086  0.17377698  0.08793692  1
  O  O185  1  0.59459220  0.17473103  0.08902258  1
  O  O186  1  0.34544834  0.17477178  0.74496775  1
  O  O187  1  0.84082227  0.17641828  0.74354464  1
  O  O188  1  0.23429650  0.29996470  0.74567961  1
  O  O189  1  0.73186391  0.30017745  0.74495545  1
  O  O190  1  0.40716223  0.50519031  0.73831132  1
  O  O191  1  0.90518386  0.50944982  0.74071779  1
  O  O192  1  0.34573798  0.51618156  0.24432419  1
  O  O193  1  0.84623865  0.51699637  0.24439495  1
  O  O194  1  0.40720010  0.30872176  0.23836846  1
  O  O195  1  0.90707046  0.30829913  0.23818575  1
  O  O196  1  0.23258339  0.16432188  0.24554752  1
  O  O197  1  0.73265526  0.16409312  0.24560302  1
  O  O198  1  0.32572836  0.52049512  0.92466028  1
  O  O199  1  0.82960634  0.52389528  0.92407248  1
  O  O200  1  0.42874310  0.36136500  0.92217407  1
  O  O201  1  0.92638332  0.35199989  0.92392475  1
  O  O202  1  0.24245977  0.14813310  0.92229106  1
  O  O203  1  0.74693334  0.13806158  0.92409731  1
  O  O204  1  0.32791604  0.13380107  0.42395179  1
  O  O205  1  0.82878613  0.13484693  0.42326930  1
  O  O206  1  0.24777779  0.35540480  0.42315526  1
  O  O207  1  0.74720485  0.35014842  0.42031158  1
  O  O208  1  0.42835683  0.50171342  0.42429614  1
  O  O209  1  0.92806509  0.49837627  0.41976419  1
  O  O210  1  0.18304103  0.52486495  0.07533030  1
  O  O211  1  0.68166900  0.52514162  0.07576587  1
  O  O212  1  0.06797992  0.63643061  0.08074175  1
  O  O213  1  0.56786689  0.63660419  0.08087197  1
  O  O214  1  0.24843296  0.86649169  0.07952911  1
  O  O215  1  0.74963640  0.86824967  0.07967480  1
  O  O216  1  0.17868064  0.83643652  0.57670405  1
  O  O217  1  0.68037037  0.84583404  0.57586947  1
  O  O218  1  0.24907148  0.63410454  0.57732871  1
  O  O219  1  0.74075603  0.63645823  0.57485176  1
  O  O220  1  0.06854114  0.49978281  0.57850868  1
  O  O221  1  0.56756978  0.49678162  0.58205159  1
  O  O222  1  0.15609124  0.85267902  0.25736636  1
  O  O223  1  0.65613329  0.85260636  0.25744409  1
  O  O224  1  0.25978864  0.68573270  0.25380599  1
  O  O225  1  0.75948204  0.68528398  0.25410935  1
  O  O226  1  0.07543035  0.47869161  0.25575161  1
  O  O227  1  0.57565765  0.47848790  0.25572041  1
  O  O228  1  0.16202348  0.46628268  0.75675812  1
  O  O229  1  0.65544935  0.45987625  0.75583137  1
  O  O230  1  0.07904581  0.68222424  0.75431711  1
  O  O231  1  0.57626562  0.67265510  0.75512159  1
  O  O232  1  0.25987448  0.83303255  0.75426269  1
  O  O233  1  0.75973290  0.83616889  0.75404538  1
