# generated using pymatgen
data_Na2CaLaP(SO6)2
_symmetry_space_group_name_H-M   'P 1'
_cell_length_a   9.49373141
_cell_length_b   9.43465402
_cell_length_c   24.50383397
_cell_angle_alpha   89.86389081
_cell_angle_beta   90.00000000
_cell_angle_gamma   120.20735387
_symmetry_Int_Tables_number   1
_chemical_formula_structural   Na2CaLaP(SO6)2
_chemical_formula_sum   'Na12 Ca6 La6 P6 S12 O72'
_cell_volume   1896.77022754
_cell_formula_units_Z   6
loop_
 _symmetry_equiv_pos_site_id
 _symmetry_equiv_pos_as_xyz
  1  'x, y, z'
loop_
 _atom_site_type_symbol
 _atom_site_label
 _atom_site_symmetry_multiplicity
 _atom_site_fract_x
 _atom_site_fract_y
 _atom_site_fract_z
 _atom_site_occupancy
  Na  Na0  1  0.00459993  0.64202646  0.24200493  1
  Na  Na1  1  0.63742652  0.64202646  0.74200493  1
  Na  Na2  1  0.65679970  0.95355531  0.57828222  1
  Na  Na3  1  0.29675660  0.95355531  0.07828222  1
  Na  Na4  1  0.69002971  0.02728622  0.90989944  1
  Na  Na5  1  0.33725551  0.02728622  0.40989944  1
  Na  Na6  1  0.97382901  0.98639024  0.49263059  1
  Na  Na7  1  0.01256123  0.98639024  0.99263059  1
  Na  Na8  1  0.65477319  0.30659920  0.82592287  1
  Na  Na9  1  0.65182701  0.30659920  0.32592287  1
  Na  Na10  1  0.32845623  0.65846542  0.15983327  1
  Na  Na11  1  0.33000819  0.65846542  0.65983327  1
  Ca  Ca12  1  0.99178738  0.00532514  0.34929531  1
  Ca  Ca13  1  0.01353777  0.00532514  0.84929531  1
  Ca  Ca14  1  0.66612515  0.32750491  0.68247380  1
  Ca  Ca15  1  0.66138076  0.32750491  0.18247380  1
  Ca  Ca16  1  0.32023172  0.65918246  0.01525146  1
  Ca  Ca17  1  0.33894974  0.65918246  0.51525146  1
  La  La18  1  0.00110752  0.99941333  0.65081819  1
  La  La19  1  0.99830582  0.99941333  0.15081819  1
  La  La20  1  0.67609722  0.35195651  0.98453142  1
  La  La21  1  0.67586030  0.35195651  0.48453142  1
  La  La22  1  0.35082729  0.67929078  0.31724482  1
  La  La23  1  0.32846249  0.67929078  0.81724482  1
  P  P24  1  0.29923555  0.00245258  0.25252671  1
  P  P25  1  0.70321703  0.00245258  0.75252671  1
  P  P26  1  0.65998572  0.63703367  0.58829954  1
  P  P27  1  0.97704896  0.63703367  0.08829954  1
  P  P28  1  0.33438831  0.97163103  0.92186609  1
  P  P29  1  0.63724172  0.97163103  0.42186609  1
  S  S30  1  0.70575001  0.69477948  0.25113001  1
  S  S31  1  0.99419581  0.30358081  0.25099762  1
  S  S32  1  0.30938500  0.30358081  0.75099762  1
  S  S33  1  0.98902947  0.69477948  0.75113001  1
  S  S34  1  0.96741974  0.33764349  0.58454980  1
  S  S35  1  0.37131736  0.03033972  0.58187605  1
  S  S36  1  0.65902336  0.03033972  0.08187605  1
  S  S37  1  0.37022475  0.33764349  0.08454980  1
  S  S38  1  0.63404158  0.67657492  0.91551000  1
  S  S39  1  0.03139079  0.35699460  0.91711140  1
  S  S40  1  0.32560281  0.35699460  0.41711140  1
  S  S41  1  0.04253234  0.67657492  0.41551000  1
  O  O42  1  0.21303711  0.01309226  0.30444362  1
  O  O43  1  0.80216969  0.78205949  0.29927717  1
  O  O44  1  0.98058083  0.20626778  0.29922275  1
  O  O45  1  0.22568695  0.20626778  0.79922275  1
  O  O46  1  0.97988980  0.78205949  0.79927717  1
  O  O47  1  0.80005514  0.01309226  0.80444362  1
  O  O48  1  0.78885233  0.98215930  0.70038755  1
  O  O49  1  0.21584767  0.22509924  0.70046867  1
  O  O50  1  0.01300018  0.79308902  0.70077164  1
  O  O51  1  0.78008884  0.79308902  0.20077164  1
  O  O52  1  0.00925157  0.22509924  0.20046867  1
  O  O53  1  0.19330696  0.98215930  0.20038755  1
  O  O54  1  0.88517067  0.35159822  0.63340869  1
  O  O55  1  0.47612403  0.11911753  0.62900859  1
  O  O56  1  0.65344166  0.54603412  0.64135914  1
  O  O57  1  0.89259345  0.54603412  0.14135914  1
  O  O58  1  0.64299449  0.11911753  0.12900859  1
  O  O59  1  0.46642855  0.35159822  0.13340869  1
  O  O60  1  0.44774477  0.31507884  0.03482017  1
  O  O61  1  0.87216008  0.54723722  0.03743565  1
  O  O62  1  0.67841294  0.12342460  0.03037470  1
  O  O63  1  0.44501267  0.12342460  0.53037470  1
  O  O64  1  0.67507814  0.54723722  0.53743565  1
  O  O65  1  0.86733507  0.31507884  0.53482017  1
  O  O66  1  0.54342025  0.68563037  0.96321741  1
  O  O67  1  0.12674371  0.44059403  0.96610924  1
  O  O68  1  0.31964742  0.87475314  0.97458920  1
  O  O69  1  0.55510473  0.87475314  0.47458920  1
  O  O70  1  0.31384931  0.44059403  0.46610924  1
  O  O71  1  0.14220913  0.68563037  0.46321741  1
  O  O72  1  0.11534544  0.65648790  0.36417481  1
  O  O73  1  0.52442589  0.88128629  0.37148895  1
  O  O74  1  0.34210210  0.45311242  0.36721935  1
  O  O75  1  0.11100932  0.45311242  0.86721935  1
  O  O76  1  0.35685939  0.88128629  0.87148895  1
  O  O77  1  0.54114146  0.65648790  0.86417481  1
  O  O78  1  0.03798342  0.83251574  0.41304973  1
  O  O79  1  0.80748054  0.99246637  0.41479821  1
  O  O80  1  0.18174227  0.18856805  0.41409656  1
  O  O81  1  0.00682579  0.18856805  0.91409656  1
  O  O82  1  0.18498583  0.99246637  0.91479821  1
  O  O83  1  0.79453233  0.83251574  0.91304973  1
  O  O84  1  0.97642866  0.18283357  0.58748186  1
  O  O85  1  0.20619262  0.00984391  0.58719904  1
  O  O86  1  0.81414817  0.81661429  0.58667769  1
  O  O87  1  0.00246612  0.81661429  0.08667769  1
  O  O88  1  0.80365129  0.00984391  0.08719904  1
  O  O89  1  0.20640490  0.18283357  0.08748186  1
  O  O90  1  0.67757922  0.15060708  0.74724541  1
  O  O91  1  0.47730729  0.32685831  0.74768047  1
  O  O92  1  0.83303297  0.53526742  0.74716952  1
  O  O93  1  0.70223545  0.53526742  0.24716952  1
  O  O94  1  0.84955202  0.32685831  0.24768047  1
  O  O95  1  0.47302886  0.15060708  0.24724541  1
  O  O96  1  0.65969802  0.53368110  0.91908445  1
  O  O97  1  0.86314933  0.33673281  0.91970685  1
  O  O98  1  0.50066081  0.14021154  0.92236078  1
  O  O99  1  0.63955173  0.14021154  0.42236078  1
  O  O100  1  0.47358447  0.33673281  0.41970685  1
  O  O101  1  0.87398407  0.53368110  0.41908445  1
  O  O102  1  0.35035027  0.48263133  0.07939243  1
  O  O103  1  0.15145174  0.66054859  0.08390054  1
  O  O104  1  0.50639680  0.86683038  0.07917534  1
  O  O105  1  0.36043258  0.86683038  0.57917534  1
  O  O106  1  0.50909585  0.66054859  0.58390054  1
  O  O107  1  0.13228006  0.48263133  0.57939243  1
  O  O108  1  0.30114236  0.83487100  0.25360498  1
  O  O109  1  0.53662668  0.66667135  0.25383120  1
  O  O110  1  0.14264881  0.47279910  0.25371210  1
  O  O111  1  0.33014929  0.47279910  0.75371210  1
  O  O112  1  0.13004367  0.66667135  0.75383120  1
  O  O113  1  0.53372764  0.83487100  0.75360498  1
