# generated using pymatgen
data_P4Se3I2
_symmetry_space_group_name_H-M   'P 1'
_cell_length_a   11.74104930
_cell_length_b   11.74041399
_cell_length_c   11.74046339
_cell_angle_alpha   116.93642257
_cell_angle_beta   116.93839863
_cell_angle_gamma   95.39624489
_symmetry_Int_Tables_number   1
_chemical_formula_structural   P4Se3I2
_chemical_formula_sum   'P16 Se12 I8'
_cell_volume   1191.56637999
_cell_formula_units_Z   4
loop_
 _symmetry_equiv_pos_site_id
 _symmetry_equiv_pos_as_xyz
  1  'x, y, z'
loop_
 _atom_site_type_symbol
 _atom_site_label
 _atom_site_symmetry_multiplicity
 _atom_site_fract_x
 _atom_site_fract_y
 _atom_site_fract_z
 _atom_site_occupancy
  P  P0  1  0.76817569  0.91116932  0.12940357  1
  P  P1  1  0.99088644  0.96572777  0.23302546  1
  P  P2  1  0.73273870  0.75783078  0.76691234  1
  P  P3  1  0.50779576  0.98261686  0.26687749  1
  P  P4  1  0.24212492  0.00913961  0.97490439  1
  P  P5  1  0.03419527  0.26724177  0.02505360  1
  P  P6  1  0.01738123  0.28425204  0.52517395  1
  P  P7  1  0.75912262  0.49211335  0.47487244  1
  P  P8  1  0.71572955  0.24090709  0.73312060  1
  P  P9  1  0.78169033  0.63870340  0.87049318  1
  P  P10  1  0.66117303  0.01818621  0.62943501  1
  P  P11  1  0.08882356  0.21826563  0.85697643  1
  P  P12  1  0.38875831  0.03179369  0.37053261  1
  P  P13  1  0.36122570  0.23186899  0.14301640  1
  P  P14  1  0.98181542  0.61122613  0.64299390  1
  P  P15  1  0.96820716  0.33872690  0.35694527  1
  Se  Se16  1  0.43066465  0.93065532  0.50001628  1
  Se  Se17  1  0.74165300  0.95416529  0.95031468  1
  Se  Se18  1  0.31939270  0.31943813  0.00003876  1
  Se  Se19  1  0.70415396  0.99169132  0.45034905  1
  Se  Se20  1  0.04585400  0.99617285  0.78748087  1
  Se  Se21  1  0.20863709  0.25837633  0.21247983  1
  Se  Se22  1  0.00835465  0.45862193  0.71247906  1
  Se  Se23  1  0.74615347  0.29579343  0.28747896  1
  Se  Se24  1  0.54137499  0.25384834  0.54964933  1
  Se  Se25  1  0.68057765  0.68060309  -0.00007425  1
  Se  Se26  1  0.06933910  0.56934297  0.50001044  1
  Se  Se27  1  0.00379246  0.79132052  0.04964643  1
  I  I28  1  0.65870800  0.29868557  0.92697438  1
  I  I29  1  0.70131219  0.62835057  0.36020881  1
  I  I30  1  0.26831021  0.34135430  0.64006572  1
  I  I31  1  0.09091354  0.51809409  0.13986157  1
  I  I32  1  0.37833226  0.95122709  0.86027933  1
  I  I33  1  0.37173996  0.73169345  0.07300878  1
  I  I34  1  0.48191433  0.62183824  0.57282075  1
  I  I35  1  0.04897510  0.90895963  0.42717659  1
