# generated using pymatgen
data_MgFe12(OF)12
_symmetry_space_group_name_H-M   'P 1'
_cell_length_a   9.69841751
_cell_length_b   14.61073225
_cell_length_c   3.11002465
_cell_angle_alpha   91.78621902
_cell_angle_beta   89.58975387
_cell_angle_gamma   91.96818682
_symmetry_Int_Tables_number   1
_chemical_formula_structural   MgFe12(OF)12
_chemical_formula_sum   'Mg1 Fe12 O12 F12'
_cell_volume   440.21136603
_cell_formula_units_Z   1
loop_
 _symmetry_equiv_pos_site_id
 _symmetry_equiv_pos_as_xyz
  1  'x, y, z'
loop_
 _atom_site_type_symbol
 _atom_site_label
 _atom_site_symmetry_multiplicity
 _atom_site_fract_x
 _atom_site_fract_y
 _atom_site_fract_z
 _atom_site_occupancy
  Mg  Mg0  1  0.46464300  0.17297200  0.11421000  1
  Fe  Fe1  1  0.02505700  0.98879100  0.05780200  1
  Fe  Fe2  1  0.99970300  0.34688800  0.99308800  1
  Fe  Fe3  1  0.01315300  0.67239900  0.00057400  1
  Fe  Fe4  1  0.12863000  0.15820200  0.58248400  1
  Fe  Fe5  1  0.23675900  0.49154700  0.46880700  1
  Fe  Fe6  1  0.26861400  0.85304900  0.52632100  1
  Fe  Fe7  1  0.48531500  0.37804700  0.89579200  1
  Fe  Fe8  1  0.54009100  0.97527900  0.04914000  1
  Fe  Fe9  1  0.51697900  0.66400900  0.00469400  1
  Fe  Fe10  1  0.76840500  0.14092700  0.55612100  1
  Fe  Fe11  1  0.72935100  0.50653200  0.49191000  1
  Fe  Fe12  1  0.74313700  0.82202800  0.52302500  1
  O  O13  1  0.06130800  0.27608200  0.48620000  1
  O  O14  1  0.10469400  0.92689500  0.54604800  1
  O  O15  1  0.17011800  0.09138200  0.07489100  1
  O  O16  1  0.12946400  0.44744500  0.96807400  1
  O  O17  1  0.36829900  0.90183700  0.03083800  1
  O  O18  1  0.37266000  0.40347300  0.40388900  1
  O  O19  1  0.62935000  0.92877100  0.53955400  1
  O  O20  1  0.59108700  0.60170600  0.49567200  1
  O  O21  1  0.65798500  0.09813300  0.05396200  1
  O  O22  1  0.66539600  0.43979900  0.98609900  1
  O  O23  1  0.66187200  0.76281300  0.01589400  1
  O  O24  1  0.93806800  0.07369300  0.56444600  1
  F  F25  1  0.11121800  0.60797100  0.49341600  1
  F  F26  1  0.17736100  0.77299100  0.01708100  1
  F  F27  1  0.32762700  0.21280100  0.66669500  1
  F  F28  1  0.33997800  0.57229900  0.97682900  1
  F  F29  1  0.44315400  0.06339100  0.52282300  1
  F  F30  1  0.40976400  0.73234700  0.50920000  1
  F  F31  1  0.57491900  0.24335500  0.59399600  1
  F  F32  1  0.83383100  0.23188700  0.03167900  1
  F  F33  1  0.85971400  0.89292700  0.03675700  1
  F  F34  1  0.84869900  0.57203800  0.99489500  1
  F  F35  1  0.89112000  0.40659900  0.49052400  1
  F  F36  1  0.91247600  0.73998900  0.50740200  1
