# generated using pymatgen
data_LiMo(PO4)2
_symmetry_space_group_name_H-M   'P 1'
_cell_length_a   16.35407207
_cell_length_b   12.15979273
_cell_length_c   10.12768725
_cell_angle_alpha   90.00000000
_cell_angle_beta   104.45985507
_cell_angle_gamma   90.00000000
_symmetry_Int_Tables_number   1
_chemical_formula_structural   LiMo(PO4)2
_chemical_formula_sum   'Li12 Mo12 P24 O96'
_cell_volume   1950.21518854
_cell_formula_units_Z   12
loop_
 _symmetry_equiv_pos_site_id
 _symmetry_equiv_pos_as_xyz
  1  'x, y, z'
loop_
 _atom_site_type_symbol
 _atom_site_label
 _atom_site_symmetry_multiplicity
 _atom_site_fract_x
 _atom_site_fract_y
 _atom_site_fract_z
 _atom_site_occupancy
  Li  Li0  1  0.02336296  0.43993556  0.90486458  1
  Li  Li1  1  0.14278904  0.94140240  0.60122163  1
  Li  Li2  1  0.21105351  0.06197299  0.43742931  1
  Li  Li3  1  0.35721096  0.44140240  0.89877837  1
  Li  Li4  1  0.28894649  0.56197299  0.06257069  1
  Li  Li5  1  0.47663704  0.93993556  0.59513542  1
  Li  Li6  1  0.52336296  0.06006444  0.40486458  1
  Li  Li7  1  0.71105351  0.43802701  0.93742931  1
  Li  Li8  1  0.64278904  0.55859760  0.10122163  1
  Li  Li9  1  0.78894649  0.93802701  0.56257069  1
  Li  Li10  1  0.85721096  0.05859760  0.39877837  1
  Li  Li11  1  0.97663704  0.56006444  0.09513542  1
  Mo  Mo12  1  0.08930384  0.79760030  0.80565609  1
  Mo  Mo13  1  0.07509071  0.28449138  0.69655761  1
  Mo  Mo14  1  0.23851307  0.19631171  0.18876857  1
  Mo  Mo15  1  0.26148693  0.69631171  0.31123143  1
  Mo  Mo16  1  0.42490929  0.78449138  0.80344239  1
  Mo  Mo17  1  0.41069616  0.29760030  0.69434391  1
  Mo  Mo18  1  0.58930384  0.70239970  0.30565609  1
  Mo  Mo19  1  0.57509071  0.21550862  0.19655761  1
  Mo  Mo20  1  0.73851307  0.30368829  0.68876857  1
  Mo  Mo21  1  0.76148693  0.80368829  0.81123143  1
  Mo  Mo22  1  0.92490929  0.71550862  0.30344239  1
  Mo  Mo23  1  0.91069616  0.20239970  0.19434391  1
  O  O24  1  0.00072913  0.28484322  0.83566105  1
  O  O25  1  0.03258273  0.81099757  0.96420794  1
  O  O26  1  0.02042327  0.13860669  0.62224725  1
  O  O27  1  0.04532432  0.94901672  0.71562155  1
  O  O28  1  0.03595937  0.64357191  0.44798780  1
  O  O29  1  0.09668607  0.44516609  0.76938307  1
  O  O30  1  0.03173780  0.26880399  0.30082429  1
  O  O31  1  0.12047040  0.63698338  0.84866927  1
  O  O32  1  0.03507538  0.91875917  0.17278627  1
  O  O33  1  0.12433933  0.77701873  0.62230985  1
  O  O34  1  0.10356000  0.99013846  0.41189597  1
  O  O35  1  0.16436660  0.22995021  0.79891073  1
  O  O36  1  0.18271377  0.85496093  0.88932704  1
  O  O37  1  0.12944703  0.30749478  0.53560985  1
  O  O38  1  0.07285219  0.47113916  0.09462363  1
  O  O39  1  0.16260344  0.57484423  0.63138333  1
  O  O40  1  0.14769810  0.41531587  0.33698008  1
  O  O41  1  0.24781667  0.51496658  0.86649000  1
  O  O42  1  0.18523000  0.69266534  0.44251550  1
  O  O43  1  0.15021990  0.77416090  0.17702699  1
  O  O44  1  0.18644981  0.21355816  0.35592949  1
  O  O45  1  0.15499039  0.13356873  0.08201684  1
  O  O46  1  0.25218333  0.01496658  0.63351000  1
  O  O47  1  0.21676666  0.55043865  0.20769799  1
  O  O48  1  0.20541176  0.35508543  0.13495776  1
  O  O49  1  0.33739656  0.07484423  0.86861667  1
  O  O50  1  0.37055297  0.80749478  0.96439015  1
  O  O51  1  0.31728623  0.35496093  0.61067296  1
  O  O52  1  0.33563340  0.72995021  0.70108927  1
  O  O53  1  0.37566067  0.27701873  0.87769015  1
  O  O54  1  0.29458824  0.85508543  0.36504224  1
  O  O55  1  0.28323334  0.05043865  0.29230201  1
  O  O56  1  0.37952960  0.13698338  0.65133073  1
  O  O57  1  0.34500961  0.63356873  0.41798316  1
  O  O58  1  0.40331493  0.94516609  0.73061693  1
  O  O59  1  0.31355019  0.71355816  0.14407051  1
  O  O60  1  0.34978010  0.27416090  0.32297301  1
  O  O61  1  0.31477000  0.19266534  0.05748450  1
  O  O62  1  0.35230190  0.91531587  0.16301992  1
  O  O63  1  0.45467568  0.44901672  0.78437845  1
  O  O64  1  0.47957673  0.63860669  0.87775275  1
  O  O65  1  0.42714781  0.97113916  0.40537637  1
  O  O66  1  0.39644000  0.49013846  0.08810403  1
  O  O67  1  0.46741727  0.31099757  0.53579206  1
  O  O68  1  0.53595937  0.85642809  0.94798780  1
  O  O69  1  0.49927087  0.78484322  0.66433895  1
  O  O70  1  0.53173780  0.23119601  0.80082429  1
  O  O71  1  0.46492462  0.41875917  0.32721373  1
  O  O72  1  0.53507538  0.58124083  0.67278627  1
  O  O73  1  0.46826220  0.76880399  0.19917571  1
  O  O74  1  0.50072913  0.21515678  0.33566105  1
  O  O75  1  0.46404063  0.14357191  0.05201220  1
  O  O76  1  0.53258273  0.68900243  0.46420794  1
  O  O77  1  0.60356000  0.50986154  0.91189597  1
  O  O78  1  0.57285219  0.02886084  0.59462363  1
  O  O79  1  0.52042327  0.36139331  0.12224725  1
  O  O80  1  0.54532432  0.55098328  0.21562155  1
  O  O81  1  0.64769810  0.08468413  0.83698008  1
  O  O82  1  0.68523000  0.80733466  0.94251550  1
  O  O83  1  0.65021990  0.72583910  0.67702699  1
  O  O84  1  0.68644981  0.28644184  0.85592949  1
  O  O85  1  0.59668607  0.05483391  0.26938307  1
  O  O86  1  0.65499039  0.36643127  0.58201684  1
  O  O87  1  0.62047040  0.86301662  0.34866927  1
  O  O88  1  0.71676666  0.94956135  0.70769799  1
  O  O89  1  0.70541176  0.14491457  0.63495776  1
  O  O90  1  0.62433933  0.72298127  0.12230985  1
  O  O91  1  0.66436660  0.27004979  0.29891073  1
  O  O92  1  0.68271377  0.64503907  0.38932704  1
  O  O93  1  0.62944703  0.19250522  0.03560985  1
  O  O94  1  0.66260344  0.92515577  0.13138333  1
  O  O95  1  0.79458824  0.64491457  0.86504224  1
  O  O96  1  0.78323334  0.44956135  0.79230201  1
  O  O97  1  0.74781667  0.98503342  0.36649000  1
  O  O98  1  0.84500961  0.86643127  0.91798316  1
  O  O99  1  0.81355019  0.78644184  0.64407051  1
  O  O100  1  0.84978010  0.22583910  0.82297301  1
  O  O101  1  0.81477000  0.30733466  0.55748450  1
  O  O102  1  0.75218333  0.48503342  0.13351000  1
  O  O103  1  0.85230190  0.58468413  0.66301992  1
  O  O104  1  0.83739656  0.42515577  0.36861667  1
  O  O105  1  0.92714781  0.52886084  0.90537637  1
  O  O106  1  0.87055297  0.69250522  0.46439015  1
  O  O107  1  0.81728623  0.14503907  0.11067296  1
  O  O108  1  0.83563340  0.77004979  0.20108927  1
  O  O109  1  0.89644000  0.00986154  0.58810403  1
  O  O110  1  0.87566067  0.22298127  0.37769015  1
  O  O111  1  0.96492462  0.08124083  0.82721373  1
  O  O112  1  0.87952960  0.36301662  0.15133073  1
  O  O113  1  0.96826220  0.73119601  0.69917571  1
  O  O114  1  0.90331393  0.55483391  0.23061693  1
  O  O115  1  0.96404063  0.35642809  0.55201220  1
  O  O116  1  0.95467568  0.05098328  0.28437845  1
  O  O117  1  0.97957673  0.86139331  0.37775275  1
  O  O118  1  0.96741727  0.18900243  0.03579206  1
  O  O119  1  0.99927087  0.71515678  0.16433895  1
  P  P120  1  0.02033494  0.95797989  0.31794901  1
  P  P121  1  0.15999048  0.54198324  0.78418757  1
  P  P122  1  0.05819514  0.80061422  0.11933154  1
  P  P123  1  0.12363906  0.67470474  0.52977722  1
  P  P124  1  0.11970656  0.29637099  0.38332530  1
  P  P125  1  0.15836812  0.44894795  0.18738107  1
  P  P126  1  0.37636094  0.17470474  0.97022278  1
  P  P127  1  0.34000952  0.04198324  0.71581243  1
  P  P128  1  0.34163188  0.94894795  0.31261893  1
  P  P129  1  0.38029344  0.79637099  0.11667470  1
  P  P130  1  0.44180486  0.30061422  0.38066846  1
  P  P131  1  0.52033494  0.54202011  0.81794901  1
  P  P132  1  0.47966506  0.45797989  0.18205099  1
  P  P133  1  0.55819514  0.69938578  0.61933154  1
  P  P134  1  0.61970656  0.20362901  0.88332530  1
  P  P135  1  0.65836812  0.05105205  0.68738107  1
  P  P136  1  0.65999048  0.95801676  0.28418757  1
  P  P137  1  0.62363906  0.82529526  0.02977722  1
  P  P138  1  0.84163188  0.55105205  0.81261893  1
  P  P139  1  0.88029344  0.70362901  0.61667470  1
  P  P140  1  0.87636094  0.32529526  0.47022278  1
  P  P141  1  0.94180486  0.19938578  0.88066846  1
  P  P142  1  0.84000952  0.45801676  0.21581243  1
  P  P143  1  0.97966506  0.04202011  0.68205099  1
