# generated using pymatgen
data_Na4HfSi3GeO12
_symmetry_space_group_name_H-M   'P 1'
_cell_length_a   9.00689851
_cell_length_b   9.00689820
_cell_length_c   22.08203872
_cell_angle_alpha   90.00000000
_cell_angle_beta   90.00000000
_cell_angle_gamma   120.00000111
_symmetry_Int_Tables_number   1
_chemical_formula_structural   Na4HfSi3GeO12
_chemical_formula_sum   'Na24 Hf6 Si18 Ge6 O72'
_cell_volume   1551.38760413
_cell_formula_units_Z   6
loop_
 _symmetry_equiv_pos_site_id
 _symmetry_equiv_pos_as_xyz
  1  'x, y, z'
loop_
 _atom_site_type_symbol
 _atom_site_label
 _atom_site_symmetry_multiplicity
 _atom_site_fract_x
 _atom_site_fract_y
 _atom_site_fract_z
 _atom_site_occupancy
  Na  Na0  1  0.62823983  -0.00025143  0.25073232  1
  Na  Na1  1  0.37150874  0.37176017  0.25073232  1
  Na  Na2  1  0.00025143  0.62849126  0.25073232  1
  Na  Na3  1  0.63260771  0.63032238  0.74676248  1
  Na  Na4  1  0.99771467  0.36739229  0.74676248  1
  Na  Na5  1  0.36967762  0.00228533  0.74676248  1
  Na  Na6  1  0.29478844  0.33333255  0.58281891  1
  Na  Na7  1  0.03854511  0.70521156  0.58281891  1
  Na  Na8  1  0.66666745  0.96145489  0.58281891  1
  Na  Na9  1  0.30134298  0.96961589  0.08551575  1
  Na  Na10  1  0.66827391  0.69865702  0.08551575  1
  Na  Na11  1  0.03038411  0.33172609  0.08551575  1
  Na  Na12  1  0.96852743  0.66727553  0.91636086  1
  Na  Na13  1  0.69874710  0.03147257  0.91636086  1
  Na  Na14  1  0.33272447  0.30125290  0.91636086  1
  Na  Na15  1  0.96482691  0.29838687  0.41766117  1
  Na  Na16  1  0.33355896  0.03517309  0.41766117  1
  Na  Na17  1  0.70161313  0.66644104  0.41766117  1
  Na  Na18  1  0.00000000  0.00000000  0.50028143  1
  Na  Na19  1  0.00000000  0.00000000  0.00124209  1
  Na  Na20  1  0.66666700  0.33333300  0.83068998  1
  Na  Na21  1  0.66666700  0.33333300  0.33764372  1
  Na  Na22  1  0.33333300  0.66666700  0.16725877  1
  Na  Na23  1  0.33333300  0.66666700  0.66254579  1
  Hf  Hf24  1  0.00000000  0.00000000  0.84896082  1
  Hf  Hf25  1  0.66666700  0.33333300  0.19027416  1
  Hf  Hf26  1  0.66666700  0.33333300  0.98290506  1
  Hf  Hf27  1  0.33333300  0.66666700  0.02033665  1
  Hf  Hf28  1  0.33333300  0.66666700  0.31486658  1
  Hf  Hf29  1  0.33333300  0.66666700  0.80939843  1
  Si  Si30  1  0.27636077  0.99898114  0.25183591  1
  Si  Si31  1  0.72262037  0.72363923  0.25183591  1
  Si  Si32  1  0.00101886  0.27737963  0.25183591  1
  Si  Si33  1  0.29450655  0.28650124  0.74330266  1
  Si  Si34  1  0.99199469  0.70549345  0.74330266  1
  Si  Si35  1  0.71349876  0.00800531  0.74330266  1
  Si  Si36  1  0.95408960  0.33385032  0.58252430  1
  Si  Si37  1  0.37976172  0.04591040  0.58252430  1
  Si  Si38  1  0.66614968  0.62023828  0.58252430  1
  Si  Si39  1  0.96228573  0.63633578  0.08668307  1
  Si  Si40  1  0.67405105  0.03771427  0.08668307  1
  Si  Si41  1  0.36366422  0.32594895  0.08668307  1
  Si  Si42  1  0.62854085  0.66648995  0.91568911  1
  Si  Si43  1  0.03794811  0.37145915  0.91568911  1
  Si  Si44  1  0.33351005  0.96205189  0.91568911  1
  Si  Si45  1  0.62626859  0.96078800  0.41988498  1
  Si  Si46  1  0.33451840  0.37373141  0.41988498  1
  Si  Si47  1  0.03921200  0.66548160  0.41988498  1
  Ge  Ge48  1  0.00000000  0.00000000  0.35599785  1
  Ge  Ge49  1  0.00000000  0.00000000  0.64379729  1
  Ge  Ge50  1  0.00000000  0.00000000  0.14781498  1
  Ge  Ge51  1  0.66666700  0.33333300  0.68298673  1
  Ge  Ge52  1  0.66666700  0.33333300  0.48246592  1
  Ge  Ge53  1  0.33333300  0.66666700  0.51964858  1
  O  O54  1  0.19378646  0.03269534  0.31308083  1
  O  O55  1  0.83890888  0.80621354  0.31308083  1
  O  O56  1  0.96730466  0.16109112  0.31308083  1
  O  O57  1  0.21652671  0.17303499  0.80521432  1
  O  O58  1  0.95650828  0.78347329  0.80521432  1
  O  O59  1  0.82696501  0.04349172  0.80521432  1
  O  O60  1  0.80428138  0.96796880  0.68604639  1
  O  O61  1  0.16368742  0.19571862  0.68604639  1
  O  O62  1  0.03203120  0.83631258  0.68604639  1
  O  O63  1  0.80435787  0.83834515  0.19026694  1
  O  O64  1  0.03398728  0.19564213  0.19026694  1
  O  O65  1  0.16165485  0.96601272  0.19026694  1
  O  O66  1  0.87016377  0.37497586  0.64206707  1
  O  O67  1  0.50481309  0.12983623  0.64206707  1
  O  O68  1  0.62502414  0.49518691  0.64206707  1
  O  O69  1  0.87421896  0.51134019  0.14472844  1
  O  O70  1  0.63712224  0.12578104  0.14472844  1
  O  O71  1  0.48865981  0.36287776  0.14472844  1
  O  O72  1  0.45043709  0.29297485  0.02645454  1
  O  O73  1  0.84253876  0.54956291  0.02645454  1
  O  O74  1  0.70702515  0.15746124  0.02645454  1
  O  O75  1  0.46510076  0.17178378  0.52357569  1
  O  O76  1  0.70668402  0.53489924  0.52357569  1
  O  O77  1  0.82821622  0.29331598  0.52357569  1
  O  O78  1  0.54217069  0.69680094  0.97574846  1
  O  O79  1  0.15462925  0.45782931  0.97574846  1
  O  O80  1  0.30319906  0.84537075  0.97574846  1
  O  O81  1  0.53522986  0.82908145  0.47785118  1
  O  O82  1  0.29385059  0.46477014  0.47785118  1
  O  O83  1  0.17091855  0.70614941  0.47785118  1
  O  O84  1  0.11865386  0.62535830  0.35941010  1
  O  O85  1  0.50670343  0.88134614  0.35941010  1
  O  O86  1  0.37464170  0.49329657  0.35941010  1
  O  O87  1  0.12684742  0.49023154  0.85590512  1
  O  O88  1  0.36338312  0.87315258  0.85590512  1
  O  O89  1  0.50976846  0.63661688  0.85590512  1
  O  O90  1  0.02271857  0.84048524  0.41414664  1
  O  O91  1  0.81776667  0.97728143  0.41414664  1
  O  O92  1  0.15951476  0.18223333  0.41414664  1
  O  O93  1  0.02055247  0.18321881  0.91177804  1
  O  O94  1  0.16266634  0.97944753  0.91177804  1
  O  O95  1  0.81678119  0.83733366  0.91177804  1
  O  O96  1  0.97408237  0.15968658  0.58727739  1
  O  O97  1  0.18560421  0.02591763  0.58727739  1
  O  O98  1  0.84031342  0.81439579  0.58727739  1
  O  O99  1  0.97601997  0.82422918  0.09079106  1
  O  O100  1  0.84820921  0.02398003  0.09079106  1
  O  O101  1  0.17577082  0.15179079  0.09079106  1
  O  O102  1  0.69574085  0.18133689  0.73910376  1
  O  O103  1  0.48559704  0.30425915  0.73910376  1
  O  O104  1  0.81866311  0.51440296  0.73910376  1
  O  O105  1  0.70024717  0.53081098  0.24945714  1
  O  O106  1  0.83056482  0.29975283  0.24945714  1
  O  O107  1  0.46918902  0.16943518  0.24945714  1
  O  O108  1  0.64504994  0.49505322  0.92000095  1
  O  O109  1  0.85000428  0.35495006  0.92000095  1
  O  O110  1  0.50494678  0.14999572  0.92000095  1
  O  O111  1  0.64423619  0.15247271  0.42580770  1
  O  O112  1  0.50823752  0.35576381  0.42580770  1
  O  O113  1  0.84752729  0.49176248  0.42580770  1
  O  O114  1  0.34381138  0.49572452  0.08225916  1
  O  O115  1  0.15191214  0.65618862  0.08225916  1
  O  O116  1  0.50427548  0.84808786  0.08225916  1
  O  O117  1  0.36076809  0.85210520  0.57724855  1
  O  O118  1  0.49133611  0.63923191  0.57724855  1
  O  O119  1  0.14789480  0.50866389  0.57724855  1
  O  O120  1  0.29809656  0.82810044  0.25426884  1
  O  O121  1  0.53000287  0.70190344  0.25426884  1
  O  O122  1  0.17189956  0.46999713  0.25426884  1
  O  O123  1  0.31336055  0.47717867  0.74803520  1
  O  O124  1  0.16381712  0.68663945  0.74803520  1
  O  O125  1  0.52282133  0.83618288  0.74803520  1
