# generated using pymatgen
data_VClO
_symmetry_space_group_name_H-M   'P 1'
_cell_length_a   3.33010430
_cell_length_b   3.76267598
_cell_length_c   8.12658656
_cell_angle_alpha   90.00000000
_cell_angle_beta   90.00000000
_cell_angle_gamma   90.00000000
_symmetry_Int_Tables_number   1
_chemical_formula_structural   VClO
_chemical_formula_sum   'V2 Cl2 O2'
_cell_volume   101.82697038
_cell_formula_units_Z   2
loop_
 _symmetry_equiv_pos_site_id
 _symmetry_equiv_pos_as_xyz
  1  'x, y, z'
loop_
 _atom_site_type_symbol
 _atom_site_label
 _atom_site_symmetry_multiplicity
 _atom_site_fract_x
 _atom_site_fract_y
 _atom_site_fract_z
 _atom_site_occupancy
  V  V0  1  0.75000100  0.25000000  0.11371972  1
  V  V1  1  0.24999900  0.75000000  0.88628028  1
  Cl  Cl2  1  0.75000100  0.75000000  0.67776886  1
  Cl  Cl3  1  0.24999900  0.25000000  0.32223214  1
  O  O4  1  0.24999900  0.25000000  0.95779487  1
  O  O5  1  0.75000100  0.75000000  0.04220513  1
