# generated using pymatgen
data_Te2PdCl10
_symmetry_space_group_name_H-M   'P 1'
_cell_length_a   7.78147900
_cell_length_b   14.36795500
_cell_length_c   16.00615968
_cell_angle_alpha   89.81252843
_cell_angle_beta   90.00000000
_cell_angle_gamma   90.00000000
_symmetry_Int_Tables_number   1
_chemical_formula_structural   Te2PdCl10
_chemical_formula_sum   'Te8 Pd4 Cl40'
_cell_volume   1789.54213882
_cell_formula_units_Z   4
loop_
 _symmetry_equiv_pos_site_id
 _symmetry_equiv_pos_as_xyz
  1  'x, y, z'
loop_
 _atom_site_type_symbol
 _atom_site_label
 _atom_site_symmetry_multiplicity
 _atom_site_fract_x
 _atom_site_fract_y
 _atom_site_fract_z
 _atom_site_occupancy
  Te  Te0  1  0.43138700  0.25789800  0.45391100  1
  Te  Te1  1  0.93138700  0.24210200  0.04608900  1
  Te  Te2  1  0.56861300  0.74210200  0.54608900  1
  Te  Te3  1  0.06861300  0.75789800  0.95391100  1
  Te  Te4  1  0.90170500  0.94064400  0.21334600  1
  Te  Te5  1  0.40170500  0.55935600  0.28665400  1
  Te  Te6  1  0.09829500  0.05935600  0.78665400  1
  Te  Te7  1  0.59829500  0.44064400  0.71334600  1
  Pd  Pd8  1  0.76659100  0.98473100  0.98070300  1
  Pd  Pd9  1  0.26659100  0.51526900  0.51929700  1
  Pd  Pd10  1  0.23340900  0.01526900  0.01929700  1
  Pd  Pd11  1  0.73340900  0.48473100  0.48070300  1
  Cl  Cl12  1  0.43623400  0.49642000  0.82935800  1
  Cl  Cl13  1  0.93623400  0.00358000  0.67064200  1
  Cl  Cl14  1  0.56376600  0.50358000  0.17064200  1
  Cl  Cl15  1  0.06376600  0.99642000  0.32935800  1
  Cl  Cl16  1  0.86518000  0.45872000  0.78290100  1
  Cl  Cl17  1  0.36518000  0.04128000  0.71709900  1
  Cl  Cl18  1  0.13482000  0.54128000  0.21709900  1
  Cl  Cl19  1  0.63482000  0.95872000  0.28290100  1
  Cl  Cl20  1  0.56757300  0.28525300  0.75484200  1
  Cl  Cl21  1  0.06757300  0.21474700  0.74515800  1
  Cl  Cl22  1  0.43242700  0.71474700  0.24515800  1
  Cl  Cl23  1  0.93242700  0.78525300  0.25484200  1
  Cl  Cl24  1  0.79703800  0.10547800  0.88514000  1
  Cl  Cl25  1  0.29703800  0.39452200  0.61486000  1
  Cl  Cl26  1  0.20296200  0.89452200  0.11486000  1
  Cl  Cl27  1  0.70296200  0.60547800  0.38514000  1
  Cl  Cl28  1  0.73176300  0.86352800  0.07558300  1
  Cl  Cl29  1  0.23176300  0.63647200  0.42441700  1
  Cl  Cl30  1  0.26823700  0.13647200  0.92441700  1
  Cl  Cl31  1  0.76823700  0.36352800  0.57558300  1
  Cl  Cl32  1  0.82278200  0.87737700  0.87646800  1
  Cl  Cl33  1  0.32278200  0.62262300  0.62353200  1
  Cl  Cl34  1  0.17721800  0.12262300  0.12353200  1
  Cl  Cl35  1  0.67721800  0.37737700  0.37646800  1
  Cl  Cl36  1  0.70495400  0.09135500  0.08578000  1
  Cl  Cl37  1  0.20495400  0.40864500  0.41422000  1
  Cl  Cl38  1  0.29504600  0.90864500  0.91422000  1
  Cl  Cl39  1  0.79504600  0.59135500  0.58578000  1
  Cl  Cl40  1  0.86628000  0.63689400  0.97733600  1
  Cl  Cl41  1  0.36628000  0.86310600  0.52266400  1
  Cl  Cl42  1  0.13372000  0.36310600  0.02266400  1
  Cl  Cl43  1  0.63372000  0.13689400  0.47733600  1
  Cl  Cl44  1  0.30456600  0.66835300  0.00306800  1
  Cl  Cl45  1  0.80456600  0.83164700  0.49693200  1
  Cl  Cl46  1  0.69543400  0.33164700  0.99693200  1
  Cl  Cl47  1  0.19543400  0.16835300  0.50306800  1
  Cl  Cl48  1  0.11729500  0.71517600  0.81487100  1
  Cl  Cl49  1  0.61729500  0.78482400  0.68512900  1
  Cl  Cl50  1  0.88270500  0.28482400  0.18512900  1
  Cl  Cl51  1  0.38270500  0.21517600  0.31487100  1
