# generated using pymatgen
data_Na14Sc4In4Si7S5O48
_symmetry_space_group_name_H-M   'P 1'
_cell_length_a   18.40830837
_cell_length_b   9.19644808
_cell_length_c   22.80384118
_cell_angle_alpha   89.90693694
_cell_angle_beta   89.61177077
_cell_angle_gamma   120.04284998
_symmetry_Int_Tables_number   1
_chemical_formula_structural   Na14Sc4In4Si7S5O48
_chemical_formula_sum   'Na42 Sc12 In12 Si21 S15 O144'
_cell_volume   3341.70183487
_cell_formula_units_Z   3
loop_
 _symmetry_equiv_pos_site_id
 _symmetry_equiv_pos_as_xyz
  1  'x, y, z'
loop_
 _atom_site_type_symbol
 _atom_site_label
 _atom_site_symmetry_multiplicity
 _atom_site_fract_x
 _atom_site_fract_y
 _atom_site_fract_z
 _atom_site_occupancy
  Na  Na0  1  0.81195083  0.99070919  0.24385072  1
  Na  Na1  1  0.18727667  0.36768531  0.25565461  1
  Na  Na2  1  0.68873709  0.36746846  0.25450508  1
  Na  Na3  1  0.99867266  0.64459015  0.24321430  1
  Na  Na4  1  0.50083026  0.64688476  0.24457076  1
  Na  Na5  1  0.31091560  0.63343552  0.75171573  1
  Na  Na6  1  0.99942077  0.35326704  0.74786636  1
  Na  Na7  1  0.50187044  0.35523480  0.74827142  1
  Na  Na8  1  0.18477723  0.00542894  0.75786400  1
  Na  Na9  1  0.68906847  0.00872693  0.75877283  1
  Na  Na10  1  0.14322619  0.33342244  0.58337114  1
  Na  Na11  1  0.64457930  0.33542744  0.58384002  1
  Na  Na12  1  0.33794008  0.97412444  0.58077857  1
  Na  Na13  1  0.83810652  0.97419437  0.58339946  1
  Na  Na14  1  0.14181596  0.95150057  0.08449535  1
  Na  Na15  1  0.65119805  0.95685985  0.08501318  1
  Na  Na16  1  0.33788634  0.70113737  0.08348585  1
  Na  Na17  1  0.83795492  0.71234101  0.08059254  1
  Na  Na18  1  0.48781385  0.68269594  0.92368154  1
  Na  Na19  1  0.98174587  0.67763271  0.92405106  1
  Na  Na20  1  0.34362298  0.01932835  0.91383070  1
  Na  Na21  1  0.84260267  0.02003216  0.91893295  1
  Na  Na22  1  0.16849288  0.29499661  0.91078003  1
  Na  Na23  1  0.67520184  0.30583611  0.91120142  1
  Na  Na24  1  0.48537791  0.28814510  0.42016957  1
  Na  Na25  1  0.98521417  0.28774941  0.42044360  1
  Na  Na26  1  0.17095118  0.04081398  0.40748046  1
  Na  Na27  1  0.66972795  0.04253264  0.40815857  1
  Na  Na28  1  0.34322203  0.66714122  0.41037635  1
  Na  Na29  1  0.84339706  0.66840188  0.41094322  1
  Na  Na30  1  0.99847878  0.01145519  0.49720990  1
  Na  Na31  1  0.49909137  0.01196825  0.49678175  1
  Na  Na32  1  0.99248911  0.98683442  0.00236334  1
  Na  Na33  1  0.50095704  0.98824116  0.99901123  1
  Na  Na34  1  0.32425926  0.32219377  0.83476117  1
  Na  Na35  1  0.82372718  0.33122965  0.83427906  1
  Na  Na36  1  0.32410043  0.31846238  0.32916523  1
  Na  Na37  1  0.82437618  0.32785851  0.32931921  1
  Na  Na38  1  0.16621642  0.67653355  0.16996137  1
  Na  Na39  1  0.66648710  0.67762054  0.16385931  1
  Na  Na40  1  0.16009457  0.65411317  0.66918901  1
  Na  Na41  1  0.66900344  0.65825090  0.67175179  1
  Sc  Sc42  1  0.00124927  0.99878634  0.34828897  1
  Sc  Sc43  1  0.49947537  0.99850007  0.34825974  1
  Sc  Sc44  1  0.99851612  0.99959435  0.84981979  1
  Sc  Sc45  1  0.50242766  0.00611808  0.85024281  1
  Sc  Sc46  1  0.33680829  0.32816198  0.68638252  1
  Sc  Sc47  1  0.83555590  0.33299783  0.18229101  1
  Sc  Sc48  1  0.33418893  0.34403827  0.98090074  1
  Sc  Sc49  1  0.83541166  0.33196278  0.98499460  1
  Sc  Sc50  1  0.33440339  0.32579183  0.48083127  1
  Sc  Sc51  1  0.83370118  0.32355307  0.48040307  1
  Sc  Sc52  1  0.67667389  0.67727263  0.31590618  1
  Sc  Sc53  1  0.17563136  0.67514557  0.81724281  1
  In  In54  1  0.99770276  0.01423021  0.65374444  1
  In  In55  1  0.49847104  0.01606387  0.65285166  1
  In  In56  1  0.99358938  0.98266799  0.14839047  1
  In  In57  1  0.49915228  0.98253300  0.15217038  1
  In  In58  1  0.83576466  0.33391420  0.68666756  1
  In  In59  1  0.33490058  0.33664936  0.18626356  1
  In  In60  1  0.16278783  0.67011651  0.01457935  1
  In  In61  1  0.67099629  0.68777160  0.01782839  1
  In  In62  1  0.16363607  0.65546789  0.51363359  1
  In  In63  1  0.66363103  0.65513171  0.51400908  1
  In  In64  1  0.18187405  0.68980176  0.31431835  1
  In  In65  1  0.68289915  0.67563179  0.81645248  1
  Si  Si66  1  0.14750258  0.99882725  0.24863956  1
  Si  Si67  1  0.64959386  0.99971263  0.25119516  1
  Si  Si68  1  0.35128983  0.70319917  0.24952584  1
  Si  Si69  1  0.85159696  0.70036671  0.25195364  1
  Si  Si70  1  0.14972707  0.30002839  0.74971330  1
  Si  Si71  1  0.64987981  0.30192236  0.74936809  1
  Si  Si72  1  0.35118047  0.99790324  0.75041004  1
  Si  Si73  1  0.85061323  0.99845612  0.74911764  1
  Si  Si74  1  0.48298005  0.34017974  0.58288472  1
  Si  Si75  1  0.98291749  0.34033038  0.58290015  1
  Si  Si76  1  0.48168445  0.62489169  0.08285941  1
  Si  Si77  1  0.98351903  0.62383053  0.08298319  1
  Si  Si78  1  0.83738907  0.04311659  0.08404771  1
  Si  Si79  1  0.31482078  0.66754157  0.91799297  1
  Si  Si80  1  0.81634002  0.66231726  0.91934755  1
  Si  Si81  1  0.16625332  0.96607958  0.91590712  1
  Si  Si82  1  0.66532143  0.96550324  0.91469391  1
  Si  Si83  1  0.31535573  0.96389022  0.42078814  1
  Si  Si84  1  0.81494121  0.96181366  0.41851271  1
  Si  Si85  1  0.16610118  0.36610049  0.41624200  1
  Si  Si86  1  0.66583106  0.36553298  0.41677794  1
  S  S87  1  -0.00000779  0.29380362  0.25069231  1
  S  S88  1  0.50034286  0.29267088  0.25073542  1
  S  S89  1  0.00059478  0.70882005  0.75017600  1
  S  S90  1  0.49905921  0.70740620  0.74909259  1
  S  S91  1  0.18562075  0.03854666  0.58406467  1
  S  S92  1  0.68430646  0.03531203  0.58296714  1
  S  S93  1  0.33602109  0.62743586  0.58401818  1
  S  S94  1  0.83572638  0.62783800  0.58271565  1
  S  S95  1  0.33567352  0.04342566  0.08267400  1
  S  S96  1  0.18617714  0.33518907  0.08259624  1
  S  S97  1  0.68438401  0.33146101  0.08403445  1
  S  S98  1  0.02000306  0.37254640  0.91477569  1
  S  S99  1  0.51959906  0.37315599  0.91649691  1
  S  S100  1  0.01871816  0.66695191  0.41631525  1
  S  S101  1  0.51929555  0.66745443  0.41622465  1
  O  O102  1  0.10508622  0.03315479  0.30729447  1
  O  O103  1  0.60346716  0.03094942  0.30793187  1
  O  O104  1  0.40950241  0.79579228  0.30718411  1
  O  O105  1  0.91107564  0.79051776  0.30925949  1
  O  O106  1  0.48923640  0.19099554  0.30445634  1
  O  O107  1  0.98659993  0.18939855  0.30449642  1
  O  O108  1  0.10577733  0.17485488  0.80594534  1
  O  O109  1  0.60379002  0.17567117  0.80556155  1
  O  O110  1  0.48486235  0.78383734  0.80228811  1
  O  O111  1  0.99031843  0.78927274  0.80339088  1
  O  O112  1  0.41236073  0.03221165  0.80620580  1
  O  O113  1  0.91172980  0.02550592  0.80500605  1
  O  O114  1  0.38495239  0.94837820  0.69095011  1
  O  O115  1  0.88573710  0.96252966  0.68770638  1
  O  O116  1  0.09720989  0.22338626  0.68873829  1
  O  O117  1  0.59656252  0.22441417  0.68821540  1
  O  O118  1  0.01582436  0.81426556  0.69697679  1
  O  O119  1  0.51339969  0.81356624  0.69633777  1
  O  O120  1  0.38804633  0.81231163  0.18908937  1
  O  O121  1  0.88689109  0.82079072  0.19423358  1
  O  O122  1  0.01561691  0.21781125  0.19880253  1
  O  O123  1  0.51489672  0.21664164  0.19801079  1
  O  O124  1  0.09282278  0.97508718  0.18933844  1
  O  O125  1  0.59518572  0.96863148  0.19117810  1
  O  O126  1  0.43511122  0.35343542  0.64188978  1
  O  O127  1  0.94093809  0.36302491  0.64287370  1
  O  O128  1  0.23806881  0.12232709  0.63663692  1
  O  O129  1  0.73538024  0.11307585  0.63593638  1
  O  O130  1  0.32425322  0.52210953  0.63671451  1
  O  O131  1  0.82084577  0.52052075  0.63491814  1
  O  O132  1  0.43901500  0.51908447  0.14322084  1
  O  O133  1  0.93704769  0.51855608  0.14288716  1
  O  O134  1  0.32075989  0.12057386  0.13488967  1
  O  O135  1  0.82085178  0.13002296  0.14183907  1
  O  O136  1  0.23760139  0.36187644  0.13578860  1
  O  O137  1  0.73626492  0.35390279  0.13696277  1
  O  O138  1  0.22755602  0.30904404  0.02991570  1
  O  O139  1  0.72408398  0.30474503  0.03085874  1
  O  O140  1  0.42018567  0.53338463  0.02614251  1
  O  O141  1  0.92526653  0.53610818  0.02527113  1
  O  O142  1  0.34266632  0.14022699  0.02853076  1
  O  O143  1  0.84304626  0.14744433  0.02420731  1
  O  O144  1  0.22565764  0.14539849  0.53097389  1
  O  O145  1  0.72498043  0.14485538  0.53028540  1
  O  O146  1  0.34254214  0.54475374  0.53011328  1
  O  O147  1  0.84264638  0.54550291  0.52864644  1
  O  O148  1  0.42325192  0.31280168  0.52604332  1
  O  O149  1  0.92267104  0.31153102  0.52593545  1
  O  O150  1  0.27276987  0.69787862  0.97709402  1
  O  O151  1  0.77592996  0.69890887  0.97805247  1
  O  O152  1  0.07285714  0.44450994  0.96725666  1
  O  O153  1  0.57324155  0.44995559  0.96775178  1
  O  O154  1  0.14560972  0.85125798  0.97516299  1
  O  O155  1  0.63973541  0.84302734  0.97235336  1
  O  O156  1  0.27586140  0.85091910  0.48131210  1
  O  O157  1  0.77381167  0.84944318  0.47858707  1
  O  O158  1  0.14403425  0.43681065  0.47593500  1
  O  O159  1  0.64379140  0.43555578  0.47664473  1
  O  O160  1  0.07203658  0.70006989  0.46879940  1
  O  O161  1  0.57198551  0.70022864  0.46883736  1
  O  O162  1  0.05443230  0.63250342  0.36372798  1
  O  O163  1  0.55693161  0.63613761  0.36386951  1
  O  O164  1  0.24940902  0.88969664  0.36733000  1
  O  O165  1  0.75316100  0.87704624  0.36243022  1
  O  O166  1  0.18271091  0.48694323  0.35907717  1
  O  O167  1  0.68039626  0.48823321  0.36069306  1
  O  O168  1  0.05992462  0.47898410  0.86207537  1
  O  O169  1  0.55341987  0.47506000  0.86226498  1
  O  O170  1  0.18162515  0.87498130  0.85896408  1
  O  O171  1  0.67967998  0.87894140  0.85608315  1
  O  O172  1  0.25447346  0.63036363  0.86064431  1
  O  O173  1  0.75181260  0.60574519  0.86452921  1
  O  O174  1  0.00939937  0.81822875  0.41083908  1
  O  O175  1  0.50930900  0.81776823  0.41033579  1
  O  O176  1  0.40738237  0.97795880  0.41263586  1
  O  O177  1  0.90798596  0.98023602  0.41169756  1
  O  O178  1  0.08350796  0.17616458  0.41100223  1
  O  O179  1  0.58328460  0.17595023  0.41094666  1
  O  O180  1  0.01035257  0.20233324  0.90878426  1
  O  O181  1  0.50924347  0.20142087  0.91082203  1
  O  O182  1  0.08413382  0.99057188  0.90952433  1
  O  O183  1  0.58198982  0.98941944  0.90948889  1
  O  O184  1  0.40746168  0.83618844  0.91057088  1
  O  O185  1  0.90812409  0.83624604  0.91027637  1
  O  O186  1  0.48885367  0.16309377  0.58320749  1
  O  O187  1  0.99025795  0.16477216  0.58294540  1
  O  O188  1  0.10117992  0.02038068  0.58895948  1
  O  O189  1  0.59962842  0.01856800  0.58739251  1
  O  O190  1  0.41212357  0.79750367  0.58719878  1
  O  O191  1  0.91234106  0.79702147  0.58646582  1
  O  O192  1  0.48834751  0.81454561  0.08266631  1
  O  O193  1  0.99367671  0.81409959  0.08299515  1
  O  O194  1  0.41233633  0.02832813  0.08644187  1
  O  O195  1  0.92059549  0.02162373  0.08584540  1
  O  O196  1  0.10290086  0.18306257  0.08700458  1
  O  O197  1  0.59985169  0.17710777  0.08909772  1
  O  O198  1  0.34347318  0.16943253  0.74429158  1
  O  O199  1  0.84823989  0.17682475  0.74861352  1
  O  O200  1  0.24518795  0.32540253  0.74288459  1
  O  O201  1  0.74130225  0.31153654  0.74415741  1
  O  O202  1  0.42038133  0.53883748  0.74370438  1
  O  O203  1  0.92546692  0.53949797  0.74661066  1
  O  O204  1  0.34848560  0.51969541  0.24950478  1
  O  O205  1  0.84361066  0.51463322  0.24661737  1
  O  O206  1  0.42495023  0.31129837  0.24730288  1
  O  O207  1  0.92227303  0.30633046  0.24613187  1
  O  O208  1  0.24057127  0.17093212  0.24434632  1
  O  O209  1  0.74335604  0.16754522  0.24705992  1
  O  O210  1  0.32478728  0.49829747  0.92183851  1
  O  O211  1  0.83038953  0.49956673  0.92436613  1
  O  O212  1  0.43303320  0.34963927  0.92431533  1
  O  O213  1  0.93598612  0.35649491  0.92066494  1
  O  O214  1  0.25372264  0.15009191  0.92235744  1
  O  O215  1  0.75081745  0.15015164  0.92120884  1
  O  O216  1  0.32862939  0.15565104  0.42534367  1
  O  O217  1  0.82511978  0.15135374  0.42291595  1
  O  O218  1  0.25293225  0.35576657  0.42435117  1
  O  O219  1  0.75310515  0.35657211  0.42382719  1
  O  O220  1  0.43391817  0.51651827  0.42387586  1
  O  O221  1  0.93303238  0.51696125  0.42479198  1
  O  O222  1  0.18130690  0.49106200  0.07642491  1
  O  O223  1  0.67802717  0.48452041  0.07881212  1
  O  O224  1  0.07995712  0.65051177  0.08169596  1
  O  O225  1  0.57584189  0.64971192  0.07962523  1
  O  O226  1  0.25997847  0.86985735  0.08002468  1
  O  O227  1  0.75193732  0.85322000  0.08412548  1
  O  O228  1  0.18157755  0.87341338  0.57936301  1
  O  O229  1  0.67917076  0.86971887  0.57679020  1
  O  O230  1  0.25928724  0.64606724  0.58231131  1
  O  O231  1  0.75978048  0.64942750  0.58027179  1
  O  O232  1  0.07963352  0.50451619  0.58035238  1
  O  O233  1  0.57885300  0.50407565  0.58107983  1
  O  O234  1  0.14531157  0.81768412  0.25438188  1
  O  O235  1  0.65313772  0.82469756  0.25775419  1
  O  O236  1  0.25352530  0.66156860  0.24961625  1
  O  O237  1  0.75643758  0.67600397  0.25712380  1
  O  O238  1  0.07348371  0.46488275  0.25714145  1
  O  O239  1  0.57579891  0.46358548  0.25684534  1
  O  O240  1  0.15413638  0.48295872  0.75592971  1
  O  O241  1  0.64653764  0.47681470  0.75498888  1
  O  O242  1  0.07624199  0.68861373  0.75576170  1
  O  O243  1  0.57154023  0.68196724  0.75476305  1
  O  O244  1  0.25587403  0.83486182  0.75532599  1
  O  O245  1  0.75298672  0.84454725  0.74950026  1
