# generated using pymatgen
data_Na14Y3Ta5(SiO4)12
_symmetry_space_group_name_H-M   'P 1'
_cell_length_a   18.51511113
_cell_length_b   9.24913661
_cell_length_c   22.60244358
_cell_angle_alpha   90.03182298
_cell_angle_beta   89.92891950
_cell_angle_gamma   119.95942535
_symmetry_Int_Tables_number   1
_chemical_formula_structural   Na14Y3Ta5(SiO4)12
_chemical_formula_sum   'Na42 Y9 Ta15 Si36 O144'
_cell_volume   3353.44066463
_cell_formula_units_Z   3
loop_
 _symmetry_equiv_pos_site_id
 _symmetry_equiv_pos_as_xyz
  1  'x, y, z'
loop_
 _atom_site_type_symbol
 _atom_site_label
 _atom_site_symmetry_multiplicity
 _atom_site_fract_x
 _atom_site_fract_y
 _atom_site_fract_z
 _atom_site_occupancy
  Na  Na0  1  0.31988678  0.01322239  0.24762168  1
  Na  Na1  1  0.81727139  0.01001759  0.24551262  1
  Na  Na2  1  0.18776996  0.36602476  0.24546120  1
  Na  Na3  1  0.68680236  0.35980141  0.24775477  1
  Na  Na4  1  0.99539973  0.62148570  0.24679131  1
  Na  Na5  1  0.49226835  0.62807117  0.24674913  1
  Na  Na6  1  0.31622930  0.62328983  0.74723767  1
  Na  Na7  1  0.81598291  0.62289698  0.74756945  1
  Na  Na8  1  0.99497073  0.36774108  0.74778873  1
  Na  Na9  1  0.49475880  0.36732909  0.74752378  1
  Na  Na10  1  0.18937802  0.00957951  0.74733518  1
  Na  Na11  1  0.68885365  0.00930340  0.74738610  1
  Na  Na12  1  0.15479892  0.34835543  0.57953118  1
  Na  Na13  1  0.65359424  0.34736604  0.57965867  1
  Na  Na14  1  0.01957001  0.69262850  0.57955684  1
  Na  Na15  1  0.51938457  0.69130665  0.57955054  1
  Na  Na16  1  0.32524847  0.95827452  0.57886236  1
  Na  Na17  1  0.82739261  0.96228160  0.58099779  1
  Na  Na18  1  0.15521999  0.96096534  0.07943816  1
  Na  Na19  1  0.65438140  0.96049888  0.07960096  1
  Na  Na20  1  0.32627978  0.69239199  0.08048991  1
  Na  Na21  1  0.82583669  0.69177941  0.08013511  1
  Na  Na22  1  0.01928241  0.34744111  0.07909999  1
  Na  Na23  1  0.51924884  0.34675027  0.07948731  1
  Na  Na24  1  0.34787676  0.02652079  0.91930106  1
  Na  Na25  1  0.84778557  0.02656533  0.91931025  1
  Na  Na26  1  0.48549976  0.29294887  0.41481213  1
  Na  Na27  1  0.66027917  0.02696370  0.41431135  1
  Na  Na28  1  0.35200840  0.67903665  0.41503809  1
  Na  Na29  1  0.84873901  0.67171816  0.41716347  1
  Na  Na30  1  0.00603953  0.01134531  0.49697927  1
  Na  Na31  1  0.49929820  0.99971591  0.49418540  1
  Na  Na32  1  0.00552105  0.99988885  0.99776061  1
  Na  Na33  1  0.50547112  0.00007094  0.99833798  1
  Na  Na34  1  0.33299464  0.34059306  0.83525309  1
  Na  Na35  1  0.83293610  0.34059778  0.83536934  1
  Na  Na36  1  0.33009983  0.32820581  0.33094481  1
  Na  Na37  1  0.83622768  0.33048580  0.33129561  1
  Na  Na38  1  0.16748919  0.66733019  0.15972058  1
  Na  Na39  1  0.66621145  0.66668676  0.15960349  1
  Na  Na40  1  0.16729600  0.66746079  0.66011598  1
  Na  Na41  1  0.66640599  0.66628938  0.66109757  1
  Y  Y42  1  0.49921551  0.99933738  0.34887639  1
  Y  Y43  1  0.33317303  0.33308051  0.68711286  1
  Y  Y44  1  0.83335474  0.33317675  0.68789745  1
  Y  Y45  1  0.33157744  0.33095734  0.18262031  1
  Y  Y46  1  0.83509500  0.33600581  0.18450606  1
  Y  Y47  1  0.16521020  0.66440909  0.01024378  1
  Y  Y48  1  0.66519838  0.66437067  0.01065587  1
  Y  Y49  1  0.16158478  0.66038484  0.51190476  1
  Y  Y50  1  0.67031090  0.67231357  0.51457527  1
  Ta  Ta51  1  0.00236284  0.00362615  0.35355463  1
  Ta  Ta52  1  0.00152674  0.00019966  0.85401159  1
  Ta  Ta53  1  0.50154589  0.00010327  0.85397742  1
  Ta  Ta54  1  0.00022534  0.99975483  0.64598313  1
  Ta  Ta55  1  0.49984946  -0.00000135  0.64533266  1
  Ta  Ta56  1  0.99998413  0.00014643  0.14536099  1
  Ta  Ta57  1  0.49988979  0.00011515  0.14683709  1
  Ta  Ta58  1  0.33352391  0.33721689  0.97915766  1
  Ta  Ta59  1  0.83352039  0.33706703  0.97930718  1
  Ta  Ta60  1  0.33023659  0.32827968  0.47996437  1
  Ta  Ta61  1  0.83659007  0.33533894  0.47981243  1
  Ta  Ta62  1  0.16669816  0.66796360  0.31551151  1
  Ta  Ta63  1  0.66639944  0.66609002  0.31417854  1
  Ta  Ta64  1  0.16628763  0.66529788  0.81602781  1
  Ta  Ta65  1  0.66614242  0.66515659  0.81606895  1
  Si  Si66  1  0.14139274  0.98963346  0.25074017  1
  Si  Si67  1  0.64684640  0.99276559  0.25093369  1
  Si  Si68  1  0.34829774  0.70606935  0.25071930  1
  Si  Si69  1  0.85493576  0.71713330  0.25216129  1
  Si  Si70  1  0.00440473  0.29138474  0.25145461  1
  Si  Si71  1  0.50393641  0.30225966  0.25078371  1
  Si  Si72  1  0.14106697  0.29221761  0.75112550  1
  Si  Si73  1  0.64083932  0.29195065  0.75099102  1
  Si  Si74  1  0.00470707  0.71776392  0.75147434  1
  Si  Si75  1  0.50468981  0.71798382  0.75118327  1
  Si  Si76  1  0.35416252  0.99041689  0.75193166  1
  Si  Si77  1  0.85398582  0.99003982  0.75197087  1
  Si  Si78  1  0.47952324  0.32830445  0.58452221  1
  Si  Si79  1  0.97931593  0.32675745  0.58590511  1
  Si  Si80  1  0.18388615  0.03928513  0.58578140  1
  Si  Si81  1  0.68497942  0.04389183  0.58454387  1
  Si  Si82  1  0.33542128  0.63092656  0.58428256  1
  Si  Si83  1  0.83697066  0.63184513  0.58533477  1
  Si  Si84  1  0.47996943  0.63231076  0.08419242  1
  Si  Si85  1  0.98070100  0.63240721  0.08441776  1
  Si  Si86  1  0.33571195  0.03792036  0.08347062  1
  Si  Si87  1  0.83599177  0.03994136  0.08333099  1
  Si  Si88  1  0.18345709  0.32755270  0.08356431  1
  Si  Si89  1  0.68453723  0.32787533  0.08473223  1
  Si  Si90  1  0.31682210  0.66449310  0.91561346  1
  Si  Si91  1  0.81680048  0.66452850  0.91567165  1
  Si  Si92  1  0.01523436  0.36614289  0.91635654  1
  Si  Si93  1  0.51527373  0.36609808  0.91639971  1
  Si  Si94  1  0.16723938  0.96955728  0.91664355  1
  Si  Si95  1  0.66728718  0.96963432  0.91662779  1
  Si  Si96  1  0.31301654  0.96787736  0.41837756  1
  Si  Si97  1  0.81744723  0.96947494  0.41530283  1
  Si  Si98  1  0.16719000  0.36644525  0.41664000  1
  Si  Si99  1  0.67039342  0.37104138  0.41793330  1
  Si  Si100  1  0.01616717  0.66560176  0.41618562  1
  Si  Si101  1  0.51534144  0.65901541  0.41821389  1
  O  O102  1  0.08848720  0.00531080  0.30478662  1
  O  O103  1  0.61102411  0.02521991  0.31027235  1
  O  O104  1  0.40071137  0.77684398  0.30998941  1
  O  O105  1  0.91316926  0.81707508  0.30770549  1
  O  O106  1  0.48803653  0.19871887  0.31021886  1
  O  O107  1  0.99496665  0.16771292  0.30500016  1
  O  O108  1  0.08797038  0.17045329  0.80489931  1
  O  O109  1  0.58794599  0.17032881  0.80499167  1
  O  O110  1  0.49522107  0.82258255  0.80499355  1
  O  O111  1  0.99515684  0.82262562  0.80496704  1
  O  O112  1  0.41288050  0.00845696  0.80740286  1
  O  O113  1  0.91290412  0.00839148  0.80735904  1
  O  O114  1  0.40185238  0.96679686  0.69246611  1
  O  O115  1  0.90175105  0.96679731  0.69233130  1
  O  O116  1  0.08249223  0.19869026  0.69116192  1
  O  O117  1  0.58257458  0.19879475  0.69103045  1
  O  O118  1  0.01706096  0.83523239  0.69139804  1
  O  O119  1  0.51725593  0.83554753  0.69119572  1
  O  O120  1  0.40186276  0.83523168  0.19351775  1
  O  O121  1  0.90200075  0.83619021  0.19251199  1
  O  O122  1  0.01680331  0.19806212  0.19144485  1
  O  O123  1  0.51563736  0.19675578  0.19342939  1
  O  O124  1  0.08259726  0.96661520  0.19095593  1
  O  O125  1  0.58261188  0.96902997  0.19362216  1
  O  O126  1  0.44335104  0.36086916  0.64457438  1
  O  O127  1  0.94341843  0.35912898  0.64573426  1
  O  O128  1  0.23573536  0.11050168  0.64581277  1
  O  O129  1  0.73750434  0.11566204  0.64438486  1
  O  O130  1  0.31955246  0.52609184  0.64422233  1
  O  O131  1  0.82056326  0.52601366  0.64488775  1
  O  O132  1  0.44424948  0.52956844  0.14405969  1
  O  O133  1  0.94771954  0.53232575  0.14545364  1
  O  O134  1  0.31797439  0.10537768  0.14401428  1
  O  O135  1  0.82129924  0.11419354  0.14302791  1
  O  O136  1  0.23306532  0.35977686  0.14420415  1
  O  O137  1  0.73616769  0.36280924  0.14517261  1
  O  O138  1  0.23797167  0.30323348  0.02835891  1
  O  O139  1  0.73840929  0.30362172  0.02892556  1
  O  O140  1  0.41435638  0.52339860  0.02843261  1
  O  O141  1  0.91428369  0.52283085  0.02925221  1
  O  O142  1  0.34827221  0.16615773  0.02638216  1
  O  O143  1  0.84856192  0.16620851  0.02573234  1
  O  O144  1  0.23734529  0.17167341  0.52998305  1
  O  O145  1  0.73647359  0.16917724  0.52655935  1
  O  O146  1  0.34816874  0.52944695  0.52664265  1
  O  O147  1  0.84868918  0.52930533  0.52742072  1
  O  O148  1  0.41536356  0.30297033  0.52740436  1
  O  O149  1  0.91503494  0.30563765  0.52922559  1
  O  O150  1  0.28657806  0.71727473  0.97401766  1
  O  O151  1  0.78652403  0.71741877  0.97413478  1
  O  O152  1  0.06554933  0.42649532  0.97686717  1
  O  O153  1  0.56581629  0.42697333  0.97687851  1
  O  O154  1  0.14912958  0.86936462  0.97731240  1
  O  O155  1  0.64937972  0.86919234  0.97729914  1
  O  O156  1  0.27626045  0.85758590  0.47687513  1
  O  O157  1  0.78833542  0.86200254  0.47489874  1
  O  O158  1  0.14786657  0.42583511  0.47798018  1
  O  O159  1  0.65554777  0.44694548  0.47687890  1
  O  O160  1  0.06406887  0.70393324  0.47776932  1
  O  O161  1  0.57019333  0.69405825  0.47643371  1
  O  O162  1  0.06937148  0.64157649  0.36049669  1
  O  O163  1  0.56991331  0.63799179  0.36070924  1
  O  O164  1  0.25056833  0.85906276  0.36034993  1
  O  O165  1  0.74961836  0.86411351  0.36015497  1
  O  O166  1  0.18093128  0.50182535  0.36142066  1
  O  O167  1  0.68226419  0.50146994  0.36057595  1
  O  O168  1  0.07015623  0.49763747  0.86062148  1
  O  O169  1  0.57011037  0.49759626  0.86066522  1
  O  O170  1  0.18087940  0.86011320  0.86128941  1
  O  O171  1  0.68103369  0.86045816  0.86125643  1
  O  O172  1  0.25099471  0.64079720  0.85963099  1
  O  O173  1  0.75106291  0.64100090  0.85968051  1
  O  O174  1  0.99763628  0.81968838  0.40415224  1
  O  O175  1  0.49946927  0.81454629  0.41331918  1
  O  O176  1  0.40667906  0.99963113  0.41311041  1
  O  O177  1  0.90903724  0.98999083  0.40281857  1
  O  O178  1  0.08890728  0.17977861  0.40336504  1
  O  O179  1  0.59230177  0.18449066  0.41328701  1
  O  O180  1  0.99810762  0.17591329  0.90396291  1
  O  O181  1  0.49815289  0.17591669  0.90398023  1
  O  O182  1  0.08813460  0.99653171  0.90340312  1
  O  O183  1  0.58812315  0.99642262  0.90342331  1
  O  O184  1  0.40845141  0.82813421  0.90257773  1
  O  O185  1  0.90844041  0.82828560  0.90261577  1
  O  O186  1  0.48069715  0.14842475  0.58882226  1
  O  O187  1  0.98023870  0.14710064  0.58857851  1
  O  O188  1  0.09327865  0.03832669  0.58895827  1
  O  O189  1  0.59371184  0.03968017  0.58860296  1
  O  O190  1  0.42522694  0.81329305  0.58904619  1
  O  O191  1  0.92656851  0.81384244  0.58894540  1
  O  O192  1  0.48145643  0.81477116  0.08838494  1
  O  O193  1  0.98082896  0.81342094  0.08815836  1
  O  O194  1  0.42601269  0.03677653  0.08886197  1
  O  O195  1  0.92567160  0.03625323  0.08857169  1
  O  O196  1  0.09259268  0.14762179  0.08784921  1
  O  O197  1  0.59348929  0.14862316  0.08902321  1
  O  O198  1  0.34366908  0.15362444  0.75255740  1
  O  O199  1  0.84347594  0.15316723  0.75268671  1
  O  O200  1  0.23259749  0.31220067  0.75252651  1
  O  O201  1  0.73249863  0.31194602  0.75263593  1
  O  O202  1  0.42308302  0.53447005  0.75240607  1
  O  O203  1  0.92316943  0.53474086  0.75263918  1
  O  O204  1  0.33191045  0.51849578  0.24574164  1
  O  O205  1  0.84435035  0.53291266  0.25274584  1
  O  O206  1  0.42587336  0.33363031  0.24602763  1
  O  O207  1  0.92337406  0.31267615  0.25231389  1
  O  O208  1  0.23322467  0.15100306  0.25196752  1
  O  O209  1  0.74036556  0.14930514  0.24629768  1
  O  O210  1  0.32250334  0.49333904  0.92233638  1
  O  O211  1  0.82261698  0.49354188  0.92250025  1
  O  O212  1  0.42179881  0.34819650  0.92108097  1
  O  O213  1  0.92184611  0.34860762  0.92103630  1
  O  O214  1  0.25644707  0.14855212  0.92066696  1
  O  O215  1  0.75640834  0.14885505  0.92078589  1
  O  O216  1  0.31799707  0.15165168  0.42281970  1
  O  O217  1  0.81814061  0.14860055  0.42177726  1
  O  O218  1  0.25730371  0.36816176  0.42153582  1
  O  O219  1  0.75916594  0.36681451  0.42151655  1
  O  O220  1  0.42513888  0.48096246  0.42171848  1
  O  O221  1  0.92292408  0.49406045  0.42179035  1
  O  O222  1  0.16812714  0.48409470  0.07646521  1
  O  O223  1  0.66898425  0.48422716  0.07714947  1
  O  O224  1  0.07440973  0.66442957  0.07720769  1
  O  O225  1  0.57382296  0.66388966  0.07743159  1
  O  O226  1  0.25807159  0.84957549  0.07681708  1
  O  O227  1  0.75804949  0.85155852  0.07759843  1
  O  O228  1  0.16711617  0.85092542  0.57921883  1
  O  O229  1  0.66897658  0.85608449  0.57920905  1
  O  O230  1  0.25737444  0.66288708  0.57808788  1
  O  O231  1  0.76004387  0.66671214  0.58066779  1
  O  O232  1  0.07318003  0.48220771  0.58014174  1
  O  O233  1  0.57369780  0.48290888  0.57869777  1
  O  O234  1  0.14527454  0.81458442  0.25718472  1
  O  O235  1  0.64919023  0.81430545  0.25481254  1
  O  O236  1  0.25734480  0.70446483  0.25434519  1
  O  O237  1  0.76297935  0.70684719  0.25821473  1
  O  O238  1  0.09095989  0.47484912  0.25835087  1
  O  O239  1  0.59430909  0.48345658  0.25478695  1
  O  O240  1  0.14644498  0.47688262  0.75689275  1
  O  O241  1  0.64652831  0.47691123  0.75689605  1
  O  O242  1  0.09157602  0.70723830  0.75775480  1
  O  O243  1  0.59151163  0.70712847  0.75772875  1
  O  O244  1  0.26142010  0.81664404  0.75705130  1
  O  O245  1  0.76136279  0.81647188  0.75690742  1
