# generated using pymatgen
data_Na14Ca5Ge3(PO4)12
_symmetry_space_group_name_H-M   'P 1'
_cell_length_a   18.31123956
_cell_length_b   9.16754495
_cell_length_c   22.26561279
_cell_angle_alpha   89.99461923
_cell_angle_beta   89.98388638
_cell_angle_gamma   119.64576350
_symmetry_Int_Tables_number   1
_chemical_formula_structural   Na14Ca5Ge3(PO4)12
_chemical_formula_sum   'Na42 Ca15 Ge9 P36 O144'
_cell_volume   3248.44281981
_cell_formula_units_Z   3
loop_
 _symmetry_equiv_pos_site_id
 _symmetry_equiv_pos_as_xyz
  1  'x, y, z'
loop_
 _atom_site_type_symbol
 _atom_site_label
 _atom_site_symmetry_multiplicity
 _atom_site_fract_x
 _atom_site_fract_y
 _atom_site_fract_z
 _atom_site_occupancy
  Na  Na0  1  0.18446485  0.36113898  0.24747921  1
  Na  Na1  1  0.68594356  0.36409276  0.24657675  1
  Na  Na2  1  0.99636969  0.63515809  0.24728086  1
  Na  Na3  1  0.49663552  0.63292910  0.24709291  1
  Na  Na4  1  0.31828351  0.63047590  0.74761215  1
  Na  Na5  1  0.81936595  0.62856262  0.74847298  1
  Na  Na6  1  0.18275109  0.00723062  0.74789148  1
  Na  Na7  1  0.68174394  0.00789535  0.74826078  1
  Na  Na8  1  0.15874872  0.33634914  0.58307911  1
  Na  Na9  1  0.65868055  0.33625959  0.58317316  1
  Na  Na10  1  0.01004211  0.68319143  0.58347764  1
  Na  Na11  1  0.50996328  0.68316197  0.58359689  1
  Na  Na12  1  0.33145336  0.97833541  0.58243926  1
  Na  Na13  1  0.83136357  0.97835353  0.58259356  1
  Na  Na14  1  0.15125943  0.96949772  0.08219764  1
  Na  Na15  1  0.65854352  0.97422774  0.08258273  1
  Na  Na16  1  0.33152306  0.68071451  0.08216364  1
  Na  Na17  1  0.01170342  0.34404093  0.08215553  1
  Na  Na18  1  0.51572943  0.33768645  0.08097738  1
  Na  Na19  1  0.48548358  0.67533009  0.91472872  1
  Na  Na20  1  0.98608915  0.67286370  0.91505706  1
  Na  Na21  1  0.35429958  0.03656642  0.91470143  1
  Na  Na22  1  0.16255189  0.28972949  0.91484875  1
  Na  Na23  1  0.66528520  0.29633240  0.91515920  1
  Na  Na24  1  0.48168543  0.29183529  0.41576247  1
  Na  Na25  1  0.98182114  0.29190167  0.41542778  1
  Na  Na26  1  0.16390789  0.03640748  0.41522033  1
  Na  Na27  1  0.66402662  0.03646073  0.41549251  1
  Na  Na28  1  0.35401366  0.67012246  0.41575009  1
  Na  Na29  1  0.85430101  0.67045517  0.41545319  1
  Na  Na30  1  0.99950470  0.00015365  0.49987070  1
  Na  Na31  1  0.49942999  0.00015701  0.50017880  1
  Na  Na32  1  0.98324600  0.98459894  0.99952205  1
  Na  Na33  1  0.50102100  0.00299051  0.00070049  1
  Na  Na34  1  0.34149365  0.33395935  0.83072603  1
  Na  Na35  1  0.84210248  0.31991463  0.83373562  1
  Na  Na36  1  0.33269279  0.31716154  0.33105163  1
  Na  Na37  1  0.83352497  0.31765382  0.33131949  1
  Na  Na38  1  0.17300021  0.67879213  0.16884128  1
  Na  Na39  1  0.68025603  0.68293527  0.16552080  1
  Na  Na40  1  0.16057399  0.65568168  0.66844402  1
  Na  Na41  1  0.65941028  0.65390172  0.66849234  1
  Ca  Ca42  1  0.99844032  0.00133797  0.34606614  1
  Ca  Ca43  1  0.49799513  0.00058180  0.34660164  1
  Ca  Ca44  1  0.99522332  0.00233495  0.85180764  1
  Ca  Ca45  1  0.50123280  0.00490882  0.84757814  1
  Ca  Ca46  1  0.33652327  0.33322905  0.68432320  1
  Ca  Ca47  1  0.83657827  0.33375000  0.68402180  1
  Ca  Ca48  1  0.33298814  0.32605729  0.18353262  1
  Ca  Ca49  1  0.83364887  0.33185449  0.18526177  1
  Ca  Ca50  1  0.33332244  0.33264702  0.98565594  1
  Ca  Ca51  1  0.33376805  0.33319456  0.48622278  1
  Ca  Ca52  1  0.83373072  0.33309477  0.48619682  1
  Ca  Ca53  1  0.16676785  0.66641545  0.01908611  1
  Ca  Ca54  1  0.67095094  0.66814658  0.01904330  1
  Ca  Ca55  1  0.16722123  0.66745123  0.51884849  1
  Ca  Ca56  1  0.66719697  0.66752344  0.51893497  1
  Ge  Ge57  1  -0.00001279  0.00267372  0.65527994  1
  Ge  Ge58  1  0.50029439  0.00383274  0.65603303  1
  Ge  Ge59  1  0.99287066  0.99440392  0.15151211  1
  Ge  Ge60  1  0.49696480  0.99287536  0.15603440  1
  Ge  Ge61  1  0.83351967  0.32848668  0.98385204  1
  Ge  Ge62  1  0.16947418  0.67261874  0.31444057  1
  Ge  Ge63  1  0.67032517  0.67357342  0.31441658  1
  Ge  Ge64  1  0.15777680  0.65445882  0.81670085  1
  Ge  Ge65  1  0.67034761  0.66595244  0.81620035  1
  P  P66  1  0.14432907  0.98277889  0.25055280  1
  P  P67  1  0.64538689  0.98426220  0.25214619  1
  P  P68  1  0.34486137  0.70712478  0.25161493  1
  P  P69  1  0.84669472  0.71330496  0.25076004  1
  P  P70  1  0.00867047  0.31135397  0.25116862  1
  P  P71  1  0.51000966  0.31157852  0.25049349  1
  P  P72  1  0.14350354  0.30607616  0.75302131  1
  P  P73  1  0.64631378  0.30998955  0.75121083  1
  P  P74  1  0.00738742  0.71126642  0.75272304  1
  P  P75  1  0.50843291  0.71014259  0.75287943  1
  P  P76  1  0.34400303  0.98096801  0.75205375  1
  P  P77  1  0.84417687  0.98091018  0.75092773  1
  P  P78  1  0.48688928  0.31469740  0.58618648  1
  P  P79  1  0.98704224  0.31498857  0.58622048  1
  P  P80  1  0.17055505  0.02697068  0.58941671  1
  P  P81  1  0.67046532  0.02692711  0.58928628  1
  P  P82  1  0.34277668  0.65896859  0.58948260  1
  P  P83  1  0.84273999  0.65885789  0.58931735  1
  P  P84  1  0.48670969  0.65680934  0.08944366  1
  P  P85  1  0.97567974  0.64139654  0.08405060  1
  P  P86  1  0.34341589  0.02666128  0.08645515  1
  P  P87  1  0.84117794  0.04863437  0.08334850  1
  P  P88  1  0.16909120  0.31131602  0.08993671  1
  P  P89  1  0.67998906  0.31525178  0.08486276  1
  P  P90  1  0.30845876  0.65904053  0.91209063  1
  P  P91  1  0.81186899  0.64575845  0.91581689  1
  P  P92  1  0.01449744  0.37911071  0.91979115  1
  P  P93  1  0.52266861  0.38585091  0.91376327  1
  P  P94  1  0.16951351  0.95836635  0.91196473  1
  P  P95  1  0.67653120  0.97050161  0.91752911  1
  P  P96  1  0.30909828  0.95751661  0.41338811  1
  P  P97  1  0.80941084  0.95787249  0.41348036  1
  P  P98  1  0.16985517  0.38154187  0.41177830  1
  P  P99  1  0.66990344  0.38168369  0.41172459  1
  P  P100  1  0.02134022  0.66143273  0.41176858  1
  P  P101  1  0.52148706  0.66126492  0.41158027  1
  O  O102  1  0.10857152  0.00540535  0.30882916  1
  O  O103  1  0.60863774  0.00561812  0.30985249  1
  O  O104  1  0.39476848  0.77577037  0.30870928  1
  O  O105  1  0.89434252  0.77663433  0.30885337  1
  O  O106  1  0.49909840  0.21884371  0.30857766  1
  O  O107  1  0.99869879  0.22035519  0.30946448  1
  O  O108  1  0.10899451  0.20491463  0.80955178  1
  O  O109  1  0.61188957  0.21069862  0.80823944  1
  O  O110  1  0.49634127  0.78155516  0.81081716  1
  O  O111  1  0.99818624  0.78878345  0.80943027  1
  O  O112  1  0.39071374  0.00212815  0.80996495  1
  O  O113  1  0.89460473  0.00447935  0.80561066  1
  O  O114  1  0.39607388  0.96279999  0.69664745  1
  O  O115  1  0.89011675  0.95749395  0.69302706  1
  O  O116  1  0.08685228  0.21259458  0.69577475  1
  O  O117  1  0.58833548  0.21438221  0.69489177  1
  O  O118  1  0.02229902  0.83325009  0.69656003  1
  O  O119  1  0.52240798  0.83477741  0.69757620  1
  O  O120  1  0.39328629  0.82389226  0.19518243  1
  O  O121  1  0.89586815  0.83529087  0.19541481  1
  O  O122  1  0.01730589  0.20861974  0.19550362  1
  O  O123  1  0.52028878  0.20796242  0.19458671  1
  O  O124  1  0.08153007  0.94938051  0.19538643  1
  O  O125  1  0.58180577  0.95399002  0.19678353  1
  O  O126  1  0.44161412  0.35016655  0.63543263  1
  O  O127  1  0.94187545  0.35041011  0.63563814  1
  O  O128  1  0.22704425  0.11141324  0.64281938  1
  O  O129  1  0.72725484  0.11175694  0.64250640  1
  O  O130  1  0.32789940  0.54486920  0.64280787  1
  O  O131  1  0.82818072  0.54548426  0.64281415  1
  O  O132  1  0.44376489  0.54633006  0.14301781  1
  O  O133  1  0.94104910  0.53860679  0.14050419  1
  O  O134  1  0.32601924  0.11603293  0.13601672  1
  O  O135  1  0.82711214  0.12575218  0.13819208  1
  O  O136  1  0.22542335  0.34052691  0.14352967  1
  O  O137  1  0.72766919  0.33752223  0.14218043  1
  O  O138  1  0.20443380  0.27709179  0.03191283  1
  O  O139  1  0.72836775  0.28899619  0.02767346  1
  O  O140  1  0.43420715  0.59031263  0.03149864  1
  O  O141  1  0.92034623  0.54689627  0.02595006  1
  O  O142  1  0.36237240  0.12357225  0.02642465  1
  O  O143  1  0.86006014  0.17446867  0.02649128  1
  O  O144  1  0.20516304  0.13154435  0.53132001  1
  O  O145  1  0.70495335  0.13137142  0.53114144  1
  O  O146  1  0.36072247  0.58968001  0.53125416  1
  O  O147  1  0.86054741  0.58932190  0.53113472  1
  O  O148  1  0.43771961  0.27590870  0.52623495  1
  O  O149  1  0.93774011  0.27582186  0.52639245  1
  O  O150  1  0.27131620  0.67579743  0.97071458  1
  O  O151  1  0.77072998  0.66838547  0.97026863  1
  O  O152  1  0.06160204  0.45088576  0.97769080  1
  O  O153  1  0.56590608  0.45742807  0.97318315  1
  O  O154  1  0.16180362  0.86589901  0.97016809  1
  O  O155  1  0.66071069  0.86941235  0.97433354  1
  O  O156  1  0.27341035  0.86925385  0.47288426  1
  O  O157  1  0.77333496  0.86904963  0.47280944  1
  O  O158  1  0.16190530  0.45798906  0.47006893  1
  O  O159  1  0.66195709  0.45836508  0.46992595  1
  O  O160  1  0.06734279  0.67723697  0.47018240  1
  O  O161  1  0.56750618  0.67718731  0.46999182  1
  O  O162  1  0.07169494  0.64652253  0.35471402  1
  O  O163  1  0.57198345  0.64645858  0.35441403  1
  O  O164  1  0.24917141  0.85439137  0.35873196  1
  O  O165  1  0.74933378  0.85509869  0.35864692  1
  O  O166  1  0.17748892  0.49744861  0.35475408  1
  O  O167  1  0.67774947  0.49764694  0.35446485  1
  O  O168  1  0.05977885  0.50469488  0.86419225  1
  O  O169  1  0.57655242  0.51169066  0.85951443  1
  O  O170  1  0.17628377  0.85484745  0.85499431  1
  O  O171  1  0.68710039  0.88040425  0.85915506  1
  O  O172  1  0.24713943  0.64031599  0.85619824  1
  O  O173  1  0.75611932  0.62156100  0.85644739  1
  O  O174  1  0.01025040  0.81717490  0.40838168  1
  O  O175  1  0.51028176  0.81685422  0.40829968  1
  O  O176  1  0.39758721  0.97756448  0.40888431  1
  O  O177  1  0.89776545  0.97773161  0.40895039  1
  O  O178  1  0.09211580  0.20527058  0.40812354  1
  O  O179  1  0.59201423  0.20562729  0.40803382  1
  O  O180  1  0.00664871  0.20835880  0.91080564  1
  O  O181  1  0.51294828  0.21012381  0.90848080  1
  O  O182  1  0.09259315  0.98203541  0.90830264  1
  O  O183  1  0.60112667  0.00095909  0.90989273  1
  O  O184  1  0.39656892  0.81435294  0.90763226  1
  O  O185  1  0.90167261  0.78744725  0.91012277  1
  O  O186  1  0.48943029  0.14679220  0.59780945  1
  O  O187  1  0.98959262  0.14697632  0.59786037  1
  O  O188  1  0.08260839  0.02022207  0.59762847  1
  O  O189  1  0.58236789  0.01962709  0.59764360  1
  O  O190  1  0.42663336  0.83413039  0.59809822  1
  O  O191  1  0.92705110  0.83373823  0.59756566  1
  O  O192  1  0.48974669  0.83386456  0.09773234  1
  O  O193  1  0.98262223  0.82159613  0.08900017  1
  O  O194  1  0.42952204  0.02438139  0.09751220  1
  O  O195  1  0.92610596  0.04277688  0.08881529  1
  O  O196  1  0.08118876  0.14018949  0.09750446  1
  O  O197  1  0.59399021  0.14525299  0.08634856  1
  O  O198  1  0.32616030  0.12552299  0.74462105  1
  O  O199  1  0.82353307  0.12163638  0.74347294  1
  O  O200  1  0.23337505  0.33793682  0.74315918  1
  O  O201  1  0.73511819  0.33628475  0.74229775  1
  O  O202  1  0.43211375  0.53872283  0.74331570  1
  O  O203  1  0.93080467  0.53877937  0.74437875  1
  O  O204  1  0.33130877  0.52959612  0.24243695  1
  O  O205  1  0.83322258  0.53658592  0.24108719  1
  O  O206  1  0.43798384  0.34720064  0.24281680  1
  O  O207  1  0.93755572  0.35077659  0.24481154  1
  O  O208  1  0.23019263  0.13607146  0.24213442  1
  O  O209  1  0.73057235  0.13794067  0.24323212  1
  O  O210  1  0.31375377  0.49629957  0.90916055  1
  O  O211  1  0.81333259  0.47282377  0.91996016  1
  O  O212  1  0.43621525  0.37616038  0.90962481  1
  O  O213  1  0.92589989  0.37440814  0.92247281  1
  O  O214  1  0.25179341  0.12908921  0.90851887  1
  O  O215  1  0.75927499  0.15191254  0.92260572  1
  O  O216  1  0.31401263  0.13108235  0.41068230  1
  O  O217  1  0.81406143  0.13118604  0.41075573  1
  O  O218  1  0.25157696  0.37110022  0.40921522  1
  O  O219  1  0.75153424  0.37092095  0.40917412  1
  O  O220  1  0.43532291  0.49803276  0.40879820  1
  O  O221  1  0.93509891  0.49820653  0.40906895  1
  O  O222  1  0.15399081  0.46117188  0.08588238  1
  O  O223  1  0.66021557  0.45713611  0.07753177  1
  O  O224  1  0.06638389  0.67469428  0.07620208  1
  O  O225  1  0.57635673  0.68615390  0.08555313  1
  O  O226  1  0.27014354  0.84505097  0.08444687  1
  O  O227  1  0.76598215  0.87640059  0.07467121  1
  O  O228  1  0.15464509  0.84658711  0.58535128  1
  O  O229  1  0.65462951  0.84657487  0.58530649  1
  O  O230  1  0.26810801  0.69040759  0.58535406  1
  O  O231  1  0.76818790  0.69055666  0.58528507  1
  O  O232  1  0.07758898  0.46164861  0.58371794  1
  O  O233  1  0.57752229  0.46161566  0.58363970  1
  O  O234  1  0.14823884  0.81162364  0.25304556  1
  O  O235  1  0.64822570  0.81312673  0.25277039  1
  O  O236  1  0.25554882  0.69485368  0.25401662  1
  O  O237  1  0.75645062  0.69824699  0.25329798  1
  O  O238  1  0.09503571  0.48372626  0.25022572  1
  O  O239  1  0.59563945  0.48362884  0.24958872  1
  O  O240  1  0.14906007  0.48599337  0.75724404  1
  O  O241  1  0.65378752  0.49036059  0.75442704  1
  O  O242  1  0.09292115  0.70238152  0.75419282  1
  O  O243  1  0.59543173  0.70877022  0.75500243  1
  O  O244  1  0.25819270  0.81033084  0.75043254  1
  O  O245  1  0.75725931  0.80719827  0.75401548  1
