# generated using pymatgen
data_Na3LaTaSi2PO12
_symmetry_space_group_name_H-M   'P 1'
_cell_length_a   16.44168376
_cell_length_b   28.26737763
_cell_length_c   9.18576994
_cell_angle_alpha   90.00000000
_cell_angle_beta   125.89811732
_cell_angle_gamma   90.00000000
_symmetry_Int_Tables_number   1
_chemical_formula_structural   Na3LaTaSi2PO12
_chemical_formula_sum   'Na36 La12 Ta12 Si24 P12 O144'
_cell_volume   3458.31899213
_cell_formula_units_Z   12
loop_
 _symmetry_equiv_pos_site_id
 _symmetry_equiv_pos_as_xyz
  1  'x, y, z'
loop_
 _atom_site_type_symbol
 _atom_site_label
 _atom_site_symmetry_multiplicity
 _atom_site_fract_x
 _atom_site_fract_y
 _atom_site_fract_z
 _atom_site_occupancy
  Na  Na0  1  0.24659414  0.25748381  0.99680130  1
  Na  Na1  1  0.23818327  0.58824776  0.00276994  1
  Na  Na2  1  0.23752222  0.92101367  0.00076358  1
  Na  Na3  1  0.74659414  0.24251619  0.49680130  1
  Na  Na4  1  0.73752222  0.57898633  0.50076358  1
  Na  Na5  1  0.73818327  0.91175224  0.50276994  1
  Na  Na6  1  0.73818327  0.08824776  0.00276994  1
  Na  Na7  1  0.73752222  0.42101367  0.00076358  1
  Na  Na8  1  0.74659414  0.75748381  0.99680130  1
  Na  Na9  1  0.23752222  0.07898633  0.50076358  1
  Na  Na10  1  0.23818327  0.41175224  0.50276994  1
  Na  Na11  1  0.24659414  0.74251619  0.49680130  1
  Na  Na12  1  0.49393005  0.02982558  0.75794647  1
  Na  Na13  1  0.49664427  0.36388789  0.76561604  1
  Na  Na14  1  0.49438958  0.69659772  0.75907591  1
  Na  Na15  1  0.49438958  0.30340228  0.25907591  1
  Na  Na16  1  0.49664427  0.63611211  0.26561604  1
  Na  Na17  1  0.49393005  0.97017442  0.25794647  1
  Na  Na18  1  0.99438958  0.19659772  0.75907591  1
  Na  Na19  1  0.99393005  0.52982558  0.75794647  1
  Na  Na20  1  0.99664427  0.86388789  0.76561604  1
  Na  Na21  1  0.99664427  0.13611211  0.26561604  1
  Na  Na22  1  0.99393005  0.47017442  0.25794647  1
  Na  Na23  1  0.99438958  0.80340228  0.25907591  1
  Na  Na24  1  0.82316624  0.64345255  0.20363063  1
  Na  Na25  1  0.82221868  0.97628937  0.20636417  1
  Na  Na26  1  0.18766882  0.30477789  0.28789780  1
  Na  Na27  1  0.18766882  0.69522211  0.78789780  1
  Na  Na28  1  0.82221868  0.02371063  0.70636417  1
  Na  Na29  1  0.82316624  0.35654745  0.70363063  1
  Na  Na30  1  0.32316624  0.14345255  0.20363063  1
  Na  Na31  1  0.32221868  0.47628937  0.20636417  1
  Na  Na32  1  0.68766882  0.80477789  0.28789780  1
  Na  Na33  1  0.68766882  0.19522211  0.78789780  1
  Na  Na34  1  0.32221868  0.52371063  0.70636417  1
  Na  Na35  1  0.32316624  0.85654745  0.70363063  1
  La  La36  1  0.90161882  0.25164577  0.95498872  1
  La  La37  1  0.88956522  0.58396755  0.92468240  1
  La  La38  1  0.88952415  0.91491765  0.93140295  1
  La  La39  1  0.88952415  0.08508235  0.43140295  1
  La  La40  1  0.88956522  0.41603245  0.42468240  1
  La  La41  1  0.90161882  0.74835423  0.45498872  1
  La  La42  1  0.38956522  0.08396755  0.92468240  1
  La  La43  1  0.38952415  0.41491765  0.93140295  1
  La  La44  1  0.40161882  0.75164577  0.95498872  1
  La  La45  1  0.40161882  0.24835423  0.45498872  1
  La  La46  1  0.38952415  0.58508235  0.43140295  1
  La  La47  1  0.38956522  0.91603245  0.42468240  1
  Ta  Ta48  1  0.10494505  0.24835098  0.56157743  1
  Ta  Ta49  1  0.10670745  0.58248481  0.56483173  1
  Ta  Ta50  1  0.10651029  0.91672775  0.56545480  1
  Ta  Ta51  1  0.10651029  0.08327225  0.06545480  1
  Ta  Ta52  1  0.10670745  0.41751519  0.06483173  1
  Ta  Ta53  1  0.10494505  0.75164902  0.06157743  1
  Ta  Ta54  1  0.60670745  0.08248481  0.56483173  1
  Ta  Ta55  1  0.60651029  0.41672775  0.56545480  1
  Ta  Ta56  1  0.60494505  0.74835098  0.56157743  1
  Ta  Ta57  1  0.60494505  0.25164902  0.06157743  1
  Ta  Ta58  1  0.60651029  0.58327225  0.06545480  1
  Ta  Ta59  1  0.60670745  0.91751519  0.06483173  1
  Si  Si60  1  0.34231085  0.29235026  0.74514755  1
  Si  Si61  1  0.34880776  0.62653286  0.76541879  1
  Si  Si62  1  0.34823903  0.95834494  0.75757566  1
  Si  Si63  1  0.64511194  0.30673808  0.74477918  1
  Si  Si64  1  0.64013466  0.63826824  0.73936106  1
  Si  Si65  1  0.64212219  0.97293397  0.74041602  1
  Si  Si66  1  0.64212219  0.02706603  0.24041602  1
  Si  Si67  1  0.64013466  0.36173176  0.23936106  1
  Si  Si68  1  0.64511194  0.69326192  0.24477918  1
  Si  Si69  1  0.34823903  0.04165506  0.25757566  1
  Si  Si70  1  0.34880776  0.37346714  0.26541879  1
  Si  Si71  1  0.34231085  0.70764974  0.24514755  1
  Si  Si72  1  0.84880776  0.12653286  0.76541879  1
  Si  Si73  1  0.84823903  0.45834494  0.75757566  1
  Si  Si74  1  0.84231085  0.79235026  0.74514755  1
  Si  Si75  1  0.14013466  0.13826824  0.73936106  1
  Si  Si76  1  0.14212219  0.47293397  0.74041602  1
  Si  Si77  1  0.14511194  0.80673808  0.74477918  1
  Si  Si78  1  0.14511194  0.19326192  0.24477918  1
  Si  Si79  1  0.14212219  0.52706603  0.24041602  1
  Si  Si80  1  0.14013466  0.86173176  0.23936106  1
  Si  Si81  1  0.84231085  0.20764974  0.24514755  1
  Si  Si82  1  0.84823903  0.54165506  0.25757566  1
  Si  Si83  1  0.84880776  0.87346714  0.26541879  1
  P  P84  1  0.01753120  0.31843843  0.75821812  1
  P  P85  1  0.01551480  0.64991521  0.74946446  1
  P  P86  1  0.01480774  0.98612242  0.75114970  1
  P  P87  1  0.01480774  0.01387758  0.25114970  1
  P  P88  1  0.01551480  0.35008479  0.24946446  1
  P  P89  1  0.01753120  0.68156157  0.25821812  1
  P  P90  1  0.51551480  0.14991521  0.74946446  1
  P  P91  1  0.51480774  0.48612242  0.75114970  1
  P  P92  1  0.51753120  0.81843843  0.75821812  1
  P  P93  1  0.51753120  0.18156157  0.25821812  1
  P  P94  1  0.51480774  0.51387758  0.25114970  1
  P  P95  1  0.51551480  0.85008479  0.24946446  1
  O  O96  1  0.13811531  0.19847711  0.74200299  1
  O  O97  1  0.14080432  0.53272595  0.75131405  1
  O  O98  1  0.14316427  0.86571063  0.75173344  1
  O  O99  1  0.83618701  0.18385258  0.75256930  1
  O  O100  1  0.84261345  0.51499709  0.74187518  1
  O  O101  1  0.83789154  0.84977123  0.74339307  1
  O  O102  1  0.83789154  0.15022877  0.24339307  1
  O  O103  1  0.84261345  0.48500291  0.24187518  1
  O  O104  1  0.83618701  0.81614742  0.25256930  1
  O  O105  1  0.14316427  0.13428937  0.25173344  1
  O  O106  1  0.14080432  0.46727405  0.25131405  1
  O  O107  1  0.13811531  0.80152289  0.24200299  1
  O  O108  1  0.64080432  0.03272595  0.75131405  1
  O  O109  1  0.64316427  0.36571063  0.75173344  1
  O  O110  1  0.63811531  0.69847711  0.74200299  1
  O  O111  1  0.34261345  0.01499709  0.74187518  1
  O  O112  1  0.33789154  0.34977123  0.74339307  1
  O  O113  1  0.33618701  0.68385258  0.75256930  1
  O  O114  1  0.33618701  0.31614742  0.25256930  1
  O  O115  1  0.33789154  0.65022877  0.24339307  1
  O  O116  1  0.34261345  0.98500291  0.24187518  1
  O  O117  1  0.63811531  0.30152289  0.24200299  1
  O  O118  1  0.64316427  0.63428937  0.25173344  1
  O  O119  1  0.64080432  0.96727405  0.25131405  1
  O  O120  1  0.44902005  0.17280465  0.56381213  1
  O  O121  1  0.44609859  0.51166647  0.57361677  1
  O  O122  1  0.45173987  0.84766545  0.59105868  1
  O  O123  1  0.56747609  0.18928841  0.90176729  1
  O  O124  1  0.56930523  0.52405648  0.91155498  1
  O  O125  1  0.57755486  0.85319987  0.92958280  1
  O  O126  1  0.57755486  0.14680013  0.42958280  1
  O  O127  1  0.56930523  0.47594352  0.41155498  1
  O  O128  1  0.56747609  0.81071159  0.40176729  1
  O  O129  1  0.45173987  0.15233455  0.09105868  1
  O  O130  1  0.44609859  0.48833353  0.07361677  1
  O  O131  1  0.44902005  0.82719535  0.06381213  1
  O  O132  1  0.94609859  0.01166647  0.57361677  1
  O  O133  1  0.95173987  0.34766545  0.59105868  1
  O  O134  1  0.94902005  0.67280465  0.56381213  1
  O  O135  1  0.06930523  0.02405648  0.91155498  1
  O  O136  1  0.07755486  0.35319987  0.92958280  1
  O  O137  1  0.06747609  0.68928841  0.90176729  1
  O  O138  1  0.06747609  0.31071159  0.40176729  1
  O  O139  1  0.07755486  0.64680013  0.42958280  1
  O  O140  1  0.06930523  0.97594352  0.41155498  1
  O  O141  1  0.94902005  0.32719535  0.06381213  1
  O  O142  1  0.95173987  0.65233455  0.09105868  1
  O  O143  1  0.94609859  0.98833353  0.07361677  1
  O  O144  1  0.24833540  0.26857418  0.74097536  1
  O  O145  1  0.25475880  0.60049811  0.75748092  1
  O  O146  1  0.25275990  0.93430926  0.75145837  1
  O  O147  1  0.74102788  0.28882482  0.75184779  1
  O  O148  1  0.73286633  0.61986168  0.74274161  1
  O  O149  1  0.73881008  0.95947397  0.74467473  1
  O  O150  1  0.73881008  0.04052603  0.24467473  1
  O  O151  1  0.73286633  0.38013832  0.24274161  1
  O  O152  1  0.74102788  0.71117518  0.25184779  1
  O  O153  1  0.25275990  0.06569074  0.25145837  1
  O  O154  1  0.25475880  0.39950189  0.25748092  1
  O  O155  1  0.24833540  0.73142582  0.24097536  1
  O  O156  1  0.75475880  0.10049811  0.75748092  1
  O  O157  1  0.75275990  0.43430926  0.75145837  1
  O  O158  1  0.74833540  0.76857418  0.74097536  1
  O  O159  1  0.23286633  0.11986168  0.74274161  1
  O  O160  1  0.23881008  0.45947397  0.74467473  1
  O  O161  1  0.24102788  0.78882482  0.75184779  1
  O  O162  1  0.24102788  0.21117518  0.25184779  1
  O  O163  1  0.23881008  0.54052603  0.24467473  1
  O  O164  1  0.23286633  0.88013832  0.24274161  1
  O  O165  1  0.74833540  0.23142582  0.24097536  1
  O  O166  1  0.75275990  0.56569074  0.25145837  1
  O  O167  1  0.75475880  0.89950189  0.25748092  1
  O  O168  1  0.31990434  0.27909534  0.55441915  1
  O  O169  1  0.33768152  0.60491561  0.59448498  1
  O  O170  1  0.33957439  0.93270865  0.59471844  1
  O  O171  1  0.63256820  0.28579436  0.90883131  1
  O  O172  1  0.63447479  0.62062647  0.91712692  1
  O  O173  1  0.63828516  0.95309230  0.91901079  1
  O  O174  1  0.63828516  0.04690770  0.41901079  1
  O  O175  1  0.63447479  0.37937353  0.41712692  1
  O  O176  1  0.63256820  0.71420564  0.40883131  1
  O  O177  1  0.33957439  0.06729135  0.09471844  1
  O  O178  1  0.33768152  0.39508439  0.09448498  1
  O  O179  1  0.31990434  0.72090466  0.05441915  1
  O  O180  1  0.83768152  0.10491561  0.59448498  1
  O  O181  1  0.83957439  0.43270865  0.59471844  1
  O  O182  1  0.81990434  0.77909534  0.55441915  1
  O  O183  1  0.13447479  0.12062647  0.91712692  1
  O  O184  1  0.13828516  0.45309230  0.91901079  1
  O  O185  1  0.13256820  0.78579436  0.90883131  1
  O  O186  1  0.13256820  0.21420564  0.40883131  1
  O  O187  1  0.13828516  0.54690770  0.41901079  1
  O  O188  1  0.13447479  0.87937353  0.41712692  1
  O  O189  1  0.81990434  0.22090466  0.05441915  1
  O  O190  1  0.83957439  0.56729135  0.09471844  1
  O  O191  1  0.83768152  0.89508439  0.09448498  1
  O  O192  1  0.45822081  0.27042031  0.91364228  1
  O  O193  1  0.46347706  0.60567836  0.94342878  1
  O  O194  1  0.46524517  0.93706324  0.93905412  1
  O  O195  1  0.54428093  0.29024699  0.55788553  1
  O  O196  1  0.53519523  0.62545363  0.55584442  1
  O  O197  1  0.53954523  0.95768881  0.55941879  1
  O  O198  1  0.53954523  0.04231119  0.05941879  1
  O  O199  1  0.53519523  0.37454637  0.05584442  1
  O  O200  1  0.54428093  0.70975301  0.05788553  1
  O  O201  1  0.46524517  0.06293676  0.43905412  1
  O  O202  1  0.46347706  0.39432164  0.44342878  1
  O  O203  1  0.45822081  0.72957969  0.41364228  1
  O  O204  1  0.96347706  0.10567836  0.94342878  1
  O  O205  1  0.96524517  0.43706324  0.93905412  1
  O  O206  1  0.95822081  0.77042031  0.91364228  1
  O  O207  1  0.03519523  0.12545363  0.55584442  1
  O  O208  1  0.03954523  0.45768881  0.55941879  1
  O  O209  1  0.04428093  0.79024699  0.55788553  1
  O  O210  1  0.04428093  0.20975301  0.05788553  1
  O  O211  1  0.03954523  0.54231119  0.05941879  1
  O  O212  1  0.03519523  0.87454637  0.05584442  1
  O  O213  1  0.95822081  0.22957969  0.41364228  1
  O  O214  1  0.96524517  0.56293676  0.43905412  1
  O  O215  1  0.96347706  0.89432164  0.44342878  1
  O  O216  1  0.09515545  0.28928421  0.74906490  1
  O  O217  1  0.10407221  0.62544703  0.75698647  1
  O  O218  1  0.09592215  0.95748692  0.75108392  1
  O  O219  1  0.94922105  0.28374885  0.76911925  1
  O  O220  1  0.95596735  0.61218733  0.76630475  1
  O  O221  1  0.94891156  0.95222017  0.77078133  1
  O  O222  1  0.94891156  0.04777983  0.27078133  1
  O  O223  1  0.95596735  0.38781267  0.26630475  1
  O  O224  1  0.94922105  0.71625115  0.26911925  1
  O  O225  1  0.09592215  0.04251308  0.25108392  1
  O  O226  1  0.10407221  0.37455297  0.25698647  1
  O  O227  1  0.09515545  0.71071579  0.24906490  1
  O  O228  1  0.60407221  0.12544703  0.75698647  1
  O  O229  1  0.59592215  0.45748692  0.75108392  1
  O  O230  1  0.59515545  0.78928421  0.74906490  1
  O  O231  1  0.45596735  0.11218733  0.76630475  1
  O  O232  1  0.44891156  0.45222017  0.77078133  1
  O  O233  1  0.44922105  0.78374885  0.76911925  1
  O  O234  1  0.44922105  0.21625115  0.26911925  1
  O  O235  1  0.44891156  0.54777983  0.27078133  1
  O  O236  1  0.45596735  0.88781267  0.26630475  1
  O  O237  1  0.59515545  0.21071579  0.24906490  1
  O  O238  1  0.59592215  0.54251308  0.25108392  1
  O  O239  1  0.60407221  0.87455297  0.25698647  1
