# generated using pymatgen
data_Na2Hf4Zr4Si5S7O48
_symmetry_space_group_name_H-M   'P 1'
_cell_length_a   18.01517741
_cell_length_b   9.01278911
_cell_length_c   23.42663263
_cell_angle_alpha   89.94267722
_cell_angle_beta   89.99866546
_cell_angle_gamma   120.08052928
_symmetry_Int_Tables_number   1
_chemical_formula_structural   Na2Hf4Zr4Si5S7O48
_chemical_formula_sum   'Na6 Hf12 Zr12 Si15 S21 O144'
_cell_volume   3291.43260022
_cell_formula_units_Z   3
loop_
 _symmetry_equiv_pos_site_id
 _symmetry_equiv_pos_as_xyz
  1  'x, y, z'
loop_
 _atom_site_type_symbol
 _atom_site_label
 _atom_site_symmetry_multiplicity
 _atom_site_fract_x
 _atom_site_fract_y
 _atom_site_fract_z
 _atom_site_occupancy
  Na  Na0  1  0.99450423  0.99964288  0.49896040  1
  Na  Na1  1  0.49351486  0.99175152  0.99265339  1
  Na  Na2  1  0.34234114  0.35021915  0.83525787  1
  Na  Na3  1  0.83336341  0.34245735  0.82930148  1
  Na  Na4  1  0.33599608  0.32846896  0.33108237  1
  Na  Na5  1  0.83618924  0.33254999  0.33982096  1
  Hf  Hf6  1  0.49853744  0.00506134  0.35789452  1
  Hf  Hf7  1  0.99762708  0.99128453  0.85748975  1
  Hf  Hf8  1  0.50255556  0.99375215  0.64755293  1
  Hf  Hf9  1  0.00207925  0.99856471  0.14365493  1
  Hf  Hf10  1  0.33720880  0.34997232  0.68613569  1
  Hf  Hf11  1  0.83195169  0.32382692  0.18344929  1
  Hf  Hf12  1  0.16781089  0.65509823  0.01628325  1
  Hf  Hf13  1  0.66113628  0.66297118  0.02463934  1
  Hf  Hf14  1  0.16164039  0.66113539  0.52712210  1
  Hf  Hf15  1  0.66690255  0.68133420  0.51815449  1
  Hf  Hf16  1  0.66130427  0.66597133  0.31341294  1
  Hf  Hf17  1  0.16289610  0.65727596  0.81231644  1
  Zr  Zr18  1  0.00070430  0.98950753  0.35682302  1
  Zr  Zr19  1  0.49904523  -0.00010738  0.85241769  1
  Zr  Zr20  1  0.00000669  0.99644417  0.64784223  1
  Zr  Zr21  1  0.49884068  0.00326967  0.14667019  1
  Zr  Zr22  1  0.83940883  0.34725808  0.69023923  1
  Zr  Zr23  1  0.34053055  0.33160125  0.18944736  1
  Zr  Zr24  1  0.34183045  0.35703895  0.97590314  1
  Zr  Zr25  1  0.83995151  0.32517285  0.97827069  1
  Zr  Zr26  1  0.34091590  0.35504183  0.48134368  1
  Zr  Zr27  1  0.84034462  0.32418970  0.47804556  1
  Zr  Zr28  1  0.15991656  0.67432173  0.30999245  1
  Zr  Zr29  1  0.65457167  0.64330105  0.80662889  1
  Si  Si30  1  0.14438130  0.00837960  0.24899183  1
  Si  Si31  1  0.50367823  0.29143028  0.25178627  1
  Si  Si32  1  0.64411957  0.28065625  0.74858519  1
  Si  Si33  1  0.00359241  0.71521792  0.75194875  1
  Si  Si34  1  0.49783398  0.71127458  0.75070152  1
  Si  Si35  1  0.97759210  0.32562233  0.58501058  1
  Si  Si36  1  0.33482055  0.63282715  0.58438790  1
  Si  Si37  1  0.47827308  0.62871047  0.08440065  1
  Si  Si38  1  0.83386946  0.03773521  0.08358812  1
  Si  Si39  1  0.31195356  0.67115791  0.91451151  1
  Si  Si40  1  0.02356917  0.37563726  0.91495063  1
  Si  Si41  1  0.52406949  0.37287534  0.91830888  1
  Si  Si42  1  0.81006067  0.95205979  0.41454271  1
  Si  Si43  1  0.02315956  0.66557079  0.41888972  1
  Si  Si44  1  0.52204470  0.66903719  0.41552052  1
  S  S45  1  0.64546521  0.00390819  0.25063033  1
  S  S46  1  0.35612517  0.71231445  0.25196578  1
  S  S47  1  0.85501359  0.70806278  0.24875894  1
  S  S48  1  0.99808486  0.28650264  0.24896072  1
  S  S49  1  0.14468469  0.28588253  0.75089480  1
  S  S50  1  0.35361153  0.00049238  0.74871246  1
  S  S51  1  0.85696360  0.00023217  0.75193408  1
  S  S52  1  0.47902970  0.33287020  0.58369952  1
  S  S53  1  0.19005698  0.04627715  0.58317389  1
  S  S54  1  0.68885265  0.04544633  0.58346872  1
  S  S55  1  0.83081491  0.62156371  0.58212903  1
  S  S56  1  0.97796748  0.62204283  0.08380164  1
  S  S57  1  0.33035437  0.03952888  0.08229104  1
  S  S58  1  0.18867540  0.33388318  0.08397065  1
  S  S59  1  0.69033253  0.33497122  0.08302379  1
  S  S60  1  0.81005819  0.66586351  0.91712473  1
  S  S61  1  0.16617840  0.95181499  0.91661035  1
  S  S62  1  0.66748269  0.95455764  0.91730434  1
  S  S63  1  0.30973465  0.95379390  0.41682873  1
  S  S64  1  0.16771953  0.38067438  0.41675614  1
  S  S65  1  0.66639655  0.38106383  0.41665216  1
  O  O66  1  0.09725107  0.03134208  0.30507932  1
  O  O67  1  0.60556520  0.03085242  0.30145735  1
  O  O68  1  0.41149656  0.79543006  0.30237473  1
  O  O69  1  0.90929654  0.78538851  0.30029132  1
  O  O70  1  0.48837991  0.16433611  0.30576600  1
  O  O71  1  0.98089667  0.18239203  0.30074417  1
  O  O72  1  0.10328891  0.17890936  0.80161166  1
  O  O73  1  0.59966164  0.16706694  0.80579579  1
  O  O74  1  0.47904974  0.79149416  0.80700964  1
  O  O75  1  0.98832034  0.81199559  0.80575935  1
  O  O76  1  0.40770077  0.03627217  0.80048815  1
  O  O77  1  0.91303844  0.02960781  0.80230911  1
  O  O78  1  0.39457924  0.97575457  0.69783046  1
  O  O79  1  0.89814138  0.97918880  0.69958008  1
  O  O80  1  0.09228097  0.20862000  0.69862899  1
  O  O81  1  0.58433689  0.19708396  0.69270005  1
  O  O82  1  0.01164814  0.82916767  0.69485381  1
  O  O83  1  0.50910618  0.82422339  0.69403024  1
  O  O84  1  0.39625579  0.81629172  0.19976975  1
  O  O85  1  0.89674475  0.81548715  0.19772639  1
  O  O86  1  0.00861526  0.20318925  0.19795944  1
  O  O87  1  0.51166288  0.19342624  0.19503692  1
  O  O88  1  0.08307427  0.97527406  0.19398458  1
  O  O89  1  0.59404129  0.97877321  0.19850891  1
  O  O90  1  0.43627315  0.35974204  0.63413758  1
  O  O91  1  0.93019093  0.35337353  0.63906292  1
  O  O92  1  0.24140571  0.12590142  0.63480109  1
  O  O93  1  0.74226697  0.12229090  0.63402803  1
  O  O94  1  0.31868340  0.49963280  0.63764225  1
  O  O95  1  0.81899499  0.51946096  0.63422307  1
  O  O96  1  0.43084361  0.50729435  0.13948926  1
  O  O97  1  0.93441838  0.51260117  0.13516609  1
  O  O98  1  0.31887744  0.11841179  0.13474870  1
  O  O99  1  0.82004726  0.14008020  0.13842878  1
  O  O100  1  0.24163701  0.36192648  0.13491955  1
  O  O101  1  0.74314955  0.35652516  0.13535652  1
  O  O102  1  0.22465165  0.29953448  0.03255346  1
  O  O103  1  0.73049928  0.30854675  0.03241401  1
  O  O104  1  0.41715619  0.53882458  0.02862516  1
  O  O105  1  0.92326453  0.54460508  0.03301260  1
  O  O106  1  0.34517741  0.14752120  0.03178307  1
  O  O107  1  0.84977867  0.16849880  0.02989107  1
  O  O108  1  0.22980040  0.15129047  0.53147071  1
  O  O109  1  0.72780656  0.15124029  0.53154949  1
  O  O110  1  0.34917010  0.53348356  0.52908637  1
  O  O111  1  0.84538413  0.54256390  0.53123384  1
  O  O112  1  0.42385580  0.30511158  0.53214182  1
  O  O113  1  0.91816827  0.29647350  0.52791725  1
  O  O114  1  0.26452726  0.69186721  0.97246622  1
  O  O115  1  0.77257471  0.69453280  0.96881590  1
  O  O116  1  0.07881276  0.46892066  0.97275113  1
  O  O117  1  0.58377850  0.47255392  0.97339106  1
  O  O118  1  0.15154887  0.84493381  0.96861108  1
  O  O119  1  0.65904096  0.85252809  0.96904612  1
  O  O120  1  0.27187490  0.84939356  0.46780232  1
  O  O121  1  0.76529682  0.83583976  0.47212374  1
  O  O122  1  0.15761039  0.46397153  0.46784709  1
  O  O123  1  0.65186818  0.45767468  0.46824828  1
  O  O124  1  0.08476196  0.69480939  0.47236384  1
  O  O125  1  0.57932824  0.68912234  0.47228165  1
  O  O126  1  0.06654779  0.63590981  0.36109682  1
  O  O127  1  0.56658026  0.63619377  0.36013329  1
  O  O128  1  0.25801600  0.87189303  0.36453025  1
  O  O129  1  0.75279928  0.85795119  0.35876333  1
  O  O130  1  0.18157208  0.48280448  0.36453130  1
  O  O131  1  0.68011460  0.48705930  0.36517256  1
  O  O132  1  0.06747521  0.49850970  0.86011256  1
  O  O133  1  0.56592195  0.49500333  0.86218939  1
  O  O134  1  0.18009421  0.87339694  0.86556077  1
  O  O135  1  0.68373347  0.88370127  0.86581022  1
  O  O136  1  0.25250861  0.64817053  0.85972238  1
  O  O137  1  0.75962988  0.64257310  0.86544039  1
  O  O138  1  0.01330206  0.83649559  0.41151988  1
  O  O139  1  0.51153004  0.83446283  0.40303471  1
  O  O140  1  0.39648894  0.97352424  0.40769265  1
  O  O141  1  0.90734573  0.98344960  0.40839776  1
  O  O142  1  0.08887753  0.20864314  0.41122642  1
  O  O143  1  0.58933160  0.20825202  0.40773322  1
  O  O144  1  0.01178004  0.18815694  0.90368030  1
  O  O145  1  0.51334948  0.18384128  0.91281905  1
  O  O146  1  0.08905967  0.96973437  0.90816180  1
  O  O147  1  0.59023520  0.97139164  0.91341142  1
  O  O148  1  0.40746818  0.83593707  0.91269348  1
  O  O149  1  0.89781105  0.81970416  0.90910150  1
  O  O150  1  0.48641088  0.18068917  0.59180032  1
  O  O151  1  0.98962696  0.15782988  0.59127654  1
  O  O152  1  0.10271868  0.02614381  0.58944747  1
  O  O153  1  0.60234765  0.02315174  0.59034822  1
  O  O154  1  0.41731192  0.81747043  0.59432302  1
  O  O155  1  0.90840471  0.79689871  0.58929441  1
  O  O156  1  0.49016930  0.82040636  0.09287124  1
  O  O157  1  0.98532405  0.79172786  0.09315855  1
  O  O158  1  0.40794505  0.01934849  0.09012595  1
  O  O159  1  0.91815909  0.02552127  0.09834147  1
  O  O160  1  0.10062128  0.18321789  0.09349524  1
  O  O161  1  0.60410497  0.18048388  0.09105745  1
  O  O162  1  0.34235186  0.15291775  0.73953354  1
  O  O163  1  0.84819482  0.15430067  0.74520404  1
  O  O164  1  0.23030573  0.29964944  0.74316388  1
  O  O165  1  0.73903206  0.29933878  0.74050380  1
  O  O166  1  0.41438825  0.51370763  0.74199945  1
  O  O167  1  0.91721513  0.52493876  0.74562315  1
  O  O168  1  0.34665837  0.54022349  0.24519756  1
  O  O169  1  0.84626146  0.53435234  0.24021618  1
  O  O170  1  0.41737745  0.30946566  0.24562766  1
  O  O171  1  0.92244454  0.31462294  0.24024864  1
  O  O172  1  0.23913952  0.17538108  0.24125175  1
  O  O173  1  0.73288712  0.16256530  0.24275959  1
  O  O174  1  0.31455144  0.49107318  0.92118084  1
  O  O175  1  0.82162556  0.51377886  0.92517602  1
  O  O176  1  0.42642596  0.34813314  0.92410681  1
  O  O177  1  0.92789146  0.35858787  0.92241000  1
  O  O178  1  0.24143043  0.12417288  0.92473237  1
  O  O179  1  0.74349838  0.13373313  0.92515721  1
  O  O180  1  0.32001889  0.12709547  0.42269037  1
  O  O181  1  0.81507844  0.13916412  0.42099895  1
  O  O182  1  0.24249711  0.35266883  0.42371716  1
  O  O183  1  0.74179055  0.35883802  0.42360778  1
  O  O184  1  0.42650227  0.49524083  0.42211044  1
  O  O185  1  0.92529949  0.50134888  0.42269816  1
  O  O186  1  0.17795603  0.48647589  0.07531758  1
  O  O187  1  0.68265790  0.48857910  0.07735164  1
  O  O188  1  0.06314899  0.64199875  0.07657736  1
  O  O189  1  0.57122884  0.64684008  0.07383403  1
  O  O190  1  0.25419629  0.86812288  0.07499131  1
  O  O191  1  0.75215748  0.85481184  0.07077267  1
  O  O192  1  0.18085899  0.87530070  0.57584918  1
  O  O193  1  0.67911583  0.87133619  0.57444683  1
  O  O194  1  0.25110294  0.64633024  0.56974180  1
  O  O195  1  0.75461893  0.64030468  0.57399314  1
  O  O196  1  0.07016087  0.49457160  0.57368310  1
  O  O197  1  0.56388676  0.48689352  0.57433917  1
  O  O198  1  0.15588948  0.83948023  0.25907383  1
  O  O199  1  0.65739016  0.85499295  0.25771119  1
  O  O200  1  0.27103647  0.69405939  0.26029371  1
  O  O201  1  0.77013880  0.68817099  0.25723329  1
  O  O202  1  0.07569695  0.45707526  0.25576653  1
  O  O203  1  0.58800853  0.47643788  0.26052511  1
  O  O204  1  0.15583249  0.45827793  0.75760296  1
  O  O205  1  0.65983111  0.47404199  0.75815758  1
  O  O206  1  0.08792116  0.69967705  0.76060302  1
  O  O207  1  0.58369189  0.69707784  0.75709416  1
  O  O208  1  0.26890120  0.84859277  0.75802784  1
  O  O209  1  0.77311564  0.84796792  0.76000407  1
