# generated using pymatgen
data_Na10Nb4Al4Si9(SO16)3
_symmetry_space_group_name_H-M   'P 1'
_cell_length_a   17.73027056
_cell_length_b   8.85457829
_cell_length_c   22.13787332
_cell_angle_alpha   89.98231017
_cell_angle_beta   90.71747578
_cell_angle_gamma   119.74918815
_symmetry_Int_Tables_number   1
_chemical_formula_structural   Na10Nb4Al4Si9(SO16)3
_chemical_formula_sum   'Na30 Nb12 Al12 Si27 S9 O144'
_cell_volume   3017.15590176
_cell_formula_units_Z   3
loop_
 _symmetry_equiv_pos_site_id
 _symmetry_equiv_pos_as_xyz
  1  'x, y, z'
loop_
 _atom_site_type_symbol
 _atom_site_label
 _atom_site_symmetry_multiplicity
 _atom_site_fract_x
 _atom_site_fract_y
 _atom_site_fract_z
 _atom_site_occupancy
  Na  Na0  1  0.18692626  0.36555859  0.24367481  1
  Na  Na1  1  0.68688591  0.36649194  0.24334005  1
  Na  Na2  1  0.18762471  0.00838513  0.74297633  1
  Na  Na3  1  0.68516586  0.00477394  0.74341623  1
  Na  Na4  1  0.65035797  0.33679908  0.58036424  1
  Na  Na5  1  0.02120415  0.70357520  0.57640053  1
  Na  Na6  1  0.51868677  0.69341812  0.57991589  1
  Na  Na7  1  0.32754261  0.97014773  0.58402452  1
  Na  Na8  1  0.15077620  0.96379363  0.07997061  1
  Na  Na9  1  0.65073053  0.96360428  0.07984864  1
  Na  Na10  1  0.32893964  0.69019160  0.08187520  1
  Na  Na11  1  0.82904164  0.69057124  0.08183735  1
  Na  Na12  1  0.01972491  0.34427201  0.08004271  1
  Na  Na13  1  0.51963957  0.34440409  0.07997396  1
  Na  Na14  1  0.48702084  0.67006850  0.91461220  1
  Na  Na15  1  0.98704636  0.67034096  0.91527357  1
  Na  Na16  1  0.35191605  0.66633853  0.41048720  1
  Na  Na17  1  0.85260426  0.67349973  0.41008705  1
  Na  Na18  1  0.01239079  0.02189133  0.49305712  1
  Na  Na19  1  0.51042723  0.01228218  0.49188122  1
  Na  Na20  1  0.00614398  0.01901809  0.99119521  1
  Na  Na21  1  0.50627976  0.01921366  0.99118136  1
  Na  Na22  1  0.33989751  0.33154014  0.82664968  1
  Na  Na23  1  0.83975264  0.32983424  0.82812851  1
  Na  Na24  1  0.34363782  0.33650025  0.32799105  1
  Na  Na25  1  0.84502537  0.33490433  0.32567091  1
  Na  Na26  1  0.16765573  0.67340175  0.16282667  1
  Na  Na27  1  0.66774129  0.67322100  0.16256520  1
  Na  Na28  1  0.17268205  0.65735211  0.66272655  1
  Na  Na29  1  0.67376960  0.67368199  0.66023719  1
  Nb  Nb30  1  0.99482002  0.98715528  0.64573813  1
  Nb  Nb31  1  0.49337724  0.98395377  0.64331454  1
  Nb  Nb32  1  0.99541300  0.00077870  0.14544681  1
  Nb  Nb33  1  0.49514015  0.00091207  0.14535696  1
  Nb  Nb34  1  0.33342671  0.32220777  0.97795379  1
  Nb  Nb35  1  0.83334326  0.32223881  0.97812593  1
  Nb  Nb36  1  0.33272872  0.33696796  0.47936702  1
  Nb  Nb37  1  0.82914844  0.34003250  0.47614387  1
  Nb  Nb38  1  0.16019008  0.64629052  0.31134760  1
  Nb  Nb39  1  0.66046813  0.65007965  0.31113581  1
  Nb  Nb40  1  0.16262084  0.67578670  0.81107204  1
  Nb  Nb41  1  0.66225701  0.67596204  0.81094028  1
  Al  Al42  1  0.00107114  0.00089505  0.35413675  1
  Al  Al43  1  0.50073846  0.99880805  0.35356779  1
  Al  Al44  1  -0.00003778  0.00624515  0.85333352  1
  Al  Al45  1  0.49975112  0.00505288  0.85355255  1
  Al  Al46  1  0.34262459  0.33786415  0.68457238  1
  Al  Al47  1  0.83495710  0.33301756  0.68726226  1
  Al  Al48  1  0.34325134  0.34954897  0.18468346  1
  Al  Al49  1  0.84329209  0.34969000  0.18437222  1
  Al  Al50  1  0.15803125  0.66098980  0.02199424  1
  Al  Al51  1  0.65800553  0.66094109  0.02191570  1
  Al  Al52  1  0.16479193  0.66233719  0.51888769  1
  Al  Al53  1  0.65990401  0.65815581  0.52410840  1
  Si  Si54  1  0.35768827  0.70639206  0.25456022  1
  Si  Si55  1  0.85805726  0.70698664  0.25481440  1
  Si  Si56  1  0.98837634  0.27389563  0.25308541  1
  Si  Si57  1  0.48836923  0.27392421  0.25345623  1
  Si  Si58  1  0.98844040  0.69970070  0.75366122  1
  Si  Si59  1  0.48792350  0.70096477  0.75392509  1
  Si  Si60  1  0.35918576  0.01054930  0.75361306  1
  Si  Si61  1  0.85885314  0.01109207  0.75386602  1
  Si  Si62  1  0.47957473  0.33841309  0.58489677  1
  Si  Si63  1  0.19020422  0.04538725  0.58603915  1
  Si  Si64  1  0.69494922  0.04104131  0.58716287  1
  Si  Si65  1  0.32049241  0.60311594  0.58618909  1
  Si  Si66  1  0.82748260  0.61575938  0.58598077  1
  Si  Si67  1  0.47897546  0.61966796  0.08339530  1
  Si  Si68  1  0.97906091  0.61982713  0.08337433  1
  Si  Si69  1  0.32626793  0.04099826  0.08699193  1
  Si  Si70  1  0.82635039  0.04078162  0.08702839  1
  Si  Si71  1  0.19272131  0.34012015  0.08614708  1
  Si  Si72  1  0.69267543  0.34016694  0.08619777  1
  Si  Si73  1  0.02544731  0.36836753  0.91884518  1
  Si  Si74  1  0.52560370  0.36819464  0.91880067  1
  Si  Si75  1  0.16173179  0.95711071  0.91926988  1
  Si  Si76  1  0.66181724  0.95720912  0.91939591  1
  Si  Si77  1  0.15809293  0.36476947  0.42007712  1
  Si  Si78  1  0.65514770  0.36675944  0.41940368  1
  Si  Si79  1  0.02588172  0.67885332  0.42056822  1
  Si  Si80  1  0.52477007  0.67832650  0.42019898  1
  S  S81  1  0.14491072  0.00016370  0.25201695  1
  S  S82  1  0.64457382  0.00022496  0.25203965  1
  S  S83  1  0.14379464  0.28678518  0.75183941  1
  S  S84  1  0.64522045  0.28885369  0.75136958  1
  S  S85  1  0.97792874  0.33491655  0.58440169  1
  S  S86  1  0.31104495  0.67101821  0.91809171  1
  S  S87  1  0.81081816  0.67078168  0.91806047  1
  S  S88  1  0.31103760  0.95502805  0.41708863  1
  S  S89  1  0.81050414  0.95290538  0.41819973  1
  O  O90  1  0.10021626  0.02143610  0.30405589  1
  O  O91  1  0.60059717  0.02150677  0.30393440  1
  O  O92  1  0.41607822  0.80445784  0.31288038  1
  O  O93  1  0.91636421  0.80462231  0.31336773  1
  O  O94  1  0.48853550  0.15959220  0.30882552  1
  O  O95  1  0.98803987  0.15935642  0.30858856  1
  O  O96  1  0.10169981  0.17624740  0.80480620  1
  O  O97  1  0.60319099  0.17722669  0.80350715  1
  O  O98  1  0.48821130  0.80784271  0.81267489  1
  O  O99  1  0.98560607  0.80314661  0.81224699  1
  O  O100  1  0.42137025  0.03024672  0.80899214  1
  O  O101  1  0.92086666  0.03171770  0.80955810  1
  O  O102  1  0.40276816  0.97897361  0.69076814  1
  O  O103  1  0.90553856  0.98162618  0.69263811  1
  O  O104  1  0.09007510  0.20980689  0.69578290  1
  O  O105  1  0.59368493  0.21490555  0.69419269  1
  O  O106  1  0.01504870  0.83121658  0.69315642  1
  O  O107  1  0.51599073  0.83182636  0.69342473  1
  O  O108  1  0.40412945  0.82866242  0.19307447  1
  O  O109  1  0.90422495  0.82861829  0.19325693  1
  O  O110  1  0.01622871  0.20269793  0.19134353  1
  O  O111  1  0.51649279  0.20284004  0.19166252  1
  O  O112  1  0.09312345  0.97186060  0.19440830  1
  O  O113  1  0.59326933  0.97191072  0.19437947  1
  O  O114  1  0.43509401  0.37330065  0.64127730  1
  O  O115  1  0.93687856  0.36128833  0.63787302  1
  O  O116  1  0.25166208  0.13161197  0.64494273  1
  O  O117  1  0.75025857  0.13874778  0.64693741  1
  O  O118  1  0.31317818  0.48796504  0.64286404  1
  O  O119  1  0.81726977  0.48831166  0.64042134  1
  O  O120  1  0.43432283  0.49381973  0.13936320  1
  O  O121  1  0.93434700  0.49401962  0.13932449  1
  O  O122  1  0.30964385  0.13612329  0.14196294  1
  O  O123  1  0.80961642  0.13615262  0.14194473  1
  O  O124  1  0.25187999  0.37091778  0.14598156  1
  O  O125  1  0.75191470  0.37097203  0.14607737  1
  O  O126  1  0.23730599  0.29806896  0.02762245  1
  O  O127  1  0.73728246  0.29805791  0.02770483  1
  O  O128  1  0.41721439  0.54585578  0.02172163  1
  O  O129  1  0.91730541  0.54580503  0.02170169  1
  O  O130  1  0.35376066  0.16965636  0.02631238  1
  O  O131  1  0.85375289  0.16964051  0.02636655  1
  O  O132  1  0.23647099  0.16707375  0.52595159  1
  O  O133  1  0.74174279  0.17413161  0.52854024  1
  O  O134  1  0.34910388  0.53694197  0.52430094  1
  O  O135  1  0.85231429  0.53873276  0.52406842  1
  O  O136  1  0.41482364  0.29136822  0.52490064  1
  O  O137  1  0.92529332  0.30596683  0.52868700  1
  O  O138  1  0.27017810  0.68861353  0.97355520  1
  O  O139  1  0.77033272  0.68837630  0.97345378  1
  O  O140  1  0.08039312  0.46429798  0.97966395  1
  O  O141  1  0.58042558  0.46390959  0.97971262  1
  O  O142  1  0.14953879  0.83364774  0.97678431  1
  O  O143  1  0.64983888  0.83384223  0.97689684  1
  O  O144  1  0.27120735  0.85292995  0.47272429  1
  O  O145  1  0.76925265  0.84442890  0.47112608  1
  O  O146  1  0.15345490  0.47814862  0.47501885  1
  O  O147  1  0.65330676  0.47044724  0.47802014  1
  O  O148  1  0.08194689  0.69643181  0.48069652  1
  O  O149  1  0.58247685  0.69835961  0.47951594  1
  O  O150  1  0.07458397  0.65032754  0.36136112  1
  O  O151  1  0.57486513  0.65135610  0.36081949  1
  O  O152  1  0.25708477  0.86868889  0.36272401  1
  O  O153  1  0.75819273  0.87826262  0.36205085  1
  O  O154  1  0.18122800  0.49249207  0.35792073  1
  O  O155  1  0.68261760  0.49630232  0.35874558  1
  O  O156  1  0.07423083  0.50304096  0.86114287  1
  O  O157  1  0.57459580  0.50315603  0.86121169  1
  O  O158  1  0.17962959  0.86889016  0.85786706  1
  O  O159  1  0.67988824  0.86970529  0.85790133  1
  O  O160  1  0.25737490  0.64758323  0.86350501  1
  O  O161  1  0.75767853  0.64775086  0.86344850  1
  O  O162  1  0.00603239  0.83774589  0.41135764  1
  O  O163  1  0.50679788  0.83999461  0.41040719  1
  O  O164  1  0.39750867  0.96945707  0.41302001  1
  O  O165  1  0.89782714  0.97053813  0.41291018  1
  O  O166  1  0.07548181  0.17601609  0.40849772  1
  O  O167  1  0.57542621  0.17574243  0.40817148  1
  O  O168  1  0.01221323  0.17750979  0.90907125  1
  O  O169  1  0.51231051  0.17744086  0.90879859  1
  O  O170  1  0.07371553  0.96659971  0.90875615  1
  O  O171  1  0.57396071  0.96736577  0.90950970  1
  O  O172  1  0.39898790  0.82343907  0.91396849  1
  O  O173  1  0.89930794  0.82383727  0.91394685  1
  O  O174  1  0.49082837  0.16347590  0.58901270  1
  O  O175  1  0.98971717  0.18042533  0.58939885  1
  O  O176  1  0.09198885  0.02509239  0.59006649  1
  O  O177  1  0.59689973  0.02819524  0.59026283  1
  O  O178  1  0.41324032  0.80217137  0.58962838  1
  O  O179  1  0.91848346  0.80872303  0.58910237  1
  O  O180  1  0.49097260  0.81705375  0.08998643  1
  O  O181  1  0.99086306  0.81695388  0.08985657  1
  O  O182  1  0.41633910  0.02499475  0.08960131  1
  O  O183  1  0.91634220  0.02474132  0.08968063  1
  O  O184  1  0.09519095  0.16299811  0.09031954  1
  O  O185  1  0.59523570  0.16306697  0.09039981  1
  O  O186  1  0.33863337  0.16846226  0.74464221  1
  O  O187  1  0.83967643  0.17086547  0.74379033  1
  O  O188  1  0.22929463  0.30108333  0.74656495  1
  O  O189  1  0.73198842  0.30397669  0.74656000  1
  O  O190  1  0.40584247  0.51179932  0.74462391  1
  O  O191  1  0.90798155  0.50958758  0.74104999  1
  O  O192  1  0.33966576  0.50927171  0.24522332  1
  O  O193  1  0.83969540  0.50939528  0.24553441  1
  O  O194  1  0.40613020  0.29916565  0.24328308  1
  O  O195  1  0.90612128  0.29909376  0.24282327  1
  O  O196  1  0.22989942  0.15773893  0.24748870  1
  O  O197  1  0.73026581  0.15836178  0.24754627  1
  O  O198  1  0.32073382  0.51134304  0.91944731  1
  O  O199  1  0.82093019  0.51135087  0.91939814  1
  O  O200  1  0.43048969  0.36841918  0.92103893  1
  O  O201  1  0.93036088  0.36862477  0.92086821  1
  O  O202  1  0.25001125  0.15061079  0.92042547  1
  O  O203  1  0.75015103  0.15115476  0.92040809  1
  O  O204  1  0.31924503  0.12997236  0.41880403  1
  O  O205  1  0.82175117  0.13195393  0.42327028  1
  O  O206  1  0.25019309  0.35671319  0.42168971  1
  O  O207  1  0.74904351  0.35733297  0.42188773  1
  O  O208  1  0.42676832  0.49872947  0.42137581  1
  O  O209  1  0.92795606  0.49588432  0.42331802  1
  O  O210  1  0.18053756  0.50912643  0.07609108  1
  O  O211  1  0.68059999  0.50917341  0.07618086  1
  O  O212  1  0.07617079  0.64601559  0.07796276  1
  O  O213  1  0.57613858  0.64595894  0.07796788  1
  O  O214  1  0.24664610  0.84632444  0.07444059  1
  O  O215  1  0.74668412  0.84631703  0.07451692  1
  O  O216  1  0.17615980  0.84790914  0.57664976  1
  O  O217  1  0.67807885  0.84682078  0.57734292  1
  O  O218  1  0.24463655  0.65196251  0.57454931  1
  O  O219  1  0.74419783  0.63748671  0.57504898  1
  O  O220  1  0.06481425  0.49347346  0.57973527  1
  O  O221  1  0.57559107  0.50514402  0.57807439  1
  O  O222  1  0.15504192  0.84359032  0.25598205  1
  O  O223  1  0.65527966  0.84397401  0.25570973  1
  O  O224  1  0.25943756  0.69219496  0.25666793  1
  O  O225  1  0.75981569  0.69266351  0.25695313  1
  O  O226  1  0.08094011  0.47193342  0.25585372  1
  O  O227  1  0.58149053  0.47212015  0.25655319  1
  O  O228  1  0.15330012  0.46338277  0.75667021  1
  O  O229  1  0.65586536  0.46579881  0.75679806  1
  O  O230  1  0.08193324  0.69043003  0.75510405  1
  O  O231  1  0.58162747  0.68994805  0.75598405  1
  O  O232  1  0.26055214  0.82779245  0.75688327  1
  O  O233  1  0.76057136  0.82998325  0.75662914  1
