# generated using pymatgen
data_Na6Zn2Si3Sn2(SO8)3
_symmetry_space_group_name_H-M   'P 1'
_cell_length_a   9.06601468
_cell_length_b   9.07460599
_cell_length_c   22.31297169
_cell_angle_alpha   89.77482243
_cell_angle_beta   90.61857186
_cell_angle_gamma   119.58439721
_symmetry_Int_Tables_number   1
_chemical_formula_structural   Na6Zn2Si3Sn2(SO8)3
_chemical_formula_sum   'Na18 Zn6 Si9 Sn6 S9 O72'
_cell_volume   1596.28324188
_cell_formula_units_Z   3
loop_
 _symmetry_equiv_pos_site_id
 _symmetry_equiv_pos_as_xyz
  1  'x, y, z'
loop_
 _atom_site_type_symbol
 _atom_site_label
 _atom_site_symmetry_multiplicity
 _atom_site_fract_x
 _atom_site_fract_y
 _atom_site_fract_z
 _atom_site_occupancy
  Na  Na0  1  0.37712941  0.35725572  0.24572201  1
  Na  Na1  1  0.99880722  0.63573178  0.23646958  1
  Na  Na2  1  0.98829475  0.35174969  0.74127285  1
  Na  Na3  1  0.38816010  0.02432094  0.74619745  1
  Na  Na4  1  0.29630178  0.33472616  0.58271108  1
  Na  Na5  1  0.65470044  0.97352727  0.59265452  1
  Na  Na6  1  0.29707831  0.95804667  0.07180230  1
  Na  Na7  1  0.65418772  0.68170042  0.07945861  1
  Na  Na8  1  0.98422848  0.68679424  0.91728000  1
  Na  Na9  1  0.32127404  0.28117844  0.90889740  1
  Na  Na10  1  0.98251898  0.30041935  0.42815534  1
  Na  Na11  1  0.32444160  0.03954360  0.41726546  1
  Na  Na12  1  0.00581449  0.99743682  0.50348628  1
  Na  Na13  1  0.00667610  0.00963266  0.99300255  1
  Na  Na14  1  0.65251483  0.31585716  0.82344003  1
  Na  Na15  1  0.64859833  0.32201217  0.32935746  1
  Na  Na16  1  0.32060057  0.65469401  0.15606354  1
  Na  Na17  1  0.32613579  0.66781478  0.66153311  1
  Zn  Zn18  1  0.03045390  0.02102803  0.34946480  1
  Zn  Zn19  1  0.02258114  0.01520163  0.84143989  1
  Zn  Zn20  1  0.65427013  0.30656670  0.68425285  1
  Zn  Zn21  1  0.64814875  0.32687518  0.17624257  1
  Zn  Zn22  1  0.29996368  0.65353074  0.02079529  1
  Zn  Zn23  1  0.30371437  0.64744725  0.52443183  1
  Si  Si24  1  0.30900032  -0.00006605  0.25313088  1
  Si  Si25  1  0.30954222  0.30790829  0.75272498  1
  Si  Si26  1  0.71327972  0.99792567  0.75180472  1
  Si  Si27  1  0.95565164  0.33361192  0.58631913  1
  Si  Si28  1  0.35691602  0.02159598  0.58463818  1
  Si  Si29  1  0.95257596  0.61851369  0.08802604  1
  Si  Si30  1  0.36473463  0.34001905  0.08476756  1
  Si  Si31  1  0.33512463  0.96078234  0.91969776  1
  Si  Si32  1  0.33943728  0.37795198  0.41910109  1
  Sn  Sn33  1  0.00479030  0.01629161  0.65063890  1
  Sn  Sn34  1  0.01430873  0.99697383  0.14662462  1
  Sn  Sn35  1  0.65685061  0.32388692  0.98463271  1
  Sn  Sn36  1  0.64883475  0.33077106  0.49045851  1
  Sn  Sn37  1  0.34234503  0.67090471  0.31862087  1
  Sn  Sn38  1  0.35461434  0.68369316  0.81234112  1
  S  S39  1  0.71059986  0.71801571  0.25249107  1
  S  S40  1  0.99801518  0.29199945  0.25243960  1
  S  S41  1  0.00005801  0.70656213  0.75288270  1
  S  S42  1  0.67516930  0.63273459  0.58511069  1
  S  S43  1  0.67503069  0.04096385  0.08621291  1
  S  S44  1  0.63096648  0.66510291  0.92021983  1
  S  S45  1  0.03385314  0.37260769  0.91712111  1
  S  S46  1  0.63570181  0.96684560  0.41793181  1
  S  S47  1  0.03079764  0.66360854  0.41508701  1
  O  O48  1  0.22527123  0.02830903  0.31250523  1
  O  O49  1  0.81360561  0.81509815  0.30413569  1
  O  O50  1  0.98114836  0.19788619  0.30834030  1
  O  O51  1  0.23665748  0.19263294  0.81234803  1
  O  O52  1  0.98589558  0.78111458  0.80947746  1
  O  O53  1  0.82996358  0.01370047  0.80811343  1
  O  O54  1  0.78556983  0.96286044  0.68760762  1
  O  O55  1  0.17979758  0.22610264  0.69294537  1
  O  O56  1  0.03058736  0.82149780  0.70031434  1
  O  O57  1  0.78133425  0.81179051  0.19448447  1
  O  O58  1  0.02103912  0.20455333  0.19927195  1
  O  O59  1  0.17600467  0.95094508  0.19396609  1
  O  O60  1  0.86426648  0.35498367  0.64342826  1
  O  O61  1  0.47524120  0.10665832  0.64218546  1
  O  O62  1  0.65270580  0.52197759  0.63542958  1
  O  O63  1  0.86381701  0.51306188  0.14783789  1
  O  O64  1  0.65105331  0.12311765  0.13861514  1
  O  O65  1  0.47009373  0.36932276  0.14685965  1
  O  O66  1  0.44764851  0.28755921  0.02749581  1
  O  O67  1  0.83647294  0.53254699  0.02581688  1
  O  O68  1  0.70591120  0.14343909  0.03004480  1
  O  O69  1  0.42912025  0.15105017  0.52321589  1
  O  O70  1  0.70235316  0.56096855  0.52641079  1
  O  O71  1  0.84159344  0.30569949  0.52114393  1
  O  O72  1  0.55104090  0.67966334  0.97458164  1
  O  O73  1  0.14237062  0.45296359  0.96997422  1
  O  O74  1  0.31314317  0.84855115  0.97866595  1
  O  O75  1  0.55607787  0.86973558  0.47121781  1
  O  O76  1  0.31089890  0.47492813  0.47330877  1
  O  O77  1  0.14614987  0.69647304  0.46604578  1
  O  O78  1  0.10851120  0.63317784  0.35814615  1
  O  O79  1  0.52028795  0.88912860  0.36249898  1
  O  O80  1  0.36574556  0.48247015  0.35298988  1
  O  O81  1  0.10991449  0.47776006  0.86187470  1
  O  O82  1  0.35623522  0.87236005  0.85757121  1
  O  O83  1  0.51669255  0.63038649  0.86620963  1
  O  O84  1  0.00632697  0.81110897  0.40790741  1
  O  O85  1  0.80510544  0.98702577  0.40841839  1
  O  O86  1  0.16860458  0.18807466  0.41497830  1
  O  O87  1  0.01100350  0.20178762  0.91281564  1
  O  O88  1  0.16508283  0.98221949  0.91477744  1
  O  O89  1  0.80091682  0.80964466  0.91313629  1
  O  O90  1  0.95979686  0.14980235  0.58341806  1
  O  O91  1  0.16921823  0.01105654  0.58979598  1
  O  O92  1  0.82917218  0.80330167  0.58769487  1
  O  O93  1  0.95325943  0.80733617  0.08700602  1
  O  O94  1  0.82953711  0.02044399  0.09177807  1
  O  O95  1  0.17660121  0.16140841  0.08737454  1
  O  O96  1  0.69552819  0.16792317  0.74986062  1
  O  O97  1  0.49402710  0.32969242  0.74214932  1
  O  O98  1  0.85477571  0.53781128  0.74552379  1
  O  O99  1  0.69881195  0.54987276  0.25180606  1
  O  O100  1  0.85571590  0.32333033  0.24691844  1
  O  O101  1  0.49071800  0.16928572  0.24389219  1
  O  O102  1  0.64576241  0.50293116  0.92035343  1
  O  O103  1  0.86499465  0.36950971  0.92217563  1
  O  O104  1  0.50821477  0.15703891  0.92122083  1
  O  O105  1  0.65044885  0.14127753  0.41818434  1
  O  O106  1  0.51065927  0.35112697  0.42073059  1
  O  O107  1  0.86628810  0.50241953  0.41981786  1
  O  O108  1  0.35950251  0.51330460  0.07394802  1
  O  O109  1  0.14855990  0.66643991  0.08456331  1
  O  O110  1  0.52635040  0.87134103  0.07975483  1
  O  O111  1  0.35914032  0.84761547  0.57193043  1
  O  O112  1  0.52361661  0.65260597  0.57827726  1
  O  O113  1  0.15085097  0.48292265  0.58308552  1
  O  O114  1  0.30735069  0.81186503  0.25721957  1
  O  O115  1  0.53097913  0.69008184  0.25331603  1
  O  O116  1  0.16325242  0.46379105  0.25322780  1
  O  O117  1  0.29557669  0.48528774  0.75934501  1
  O  O118  1  0.16128757  0.69174620  0.75364935  1
  O  O119  1  0.51334956  0.83549809  0.75044936  1
