# generated using pymatgen
data_K2Te4O9
_symmetry_space_group_name_H-M   'P 1'
_cell_length_a   17.82754693
_cell_length_b   7.56649029
_cell_length_c   7.97538777
_cell_angle_alpha   72.71514028
_cell_angle_beta   90.00000000
_cell_angle_gamma   90.00000000
_symmetry_Int_Tables_number   1
_chemical_formula_structural   K2Te4O9
_chemical_formula_sum   'K8 Te16 O36'
_cell_volume   1027.23115466
_cell_formula_units_Z   4
loop_
 _symmetry_equiv_pos_site_id
 _symmetry_equiv_pos_as_xyz
  1  'x, y, z'
loop_
 _atom_site_type_symbol
 _atom_site_label
 _atom_site_symmetry_multiplicity
 _atom_site_fract_x
 _atom_site_fract_y
 _atom_site_fract_z
 _atom_site_occupancy
  K  K0  1  0.91074603  0.87430149  0.63558472  1
  K  K1  1  0.41074603  0.12569851  0.86441528  1
  K  K2  1  0.08925397  0.12569851  0.36441528  1
  K  K3  1  0.58925397  0.87430149  0.13558472  1
  K  K4  1  0.75503448  0.15820378  0.87358249  1
  K  K5  1  0.25503448  0.84179622  0.62641751  1
  K  K6  1  0.24496552  0.84179622  0.12641751  1
  K  K7  1  0.74496552  0.15820378  0.37358249  1
  Te  Te8  1  0.74092147  0.61995808  0.95751013  1
  Te  Te9  1  0.24092147  0.38004192  0.54248987  1
  Te  Te10  1  0.25907853  0.38004192  0.04248987  1
  Te  Te11  1  0.75907853  0.61995808  0.45751013  1
  Te  Te12  1  0.92232825  0.36014730  0.64942014  1
  Te  Te13  1  0.42232825  0.63985270  0.85057986  1
  Te  Te14  1  0.07767175  0.63985270  0.35057986  1
  Te  Te15  1  0.57767175  0.36014730  0.14942014  1
  Te  Te16  1  0.90840368  0.82616282  0.17262706  1
  Te  Te17  1  0.40840368  0.17383718  0.32737294  1
  Te  Te18  1  0.09159632  0.17383718  0.82737294  1
  Te  Te19  1  0.59159632  0.82616282  0.67262706  1
  Te  Te20  1  0.91792222  0.39238387  0.09152441  1
  Te  Te21  1  0.41792222  0.60761613  0.40847559  1
  Te  Te22  1  0.08207778  0.60761613  0.90847559  1
  Te  Te23  1  0.58207778  0.39238387  0.59152441  1
  O  O24  1  0.79849460  0.79772331  0.01707712  1
  O  O25  1  0.29849460  0.20227669  0.48292288  1
  O  O26  1  0.20150540  0.20227669  0.98292288  1
  O  O27  1  0.70150540  0.79772331  0.51707712  1
  O  O28  1  0.82507901  0.55396314  0.65152644  1
  O  O29  1  0.32507901  0.44603686  0.84847356  1
  O  O30  1  0.17492099  0.44603686  0.34847356  1
  O  O31  1  0.67492099  0.55396314  0.15152644  1
  O  O32  1  0.85508778  0.21029667  0.58494018  1
  O  O33  1  0.35508778  0.78970333  0.91505982  1
  O  O34  1  0.14491222  0.78970333  0.41505982  1
  O  O35  1  0.64491222  0.21029667  0.08494018  1
  O  O36  1  0.91124627  0.56319167  0.26207992  1
  O  O37  1  0.41124627  0.43680833  0.23792008  1
  O  O38  1  0.00651405  0.16421545  0.66984778  1
  O  O39  1  0.08875373  0.43680833  0.73792008  1
  O  O40  1  0.84014004  0.87203096  0.33222035  1
  O  O41  1  0.34014004  0.12796904  0.16777965  1
  O  O42  1  0.15985996  0.12796904  0.66777965  1
  O  O43  1  0.65985996  0.87203096  0.83222035  1
  O  O44  1  0.91022760  0.25926750  0.89979099  1
  O  O45  1  0.41022760  0.74073250  0.60020901  1
  O  O46  1  0.08977240  0.74073250  0.10020901  1
  O  O47  1  0.58977240  0.25926750  0.39979099  1
  O  O48  1  0.55646082  0.60944032  0.41909083  1
  O  O49  1  0.05646082  0.39055968  0.08090917  1
  O  O50  1  0.44353918  0.39055968  0.58090917  1
  O  O51  1  0.94353918  0.60944032  0.91909083  1
  O  O52  1  0.69084006  0.40746401  0.58106788  1
  O  O53  1  0.19084006  0.59253599  0.91893212  1
  O  O54  1  0.30915994  0.59253599  0.41893212  1
  O  O55  1  0.80915994  0.40746401  0.08106788  1
  O  O56  1  0.49348595  0.16421545  0.16984778  1
  O  O57  1  0.99348595  0.83578455  0.33015222  1
  O  O58  1  0.50651405  0.83578455  0.83015222  1
  O  O59  1  0.58875373  0.56319167  0.76207992  1
