# generated using pymatgen
data_MgMoH2O5
_symmetry_space_group_name_H-M   'P 1'
_cell_length_a   5.64020664
_cell_length_b   5.80428100
_cell_length_c   6.87881273
_cell_angle_alpha   100.65008233
_cell_angle_beta   95.14264597
_cell_angle_gamma   106.12633135
_symmetry_Int_Tables_number   1
_chemical_formula_structural   MgMoH2O5
_chemical_formula_sum   'Mg2 Mo2 H4 O10'
_cell_volume   210.22316735
_cell_formula_units_Z   2
loop_
 _symmetry_equiv_pos_site_id
 _symmetry_equiv_pos_as_xyz
  1  'x, y, z'
loop_
 _atom_site_type_symbol
 _atom_site_label
 _atom_site_symmetry_multiplicity
 _atom_site_fract_x
 _atom_site_fract_y
 _atom_site_fract_z
 _atom_site_occupancy
  Mg  Mg0  1  0.64123051  0.70660848  0.19281309  1
  Mg  Mg1  1  0.35876949  0.29339152  0.80718691  1
  Mo  Mo2  1  0.74591372  0.87979083  0.74827942  1
  Mo  Mo3  1  0.25408628  0.12020917  0.25172058  1
  H  H4  1  0.07820017  0.59485497  0.18839267  1
  H  H5  1  0.92179983  0.40514503  0.81160733  1
  H  H6  1  0.87285256  0.35021288  0.19581168  1
  H  H7  1  0.12714744  0.64978712  0.80418832  1
  O  O8  1  0.37982694  0.35993145  0.12389257  1
  O  O9  1  0.62017306  0.64006855  0.87610743  1
  O  O10  1  0.35557979  0.86269146  0.17150530  1
  O  O11  1  0.64442021  0.13730854  0.82849470  1
  O  O12  1  0.35577223  0.23117927  0.50570093  1
  O  O13  1  0.64422777  0.76882073  0.49429907  1
  O  O14  1  0.92277868  0.03038554  0.20704609  1
  O  O15  1  0.07722132  0.96961446  0.79295391  1
  O  O16  1  0.09018111  0.47199976  0.78228025  1
  O  O17  1  0.90981889  0.52800024  0.21771975  1
