# generated using pymatgen
data_NaAsSe2
_symmetry_space_group_name_H-M   'P 1'
_cell_length_a   5.81843369
_cell_length_b   11.89600455
_cell_length_c   24.28358532
_cell_angle_alpha   90.00000000
_cell_angle_beta   90.00000000
_cell_angle_gamma   90.00000000
_symmetry_Int_Tables_number   1
_chemical_formula_structural   NaAsSe2
_chemical_formula_sum   'Na16 As16 Se32'
_cell_volume   1680.81540134
_cell_formula_units_Z   16
loop_
 _symmetry_equiv_pos_site_id
 _symmetry_equiv_pos_as_xyz
  1  'x, y, z'
loop_
 _atom_site_type_symbol
 _atom_site_label
 _atom_site_symmetry_multiplicity
 _atom_site_fract_x
 _atom_site_fract_y
 _atom_site_fract_z
 _atom_site_occupancy
  Na  Na0  1  0.70591549  0.12360156  0.74769659  1
  Na  Na1  1  0.23807796  0.37300874  0.49832478  1
  Na  Na2  1  0.76192204  0.12699126  0.99832478  1
  Na  Na3  1  0.26192204  0.87300874  0.50167522  1
  Na  Na4  1  0.26192204  0.37300874  0.99832478  1
  Na  Na5  1  0.76192204  0.62699126  0.50167522  1
  Na  Na6  1  0.23807796  0.87300874  0.00167522  1
  Na  Na7  1  0.73807796  0.12699126  0.49832478  1
  Na  Na8  1  0.70591549  0.62360156  0.75230341  1
  Na  Na9  1  0.20591549  0.37639844  0.74769659  1
  Na  Na10  1  0.79408451  0.12360156  0.24769659  1
  Na  Na11  1  0.29408451  0.87639844  0.25230341  1
  Na  Na12  1  0.29408451  0.37639844  0.24769659  1
  Na  Na13  1  0.79408451  0.62360156  0.25230341  1
  Na  Na14  1  0.20591549  0.87639844  0.75230341  1
  Na  Na15  1  0.73807796  0.62699126  0.00167522  1
  As  As16  1  0.29056120  0.64441365  0.61193282  1
  As  As17  1  0.70943880  0.85558635  0.11193282  1
  As  As18  1  0.20943880  0.14441365  0.38806718  1
  As  As19  1  0.20943880  0.64441365  0.11193282  1
  As  As20  1  0.70943880  0.35558635  0.38806718  1
  As  As21  1  0.29056120  0.14441365  0.88806718  1
  As  As22  1  0.79056120  0.85558635  0.61193282  1
  As  As23  1  0.76854915  0.35510913  0.13899717  1
  As  As24  1  0.26854915  0.64489087  0.36100283  1
  As  As25  1  0.73145085  0.85510913  0.86100283  1
  As  As26  1  0.23145085  0.14489087  0.63899717  1
  As  As27  1  0.23145085  0.64489087  0.86100283  1
  As  As28  1  0.73145085  0.35510913  0.63899717  1
  As  As29  1  0.26854915  0.14489087  0.13899717  1
  As  As30  1  0.79056120  0.35558635  0.88806718  1
  As  As31  1  0.76854915  0.85510913  0.36100283  1
  Se  Se32  1  0.21124415  0.84532583  0.62822418  1
  Se  Se33  1  0.26182213  0.12378024  0.98313676  1
  Se  Se34  1  0.73817787  0.37621976  0.48313676  1
  Se  Se35  1  0.23817787  0.62378024  0.01686324  1
  Se  Se36  1  0.23817787  0.12378024  0.48313676  1
  Se  Se37  1  0.73817787  0.87621976  0.01686324  1
  Se  Se38  1  0.26182213  0.62378024  0.51686324  1
  Se  Se39  1  0.76182213  0.37621976  0.98313676  1
  Se  Se40  1  0.70633329  0.87406938  0.76575019  1
  Se  Se41  1  0.20633329  0.12593062  0.73424981  1
  Se  Se42  1  0.79366671  0.37406938  0.23424981  1
  Se  Se43  1  0.29366671  0.62593062  0.26575019  1
  Se  Se44  1  0.29366671  0.12593062  0.23424981  1
  Se  Se45  1  0.79366671  0.87406938  0.26575019  1
  Se  Se46  1  0.20633329  0.62593062  0.76575019  1
  Se  Se47  1  0.70633329  0.37406938  0.73424981  1
  Se  Se48  1  0.71124415  0.15467417  0.87177582  1
  Se  Se49  1  0.78875585  0.65467417  0.12822418  1
  Se  Se50  1  0.28875585  0.34532583  0.37177582  1
  Se  Se51  1  0.28875585  0.84532583  0.12822418  1
  Se  Se52  1  0.78875585  0.15467417  0.37177582  1
  Se  Se53  1  0.21124415  0.34532583  0.87177582  1
  Se  Se54  1  0.71124415  0.65467417  0.62822418  1
  Se  Se55  1  0.65171438  0.15451973  0.62196480  1
  Se  Se56  1  0.15171438  0.84548027  0.87803520  1
  Se  Se57  1  0.84828562  0.65451973  0.37803520  1
  Se  Se58  1  0.34828562  0.34548027  0.12196480  1
  Se  Se59  1  0.34828562  0.84548027  0.37803520  1
  Se  Se60  1  0.84828562  0.15451973  0.12196480  1
  Se  Se61  1  0.15171438  0.34548027  0.62196480  1
  Se  Se62  1  0.65171438  0.65451973  0.87803520  1
  Se  Se63  1  0.76182213  0.87621976  0.51686324  1
