# generated using pymatgen
data_Na4Y2Zn2SiS5O24
_symmetry_space_group_name_H-M   'P 1'
_cell_length_a   9.16439527
_cell_length_b   9.10423991
_cell_length_c   23.27776594
_cell_angle_alpha   89.75896168
_cell_angle_beta   89.76770329
_cell_angle_gamma   120.18356853
_symmetry_Int_Tables_number   1
_chemical_formula_structural   Na4Y2Zn2SiS5O24
_chemical_formula_sum   'Na12 Y6 Zn6 Si3 S15 O72'
_cell_volume   1678.79711699
_cell_formula_units_Z   3
loop_
 _symmetry_equiv_pos_site_id
 _symmetry_equiv_pos_as_xyz
  1  'x, y, z'
loop_
 _atom_site_type_symbol
 _atom_site_label
 _atom_site_symmetry_multiplicity
 _atom_site_fract_x
 _atom_site_fract_y
 _atom_site_fract_z
 _atom_site_occupancy
  Na  Na0  1  0.99107852  0.62597086  0.24155469  1
  Na  Na1  1  0.98911243  0.34759811  0.76251253  1
  Na  Na2  1  0.37126993  0.99174940  0.75349003  1
  Na  Na3  1  0.65460512  0.97456538  0.59106813  1
  Na  Na4  1  0.67710568  0.68484329  0.07717700  1
  Na  Na5  1  0.33883857  0.03744473  0.42052453  1
  Na  Na6  1  0.01773892  0.00205499  0.49710129  1
  Na  Na7  1  0.01541798  0.99245506  0.00398783  1
  Na  Na8  1  0.66703665  0.32863530  0.84526732  1
  Na  Na9  1  0.66668872  0.33312779  0.33052642  1
  Na  Na10  1  0.31513679  0.66300111  0.16772763  1
  Na  Na11  1  0.35604031  0.68670446  0.67092104  1
  Y  Y12  1  0.98566156  0.99505869  0.85385760  1
  Y  Y13  1  0.00222641  0.99611751  0.64707484  1
  Y  Y14  1  0.00606336  0.00371557  0.15160907  1
  Y  Y15  1  0.65821333  0.32713865  0.68154925  1
  Y  Y16  1  0.31498913  0.66650399  0.02061365  1
  Y  Y17  1  0.32837142  0.66650164  0.51277705  1
  Zn  Zn18  1  0.99239203  0.00300207  0.34560940  1
  Zn  Zn19  1  0.67314768  0.33067308  0.17306765  1
  Zn  Zn20  1  0.68294776  0.34682350  0.98925227  1
  Zn  Zn21  1  0.65450428  0.33131719  0.48607190  1
  Zn  Zn22  1  0.34218198  0.66269218  0.31875139  1
  Zn  Zn23  1  0.37167058  0.69311573  0.82243201  1
  Si  Si24  1  0.69229876  0.99366402  0.74703481  1
  Si  Si25  1  0.36401956  0.03284762  0.57745428  1
  Si  Si26  1  0.95377698  0.62419368  0.08834972  1
  S  S27  1  0.30265677  0.99855494  0.25557318  1
  S  S28  1  0.69820976  0.70213404  0.25399687  1
  S  S29  1  0.00285163  0.30430809  0.25498880  1
  S  S30  1  0.29550678  0.30420269  0.75208913  1
  S  S31  1  0.00653719  0.69825442  0.75260407  1
  S  S32  1  0.95954658  0.33401960  0.58076444  1
  S  S33  1  0.66816608  0.63070654  0.57810820  1
  S  S34  1  0.66670516  0.04239223  0.08328628  1
  S  S35  1  0.38226222  0.33209081  0.08249745  1
  S  S36  1  0.62260227  0.65044356  0.91934537  1
  S  S37  1  0.03374989  0.37640610  0.91277646  1
  S  S38  1  0.34461287  0.97706344  0.91436788  1
  S  S39  1  0.63683203  0.96674428  0.41270320  1
  S  S40  1  0.33146150  0.36210738  0.41202340  1
  S  S41  1  0.02713630  0.66622977  0.41152602  1
  O  O42  1  0.22430233  0.02188508  0.30843375  1
  O  O43  1  0.81464568  0.79491462  0.30222427  1
  O  O44  1  0.98917251  0.20111681  0.30623403  1
  O  O45  1  0.21749412  0.18866488  0.80231365  1
  O  O46  1  0.98974087  0.78384071  0.80369766  1
  O  O47  1  0.82811756  0.02882898  0.79811225  1
  O  O48  1  0.77053081  0.97672241  0.68552041  1
  O  O49  1  0.19369728  0.22085693  0.69993633  1
  O  O50  1  0.03184921  0.80490727  0.70065107  1
  O  O51  1  0.77398111  0.79964282  0.19896980  1
  O  O52  1  0.02194099  0.22426778  0.20203173  1
  O  O53  1  0.18882333  0.97162854  0.20525861  1
  O  O54  1  0.89015513  0.35585140  0.63623513  1
  O  O55  1  0.47128934  0.11833785  0.63716233  1
  O  O56  1  0.65773354  0.54159882  0.63277622  1
  O  O57  1  0.87573894  0.52917701  0.15020698  1
  O  O58  1  0.63828946  0.11408436  0.13611177  1
  O  O59  1  0.47831661  0.34796851  0.13525884  1
  O  O60  1  0.45492868  0.30531165  0.02986607  1
  O  O61  1  0.83116343  0.53685234  0.03355648  1
  O  O62  1  0.67915774  0.13702569  0.03026884  1
  O  O63  1  0.45949665  0.13949719  0.51911621  1
  O  O64  1  0.68863356  0.54719677  0.52777127  1
  O  O65  1  0.85453749  0.32309487  0.53174761  1
  O  O66  1  0.54365646  0.67006501  0.97225115  1
  O  O67  1  0.13645553  0.46548979  0.96352839  1
  O  O68  1  0.32348926  0.86688788  0.96446879  1
  O  O69  1  0.56395463  0.87092649  0.46818444  1
  O  O70  1  0.31224119  0.43982091  0.46555359  1
  O  O71  1  0.14007792  0.69414317  0.46233156  1
  O  O72  1  0.10688456  0.64251566  0.35937210  1
  O  O73  1  0.51741519  0.87222423  0.36533971  1
  O  O74  1  0.34654401  0.46789793  0.36153215  1
  O  O75  1  0.11875198  0.47031741  0.85882658  1
  O  O76  1  0.35558984  0.89564605  0.85992034  1
  O  O77  1  0.52439070  0.64091747  0.86735543  1
  O  O78  1  0.02125912  0.82801052  0.40808154  1
  O  O79  1  0.80517197  0.98314658  0.40604464  1
  O  O80  1  0.18008580  0.18646393  0.40844361  1
  O  O81  1  0.01969651  0.20488692  0.91340479  1
  O  O82  1  0.19059292  0.99407947  0.91284948  1
  O  O83  1  0.79526959  0.80620630  0.91570412  1
  O  O84  1  0.96268662  0.17137288  0.58337328  1
  O  O85  1  0.17549933  0.00979820  0.58170485  1
  O  O86  1  0.81462803  0.80816187  0.58031396  1
  O  O87  1  0.96965008  0.81566738  0.08914284  1
  O  O88  1  0.82260006  0.02825058  0.08799865  1
  O  O89  1  0.20408394  0.18973387  0.08769789  1
  O  O90  1  0.67574658  0.16856148  0.74902382  1
  O  O91  1  0.46740422  0.32803805  0.74628350  1
  O  O92  1  0.85241151  0.52851722  0.74773619  1
  O  O93  1  0.68461993  0.53293053  0.25091318  1
  O  O94  1  0.84943773  0.32086031  0.25185450  1
  O  O95  1  0.47199073  0.14829940  0.24595732  1
  O  O96  1  0.63795685  0.49690417  0.92087909  1
  O  O97  1  0.86310331  0.35612461  0.91716704  1
  O  O98  1  0.49818708  0.14470102  0.92018243  1
  O  O99  1  0.64845344  0.13607075  0.41600314  1
  O  O100  1  0.48555002  0.34508101  0.41489025  1
  O  O101  1  0.85772832  0.51555732  0.42136613  1
  O  O102  1  0.37836110  0.49581241  0.07847775  1
  O  O103  1  0.14361465  0.64793559  0.08416178  1
  O  O104  1  0.52313455  0.86163850  0.07957132  1
  O  O105  1  0.36108634  0.84848709  0.57738674  1
  O  O106  1  0.51326951  0.64541670  0.57543067  1
  O  O107  1  0.13483083  0.47752851  0.57647509  1
  O  O108  1  0.30757610  0.83600523  0.25887339  1
  O  O109  1  0.53000229  0.68770549  0.25990346  1
  O  O110  1  0.15521843  0.48009007  0.25791475  1
  O  O111  1  0.29946842  0.46691235  0.75900369  1
  O  O112  1  0.15562974  0.67615221  0.75662700  1
  O  O113  1  0.50140222  0.83022573  0.75635150  1
