# generated using pymatgen
data_Y2InCl7
_symmetry_space_group_name_H-M   'P 1'
_cell_length_a   6.92348546
_cell_length_b   12.65278755
_cell_length_c   12.79218271
_cell_angle_alpha   90.00000000
_cell_angle_beta   90.00000000
_cell_angle_gamma   90.00000000
_symmetry_Int_Tables_number   1
_chemical_formula_structural   Y2InCl7
_chemical_formula_sum   'Y8 In4 Cl28'
_cell_volume   1120.61299460
_cell_formula_units_Z   4
loop_
 _symmetry_equiv_pos_site_id
 _symmetry_equiv_pos_as_xyz
  1  'x, y, z'
loop_
 _atom_site_type_symbol
 _atom_site_label
 _atom_site_symmetry_multiplicity
 _atom_site_fract_x
 _atom_site_fract_y
 _atom_site_fract_z
 _atom_site_occupancy
  Y  Y0  1  0.25000000  0.96539905  0.73649655  1
  Y  Y1  1  0.75000000  0.03460095  0.26350345  1
  Y  Y2  1  0.75000000  0.46539905  0.76350345  1
  Y  Y3  1  0.25000000  0.53460095  0.23649655  1
  Y  Y4  1  0.25000000  0.66319373  0.74735066  1
  Y  Y5  1  0.75000000  0.33680627  0.25264934  1
  Y  Y6  1  0.75000000  0.16319373  0.75264934  1
  Y  Y7  1  0.25000000  0.83680627  0.24735066  1
  In  In8  1  0.25000000  0.29982713  0.53658890  1
  In  In9  1  0.75000000  0.70017287  0.46341110  1
  In  In10  1  0.75000000  0.79982713  0.96341110  1
  In  In11  1  0.25000000  0.20017287  0.03658890  1
  Cl  Cl12  1  0.99153539  0.45470549  0.37246558  1
  Cl  Cl13  1  0.49153539  0.54529451  0.62753442  1
  Cl  Cl14  1  0.00846461  0.95470549  0.12753442  1
  Cl  Cl15  1  0.50846461  0.04529451  0.87246558  1
  Cl  Cl16  1  0.00846461  0.54529451  0.62753442  1
  Cl  Cl17  1  0.50846461  0.45470549  0.37246558  1
  Cl  Cl18  1  0.99153539  0.04529451  0.87246558  1
  Cl  Cl19  1  0.49153539  0.95470549  0.12753442  1
  Cl  Cl20  1  0.01046291  0.41524315  0.11736073  1
  Cl  Cl21  1  0.51046291  0.58475685  0.88263927  1
  Cl  Cl22  1  0.98953709  0.91524315  0.38263927  1
  Cl  Cl23  1  0.48953709  0.08475685  0.61736073  1
  Cl  Cl24  1  0.25000000  0.68348667  0.39644037  1
  Cl  Cl25  1  0.75000000  0.31651333  0.60355963  1
  Cl  Cl26  1  0.75000000  0.18348667  0.10355963  1
  Cl  Cl27  1  0.25000000  0.81651333  0.89644037  1
  Cl  Cl28  1  0.49411735  0.68762644  0.17068161  1
  Cl  Cl29  1  0.99411735  0.31237356  0.82931839  1
  Cl  Cl30  1  0.50588265  0.18762644  0.32931839  1
  Cl  Cl31  1  0.00588265  0.81237356  0.67068161  1
  Cl  Cl32  1  0.50588265  0.31237356  0.82931839  1
  Cl  Cl33  1  0.00588265  0.68762644  0.17068161  1
  Cl  Cl34  1  0.49411735  0.81237356  0.67068161  1
  Cl  Cl35  1  0.99411735  0.18762644  0.32931839  1
  Cl  Cl36  1  0.51046291  0.91524315  0.38263927  1
  Cl  Cl37  1  0.01046291  0.08475685  0.61736073  1
  Cl  Cl38  1  0.48953709  0.41524315  0.11736073  1
  Cl  Cl39  1  0.98953709  0.58475685  0.88263927  1
