# generated using pymatgen
data_Na7Y3Mg(PO4)6
_symmetry_space_group_name_H-M   'P 1'
_cell_length_a   9.29573014
_cell_length_b   9.28271338
_cell_length_c   22.98712498
_cell_angle_alpha   89.71355325
_cell_angle_beta   90.02693346
_cell_angle_gamma   120.07230806
_symmetry_Int_Tables_number   1
_chemical_formula_structural   Na7Y3Mg(PO4)6
_chemical_formula_sum   'Na21 Y9 Mg3 P18 O72'
_cell_volume   1716.52530418
_cell_formula_units_Z   3
loop_
 _symmetry_equiv_pos_site_id
 _symmetry_equiv_pos_as_xyz
  1  'x, y, z'
loop_
 _atom_site_type_symbol
 _atom_site_label
 _atom_site_symmetry_multiplicity
 _atom_site_fract_x
 _atom_site_fract_y
 _atom_site_fract_z
 _atom_site_occupancy
  Na  Na0  1  0.63729055  0.01006766  0.24424472  1
  Na  Na1  1  0.37302141  0.36147832  0.24550448  1
  Na  Na2  1  0.98830717  0.62801128  0.24318636  1
  Na  Na3  1  0.63896763  0.62729524  0.74363854  1
  Na  Na4  1  0.98696795  0.35995797  0.74583117  1
  Na  Na5  1  0.37640644  0.01341792  0.74403948  1
  Na  Na6  1  0.02716897  0.69670331  0.58615416  1
  Na  Na7  1  0.66623373  0.97046287  0.58560740  1
  Na  Na8  1  0.30581028  0.97241597  0.08655797  1
  Na  Na9  1  0.66872044  0.69541565  0.08675239  1
  Na  Na10  1  0.69506470  0.02948168  0.92030547  1
  Na  Na11  1  0.33448844  0.30269871  0.91907257  1
  Na  Na12  1  0.96957910  0.29256821  0.41020396  1
  Na  Na13  1  0.32194349  0.02843751  0.41122662  1
  Na  Na14  1  0.70985410  0.67993687  0.41033304  1
  Na  Na15  1  0.01191487  0.01152834  0.49610834  1
  Na  Na16  1  0.99991073  0.99933188  0.00182391  1
  Na  Na17  1  0.67851515  0.34501943  0.83173070  1
  Na  Na18  1  0.66660242  0.33323846  0.32483404  1
  Na  Na19  1  0.31886757  0.65249165  0.16376848  1
  Na  Na20  1  0.33359993  0.65320878  0.66374978  1
  Y  Y21  1  0.00034382  0.99100158  0.84878932  1
  Y  Y22  1  0.00898249  0.00919504  0.64907170  1
  Y  Y23  1  0.00044254  0.01048771  0.15111270  1
  Y  Y24  1  0.68068767  0.34251340  0.98551446  1
  Y  Y25  1  0.66164134  0.33378291  0.48571594  1
  Y  Y26  1  0.31987117  0.65744189  0.01897057  1
  Y  Y27  1  0.33272131  0.65753753  0.51755294  1
  Y  Y28  1  0.33392690  0.66781035  0.31734094  1
  Y  Y29  1  0.32863420  0.66736548  0.81836364  1
  Mg  Mg30  1  0.00028491  0.00024182  0.34633893  1
  Mg  Mg31  1  0.66259564  0.33301301  0.68025306  1
  Mg  Mg32  1  0.67071254  0.33274315  0.18132386  1
  P  P33  1  0.30120112  0.00631624  0.25131603  1
  P  P34  1  0.70432359  0.69893804  0.25205109  1
  P  P35  1  0.99357811  0.29728433  0.25446572  1
  P  P36  1  0.30990717  0.30420366  0.75135032  1
  P  P37  1  0.99358930  0.69022000  0.74572834  1
  P  P38  1  0.69811226  0.00513730  0.74862793  1
  P  P39  1  0.95862159  0.33530717  0.58592202  1
  P  P40  1  0.37008751  0.03142675  0.58551421  1
  P  P41  1  0.66765994  0.63291576  0.58666210  1
  P  P42  1  0.96413871  0.63366415  0.09013985  1
  P  P43  1  0.66221318  0.03298979  0.08554770  1
  P  P44  1  0.37793895  0.33452326  0.08575516  1
  P  P45  1  0.63084942  0.66677701  0.91738938  1
  P  P46  1  0.02948462  0.35850198  0.91329398  1
  P  P47  1  0.33655932  0.97327859  0.91779021  1
  P  P48  1  0.64172120  0.96918565  0.41649908  1
  P  P49  1  0.32626577  0.35707613  0.41336725  1
  P  P50  1  0.03179150  0.67281832  0.41671396  1
  O  O51  1  0.21349643  0.02492911  0.30538159  1
  O  O52  1  0.81035790  0.78730177  0.30609281  1
  O  O53  1  0.97478298  0.19467969  0.30983174  1
  O  O54  1  0.23101214  0.20197208  0.80767305  1
  O  O55  1  0.97054044  0.78011208  0.79820583  1
  O  O56  1  0.80511259  0.02669526  0.80332684  1
  O  O57  1  0.78160836  0.97668538  0.69508684  1
  O  O58  1  0.18977931  0.21463990  0.70074475  1
  O  O59  1  0.02277503  0.79812836  0.69090505  1
  O  O60  1  0.78400327  0.80545905  0.19677737  1
  O  O61  1  0.02474743  0.21476660  0.20184108  1
  O  O62  1  0.19510853  0.97934427  0.19618320  1
  O  O63  1  0.86819527  0.35102789  0.63926167  1
  O  O64  1  0.47529839  0.12287209  0.63894108  1
  O  O65  1  0.65449085  0.52976176  0.64066730  1
  O  O66  1  0.87924621  0.53380302  0.14524703  1
  O  O67  1  0.64878753  0.12480814  0.13894302  1
  O  O68  1  0.48521080  0.35165382  0.13910221  1
  O  O69  1  0.45699527  0.31673417  0.02883993  1
  O  O70  1  0.86028845  0.54808697  0.03572417  1
  O  O71  1  0.67832174  0.12808343  0.02831349  1
  O  O72  1  0.44939554  0.12640948  0.52840560  1
  O  O73  1  0.68447226  0.55199359  0.53023051  1
  O  O74  1  0.86121317  0.31750445  0.52928477  1
  O  O75  1  0.54244225  0.68526521  0.97140973  1
  O  O76  1  0.14321557  0.45381149  0.96457543  1
  O  O77  1  0.32077585  0.86884327  0.97210371  1
  O  O78  1  0.55519198  0.86105635  0.47109073  1
  O  O79  1  0.30235768  0.44747201  0.46551513  1
  O  O80  1  0.13840622  0.69419052  0.47149029  1
  O  O81  1  0.11557398  0.64418129  0.36340851  1
  O  O82  1  0.53053370  0.88597272  0.36283055  1
  O  O83  1  0.35657062  0.46427296  0.35821483  1
  O  O84  1  0.10607626  0.45259746  0.85587490  1
  O  O85  1  0.35165654  0.88750444  0.86230302  1
  O  O86  1  0.52763751  0.64858655  0.86218407  1
  O  O87  1  0.01739528  0.83115721  0.41041460  1
  O  O88  1  0.81437449  0.98370865  0.41098886  1
  O  O89  1  0.16954442  0.18279819  0.40948928  1
  O  O90  1  0.01598703  0.18440787  0.91333334  1
  O  O91  1  0.18508370  0.00018001  0.91524263  1
  O  O92  1  0.80222834  0.82824533  0.91395260  1
  O  O93  1  0.97286460  0.17584246  0.58818730  1
  O  O94  1  0.18974932  0.00030491  0.58712902  1
  O  O95  1  0.82724803  0.80933538  0.58774696  1
  O  O96  1  0.98161498  0.81020948  0.08971880  1
  O  O97  1  0.81052815  0.00008806  0.08751760  1
  O  O98  1  0.20418641  0.17483258  0.08842971  1
  O  O99  1  0.68161112  0.16228031  0.74311675  1
  O  O100  1  0.48182194  0.31860511  0.74353622  1
  O  O101  1  0.83718074  0.51581882  0.74249034  1
  O  O102  1  0.68549882  0.52326336  0.24743912  1
  O  O103  1  0.83475501  0.31133855  0.24708004  1
  O  O104  1  0.47694972  0.16350905  0.24598909  1
  O  O105  1  0.64304515  0.50696206  0.92030312  1
  O  O106  1  0.85183896  0.33129607  0.91816021  1
  O  O107  1  0.49734629  0.14694607  0.91959336  1
  O  O108  1  0.66100447  0.14543154  0.42048798  1
  O  O109  1  0.48333874  0.33937165  0.41976849  1
  O  O110  1  0.85498408  0.51654745  0.42077480  1
  O  O111  1  0.36446703  0.49522787  0.08288848  1
  O  O112  1  0.14336668  0.66131068  0.08556597  1
  O  O113  1  0.49939637  0.85794248  0.08371389  1
  O  O114  1  0.35783825  0.85671129  0.58334604  1
  O  O115  1  0.51600356  0.66083285  0.58372826  1
  O  O116  1  0.13206085  0.49645989  0.58283941  1
  O  O117  1  0.32228342  0.84922378  0.25492204  1
  O  O118  1  0.52633881  0.67836674  0.25496142  1
  O  O119  1  0.14876415  0.47692154  0.25597821  1
  O  O120  1  0.33119004  0.48168935  0.75359879  1
  O  O121  1  0.15159367  0.67343300  0.75189918  1
  O  O122  1  0.52134947  0.84799500  0.75316731  1
