# generated using pymatgen
data_Na6Zn4In4SiS11O48
_symmetry_space_group_name_H-M   'P 1'
_cell_length_a   17.69713467
_cell_length_b   8.86124336
_cell_length_c   23.05202980
_cell_angle_alpha   89.78875842
_cell_angle_beta   89.78760443
_cell_angle_gamma   120.04662592
_symmetry_Int_Tables_number   1
_chemical_formula_structural   Na6Zn4In4SiS11O48
_chemical_formula_sum   'Na18 Zn12 In12 Si3 S33 O144'
_cell_volume   3129.11336348
_cell_formula_units_Z   3
loop_
 _symmetry_equiv_pos_site_id
 _symmetry_equiv_pos_as_xyz
  1  'x, y, z'
loop_
 _atom_site_type_symbol
 _atom_site_label
 _atom_site_symmetry_multiplicity
 _atom_site_fract_x
 _atom_site_fract_y
 _atom_site_fract_z
 _atom_site_occupancy
  Na  Na0  1  0.81888161  0.99651230  0.24673051  1
  Na  Na1  1  0.99622088  0.63621215  0.25335196  1
  Na  Na2  1  0.31746216  0.65004534  0.74981490  1
  Na  Na3  1  0.81713553  0.64431532  0.74624427  1
  Na  Na4  1  0.99385749  0.35682617  0.75115433  1
  Na  Na5  1  0.68963846  0.00247367  0.74879184  1
  Na  Na6  1  0.99717286  0.99661959  0.49897764  1
  Na  Na7  1  0.50273504  0.00336112  0.49474886  1
  Na  Na8  1  0.00047102  0.00096714  0.00076393  1
  Na  Na9  1  0.49978089  0.00062774  0.00093127  1
  Na  Na10  1  0.33539109  0.31151790  0.83619881  1
  Na  Na11  1  0.83453436  0.32414310  0.83659220  1
  Na  Na12  1  0.33466367  0.33506973  0.32971176  1
  Na  Na13  1  0.82810565  0.34632020  0.33571495  1
  Na  Na14  1  0.17448726  0.66977863  0.16879985  1
  Na  Na15  1  0.66650693  0.65651428  0.16918322  1
  Na  Na16  1  0.17242890  0.68694474  0.66506392  1
  Na  Na17  1  0.66999545  0.67032587  0.66287275  1
  Zn  Zn18  1  0.49823487  0.00087637  0.35040745  1
  Zn  Zn19  1  0.83416218  0.31805665  0.67638079  1
  Zn  Zn20  1  0.33517135  0.33818109  0.18320632  1
  Zn  Zn21  1  0.82760591  0.34815020  0.18296868  1
  Zn  Zn22  1  0.33372713  0.33356257  0.98503639  1
  Zn  Zn23  1  0.83356138  0.33335270  0.98499222  1
  Zn  Zn24  1  0.83272907  0.33545215  0.48351619  1
  Zn  Zn25  1  0.16347209  0.66203076  0.51327232  1
  Zn  Zn26  1  0.66983077  0.66712017  0.51472712  1
  Zn  Zn27  1  0.17500147  0.67367585  0.32134901  1
  Zn  Zn28  1  0.17696405  0.69621197  0.81834612  1
  Zn  Zn29  1  0.67048848  0.67243484  0.81933725  1
  In  In30  1  0.99779194  0.98915925  0.35135453  1
  In  In31  1  0.99728171  0.00269379  0.85124066  1
  In  In32  1  0.49634487  0.00638932  0.85181490  1
  In  In33  1  0.99277545  0.99463722  0.64724262  1
  In  In34  1  0.49667216  0.00127550  0.64860832  1
  In  In35  1  0.99793446  0.99636380  0.14940767  1
  In  In36  1  0.49769524  0.99778048  0.15078925  1
  In  In37  1  0.33411823  0.31705665  0.68251921  1
  In  In38  1  0.33250344  0.33064283  0.48035657  1
  In  In39  1  0.16703013  0.66760063  0.01704202  1
  In  In40  1  0.66639019  0.66882322  0.01762429  1
  In  In41  1  0.66592728  0.65529552  0.31787970  1
  Si  Si42  1  0.84990930  0.69827421  0.24933379  1
  Si  Si43  1  0.34921241  0.99760333  0.75064024  1
  Si  Si44  1  0.84903677  0.00036148  0.75083096  1
  S  S45  1  0.15216728  0.00315524  0.25009630  1
  S  S46  1  0.64568707  0.00001385  0.25129118  1
  S  S47  1  0.35146423  0.70279275  0.25175679  1
  S  S48  1  0.00317490  0.30113105  0.24983770  1
  S  S49  1  0.49651904  0.29053764  0.25046713  1
  S  S50  1  0.14776126  0.29566341  0.75014674  1
  S  S51  1  0.64913716  0.29896467  0.75004519  1
  S  S52  1  0.00114989  0.70387954  0.74963702  1
  S  S53  1  0.50123291  0.70439132  0.75057070  1
  S  S54  1  0.48539372  0.34113215  0.58069016  1
  S  S55  1  0.98282090  0.34029684  0.58160209  1
  S  S56  1  0.18264610  0.03104653  0.58185646  1
  S  S57  1  0.68467261  0.03569576  0.58308604  1
  S  S58  1  0.33141313  0.62530689  0.58329299  1
  S  S59  1  0.83136652  0.62057918  0.58294093  1
  S  S60  1  0.47812621  0.62386406  0.08320592  1
  S  S61  1  0.98001060  0.62387195  0.08237567  1
  S  S62  1  0.33321061  0.04412515  0.08327973  1
  S  S63  1  0.83327850  0.04516653  0.08316222  1
  S  S64  1  0.18804771  0.33199886  0.08358674  1
  S  S65  1  0.68632173  0.33138459  0.08208323  1
  S  S66  1  0.31407228  0.65972820  0.91692155  1
  S  S67  1  0.81391125  0.66020717  0.91692956  1
  S  S68  1  0.01937925  0.37568165  0.91562830  1
  S  S69  1  0.51993109  0.37762231  0.91661610  1
  S  S70  1  0.16701022  0.96598057  0.91681179  1
  S  S71  1  0.66691379  0.96605727  0.91555941  1
  S  S72  1  0.31337352  0.95698338  0.41714037  1
  S  S73  1  0.81364329  0.96655287  0.41852617  1
  S  S74  1  0.16566769  0.37419922  0.41649460  1
  S  S75  1  0.66596593  0.36622199  0.41943262  1
  S  S76  1  0.02052109  0.66308946  0.41695665  1
  S  S77  1  0.52038512  0.67007105  0.41756358  1
  O  O78  1  0.11350835  0.03601224  0.30255235  1
  O  O79  1  0.60434528  0.02631410  0.30234174  1
  O  O80  1  0.40687161  0.78758506  0.30226102  1
  O  O81  1  0.91377772  0.77924289  0.30552450  1
  O  O82  1  0.48589775  0.18498272  0.30237722  1
  O  O83  1  0.98802532  0.19033483  0.30232061  1
  O  O84  1  0.11240601  0.18582210  0.80253745  1
  O  O85  1  0.61170794  0.18194650  0.80193392  1
  O  O86  1  0.48593005  0.78305449  0.80277743  1
  O  O87  1  0.98601296  0.78343082  0.80234578  1
  O  O88  1  0.40833945  0.03454300  0.80788035  1
  O  O89  1  0.91499697  0.05290432  0.80597426  1
  O  O90  1  0.38882824  0.94852228  0.69370048  1
  O  O91  1  0.88841272  0.94738338  0.69550215  1
  O  O92  1  0.09481903  0.21347876  0.69762188  1
  O  O93  1  0.59626056  0.21915518  0.69748015  1
  O  O94  1  0.01931297  0.81527380  0.69751874  1
  O  O95  1  0.52035024  0.81649814  0.69791299  1
  O  O96  1  0.38811329  0.80772999  0.19689911  1
  O  O97  1  0.88949739  0.82958276  0.19322051  1
  O  O98  1  0.02083764  0.22758113  0.19738306  1
  O  O99  1  0.51339973  0.21828633  0.19664091  1
  O  O100  1  0.09571796  0.96882467  0.19775981  1
  O  O101  1  0.59505899  0.97339698  0.19699344  1
  O  O102  1  0.44704270  0.36813014  0.63460227  1
  O  O103  1  0.94594294  0.36106058  0.63776167  1
  O  O104  1  0.23435043  0.10956153  0.63518492  1
  O  O105  1  0.73287373  0.11052659  0.63855516  1
  O  O106  1  0.32077808  0.52456801  0.63837773  1
  O  O107  1  0.82206907  0.52537426  0.63881160  1
  O  O108  1  0.43912898  0.52131647  0.13614038  1
  O  O109  1  0.94238145  0.52525590  0.13665261  1
  O  O110  1  0.32154766  0.12197250  0.13597762  1
  O  O111  1  0.82278282  0.12080430  0.13754210  1
  O  O112  1  0.23895252  0.35561368  0.13619615  1
  O  O113  1  0.73641067  0.35471035  0.13489687  1
  O  O114  1  0.22698890  0.30913711  0.03035758  1
  O  O115  1  0.72626289  0.30931146  0.02929804  1
  O  O116  1  0.42783705  0.54652746  0.03028584  1
  O  O117  1  0.92759338  0.54193536  0.03061602  1
  O  O118  1  0.34498862  0.14477636  0.02989759  1
  O  O119  1  0.84234508  0.14763050  0.03078634  1
  O  O120  1  0.22357919  0.14381676  0.53021752  1
  O  O121  1  0.72741303  0.14712897  0.53234446  1
  O  O122  1  0.34423586  0.53929320  0.53236061  1
  O  O123  1  0.84269976  0.53549878  0.53222947  1
  O  O124  1  0.42809124  0.30895200  0.53015607  1
  O  O125  1  0.92633425  0.31297740  0.53198567  1
  O  O126  1  0.27385049  0.69128116  0.96880659  1
  O  O127  1  0.77335565  0.69088559  0.96861847  1
  O  O128  1  0.07258659  0.45612425  0.96817872  1
  O  O129  1  0.57223904  0.45506541  0.96988938  1
  O  O130  1  0.15147968  0.85827345  0.97017333  1
  O  O131  1  0.65212605  0.85684798  0.96824090  1
  O  O132  1  0.27285713  0.85403779  0.47023695  1
  O  O133  1  0.77042225  0.85237359  0.46866892  1
  O  O134  1  0.15489168  0.45223449  0.46965344  1
  O  O135  1  0.65232693  0.45124001  0.47013700  1
  O  O136  1  0.07448219  0.68684803  0.46821570  1
  O  O137  1  0.57234349  0.69017360  0.46950896  1
  O  O138  1  0.05942297  0.64423222  0.36202936  1
  O  O139  1  0.55817484  0.63986770  0.36379285  1
  O  O140  1  0.26081832  0.88195141  0.36455213  1
  O  O141  1  0.76497651  0.89257987  0.36302549  1
  O  O142  1  0.17796626  0.47628680  0.36358809  1
  O  O143  1  0.68191183  0.47132151  0.36500793  1
  O  O144  1  0.06046574  0.47643363  0.86192057  1
  O  O145  1  0.56223765  0.48135479  0.86406206  1
  O  O146  1  0.17807119  0.88401082  0.86483501  1
  O  O147  1  0.67792966  0.88586219  0.86223678  1
  O  O148  1  0.26357524  0.63838419  0.86342188  1
  O  O149  1  0.76445552  0.63983817  0.86308567  1
  O  O150  1  0.01409674  0.82721969  0.41526136  1
  O  O151  1  0.51074123  0.82582759  0.41103280  1
  O  O152  1  0.40180808  0.97713591  0.41119517  1
  O  O153  1  0.90252784  0.98347463  0.41463215  1
  O  O154  1  0.08662195  0.19564566  0.41196786  1
  O  O155  1  0.58622749  0.19288759  0.41253741  1
  O  O156  1  0.01252042  0.19927102  0.91420671  1
  O  O157  1  0.51343583  0.20163227  0.91470536  1
  O  O158  1  0.08650665  0.98123061  0.91184307  1
  O  O159  1  0.58646171  0.98133927  0.91129014  1
  O  O160  1  0.40319703  0.81917302  0.91420376  1
  O  O161  1  0.90300696  0.82021176  0.91391234  1
  O  O162  1  0.49244404  0.18041175  0.58531985  1
  O  O163  1  0.99245301  0.18016767  0.58532195  1
  O  O164  1  0.09551244  0.01804851  0.58764812  1
  O  O165  1  0.59581534  0.01983974  0.58803936  1
  O  O166  1  0.41327769  0.79923543  0.58569980  1
  O  O167  1  0.91341939  0.79804674  0.58446566  1
  O  O168  1  0.48877604  0.80332660  0.08769559  1
  O  O169  1  0.99136386  0.80387249  0.08511385  1
  O  O170  1  0.41278287  0.02303121  0.08726270  1
  O  O171  1  0.91373063  0.02811592  0.08467158  1
  O  O172  1  0.09802114  0.17343823  0.08816529  1
  O  O173  1  0.59690216  0.17256699  0.08702946  1
  O  O174  1  0.34048629  0.17248539  0.74766565  1
  O  O175  1  0.84020000  0.17601159  0.74363643  1
  O  O176  1  0.23921859  0.33025098  0.74356057  1
  O  O177  1  0.73775339  0.32176045  0.74354077  1
  O  O178  1  0.41773897  0.53630157  0.74326020  1
  O  O179  1  0.91905207  0.53331491  0.74339492  1
  O  O180  1  0.34354991  0.52864586  0.24467045  1
  O  O181  1  0.84716745  0.51199449  0.24401332  1
  O  O182  1  0.41732426  0.30604164  0.24402069  1
  O  O183  1  0.92159390  0.30860672  0.24325951  1
  O  O184  1  0.23917843  0.15799815  0.24216326  1
  O  O185  1  0.73598178  0.15169612  0.24464213  1
  O  O186  1  0.32189624  0.50248858  0.92374863  1
  O  O187  1  0.82195582  0.50300533  0.92355835  1
  O  O188  1  0.43205962  0.35765908  0.92225342  1
  O  O189  1  0.93157376  0.35660600  0.92194189  1
  O  O190  1  0.24598512  0.13958462  0.92289952  1
  O  O191  1  0.74589540  0.13945556  0.92205949  1
  O  O192  1  0.32213082  0.13559968  0.42106846  1
  O  O193  1  0.82267235  0.14070698  0.42445009  1
  O  O194  1  0.24589880  0.35540227  0.42046361  1
  O  O195  1  0.74540267  0.35053823  0.42502640  1
  O  O196  1  0.43128045  0.50902262  0.42144483  1
  O  O197  1  0.93211445  0.50739720  0.42268602  1
  O  O198  1  0.17756118  0.49102054  0.07889958  1
  O  O199  1  0.67673846  0.49098468  0.07801868  1
  O  O200  1  0.06926746  0.64274496  0.07810732  1
  O  O201  1  0.56806576  0.64470250  0.07896585  1
  O  O202  1  0.25386508  0.86398536  0.07904022  1
  O  O203  1  0.75372442  0.86542366  0.07876884  1
  O  O204  1  0.17523583  0.85922766  0.57565409  1
  O  O205  1  0.67550004  0.86014125  0.57745750  1
  O  O206  1  0.25348263  0.64311579  0.57764802  1
  O  O207  1  0.75351759  0.64241492  0.57829373  1
  O  O208  1  0.07067504  0.49737027  0.57625092  1
  O  O209  1  0.57174349  0.49721800  0.57457899  1
  O  O210  1  0.15531741  0.83907449  0.25712629  1
  O  O211  1  0.65476843  0.84123552  0.25653799  1
  O  O212  1  0.26332819  0.68559964  0.25742427  1
  O  O213  1  0.75613347  0.69430751  0.25433970  1
  O  O214  1  0.07852922  0.48101089  0.25688385  1
  O  O215  1  0.57534186  0.46837597  0.25480798  1
  O  O216  1  0.15111670  0.46472982  0.75665766  1
  O  O217  1  0.65609715  0.47066727  0.75768901  1
  O  O218  1  0.07510037  0.67258678  0.75680290  1
  O  O219  1  0.57724704  0.68150642  0.75738053  1
  O  O220  1  0.25487492  0.81542586  0.75467426  1
  O  O221  1  0.75226361  0.82450054  0.75729828  1
