# generated using pymatgen
data_TiF4
_symmetry_space_group_name_H-M   'P 1'
_cell_length_a   3.86897486
_cell_length_b   9.50155057
_cell_length_c   22.35727010
_cell_angle_alpha   90.00000000
_cell_angle_beta   90.00000000
_cell_angle_gamma   90.00000000
_symmetry_Int_Tables_number   1
_chemical_formula_structural   TiF4
_chemical_formula_sum   'Ti12 F48'
_cell_volume   821.88142544
_cell_formula_units_Z   12
loop_
 _symmetry_equiv_pos_site_id
 _symmetry_equiv_pos_as_xyz
  1  'x, y, z'
loop_
 _atom_site_type_symbol
 _atom_site_label
 _atom_site_symmetry_multiplicity
 _atom_site_fract_x
 _atom_site_fract_y
 _atom_site_fract_z
 _atom_site_occupancy
  Ti  Ti0  1  0.25000000  0.64826970  0.57387959  1
  Ti  Ti1  1  0.75000000  0.35173030  0.42612041  1
  Ti  Ti2  1  0.75000000  0.14826970  0.92612041  1
  Ti  Ti3  1  0.25000000  0.85173030  0.07387959  1
  Ti  Ti4  1  0.25000000  0.44610419  0.09839445  1
  Ti  Ti5  1  0.75000000  0.55389581  0.90160555  1
  Ti  Ti6  1  0.75000000  0.94610419  0.40160555  1
  Ti  Ti7  1  0.25000000  0.05389581  0.59839445  1
  Ti  Ti8  1  0.25000000  0.80182988  0.73572558  1
  Ti  Ti9  1  0.75000000  0.19817012  0.26427442  1
  Ti  Ti10  1  0.75000000  0.30182988  0.76427442  1
  Ti  Ti11  1  0.25000000  0.69817012  0.23572558  1
  F  F12  1  0.25000000  0.64250895  0.07002918  1
  F  F13  1  0.75000000  0.35749105  0.92997082  1
  F  F14  1  0.75000000  0.14250895  0.42997082  1
  F  F15  1  0.25000000  0.85749105  0.57002918  1
  F  F16  1  0.25000000  0.63776770  0.49533131  1
  F  F17  1  0.75000000  0.36223230  0.50466869  1
  F  F18  1  0.75000000  0.13776770  0.00466869  1
  F  F19  1  0.25000000  0.86223230  0.99533131  1
  F  F20  1  0.25000000  0.92382457  0.79463923  1
  F  F21  1  0.75000000  0.07617543  0.20536077  1
  F  F22  1  0.75000000  0.42382457  0.70536077  1
  F  F23  1  0.25000000  0.57617543  0.29463923  1
  F  F24  1  0.25000000  0.30395753  0.77217801  1
  F  F25  1  0.75000000  0.69604247  0.22782199  1
  F  F26  1  0.75000000  0.80395753  0.72782199  1
  F  F27  1  0.25000000  0.19604247  0.27217801  1
  F  F28  1  0.25000000  0.33524078  0.42111890  1
  F  F29  1  0.75000000  0.66475922  0.57888110  1
  F  F30  1  0.75000000  0.83524078  0.07888110  1
  F  F31  1  0.25000000  0.16475822  0.92111890  1
  F  F32  1  0.25000000  0.11582820  0.52419739  1
  F  F33  1  0.75000000  0.88417180  0.47580261  1
  F  F34  1  0.75000000  0.61582820  0.97580261  1
  F  F35  1  0.25000000  0.38417180  0.02419739  1
  F  F36  1  0.25000000  0.03116428  0.09026046  1
  F  F37  1  0.75000000  0.96883572  0.90973954  1
  F  F38  1  0.75000000  0.53116428  0.40973954  1
  F  F39  1  0.25000000  0.46883572  0.59026046  1
  F  F40  1  0.25000000  0.80992945  0.16072763  1
  F  F41  1  0.75000000  0.19007055  0.83927237  1
  F  F42  1  0.75000000  0.30992945  0.33927237  1
  F  F43  1  0.25000000  0.69007055  0.66072763  1
  F  F44  1  0.25000000  0.96312381  0.39927223  1
  F  F45  1  0.75000000  0.03687619  0.60072777  1
  F  F46  1  0.75000000  0.46312381  0.10072777  1
  F  F47  1  0.25000000  0.53687619  0.89927223  1
  F  F48  1  0.25000000  0.85822529  0.27537601  1
  F  F49  1  0.75000000  0.14177471  0.72462399  1
  F  F50  1  0.75000000  0.35822529  0.22462399  1
  F  F51  1  0.25000000  0.64177471  0.77537601  1
  F  F52  1  0.25000000  0.21420149  0.63717277  1
  F  F53  1  0.75000000  0.78579851  0.36282723  1
  F  F54  1  0.75000000  0.71420149  0.86282723  1
  F  F55  1  0.25000000  0.28579851  0.13717277  1
  F  F56  1  0.25000000  0.54481300  0.17652795  1
  F  F57  1  0.75000000  0.45518600  0.82347205  1
  F  F58  1  0.75000000  0.04481300  0.32347205  1
  F  F59  1  0.25000000  0.95518700  0.67652795  1
