# generated using pymatgen
data_Na2CaTa(PO4)3
_symmetry_space_group_name_H-M   'P 1'
_cell_length_a   9.12216040
_cell_length_b   9.09359468
_cell_length_c   22.63442940
_cell_angle_alpha   90.00000000
_cell_angle_beta   90.06592905
_cell_angle_gamma   119.89646827
_symmetry_Int_Tables_number   1
_chemical_formula_structural   Na2CaTa(PO4)3
_chemical_formula_sum   'Na12 Ca6 Ta6 P18 O72'
_cell_volume   1627.74073471
_cell_formula_units_Z   6
loop_
 _symmetry_equiv_pos_site_id
 _symmetry_equiv_pos_as_xyz
  1  'x, y, z'
loop_
 _atom_site_type_symbol
 _atom_site_label
 _atom_site_symmetry_multiplicity
 _atom_site_fract_x
 _atom_site_fract_y
 _atom_site_fract_z
 _atom_site_occupancy
  Na  Na0  1  0.97997768  0.64036164  0.24562323  1
  Na  Na1  1  0.97997768  0.33961603  0.74562323  1
  Na  Na2  1  0.64664468  0.97369464  0.57895623  1
  Na  Na3  1  0.64664468  0.67294903  0.07895623  1
  Na  Na4  1  0.31331068  0.30702864  0.91229023  1
  Na  Na5  1  0.31331068  0.00628303  0.41229023  1
  Na  Na6  1  0.99457647  0.00159272  0.49145109  1
  Na  Na7  1  0.99457647  0.99298375  0.99145109  1
  Na  Na8  1  0.66124347  0.33492572  0.82478409  1
  Na  Na9  1  0.66124347  0.32631675  0.32478409  1
  Na  Na10  1  0.32790947  0.66825972  0.15811809  1
  Na  Na11  1  0.32790947  0.65965075  0.65811809  1
  Ca  Ca12  1  0.99169862  0.00554701  0.35320116  1
  Ca  Ca13  1  0.99169862  0.98615161  0.85320116  1
  Ca  Ca14  1  0.65836562  0.33888001  0.68653416  1
  Ca  Ca15  1  0.65836562  0.31948461  0.18653416  1
  Ca  Ca16  1  0.32503162  0.67221401  0.01986816  1
  Ca  Ca17  1  0.32503162  0.65281861  0.51986816  1
  Ta  Ta18  1  0.00491704  0.99559445  0.64851475  1
  Ta  Ta19  1  0.00491704  0.00932259  0.14851475  1
  Ta  Ta20  1  0.67158404  0.32892745  0.98184775  1
  Ta  Ta21  1  0.67158404  0.34265559  0.48184775  1
  Ta  Ta22  1  0.33825004  0.66226145  0.31518175  1
  Ta  Ta23  1  0.33825004  0.67598959  0.81518175  1
  P  P24  1  0.28704983  0.98285317  0.25470016  1
  P  P25  1  0.69985507  0.71533206  0.24939668  1
  P  P26  1  0.01925665  0.30907699  0.25118910  1
  P  P27  1  0.28704983  0.30419665  0.75470016  1
  P  P28  1  0.01925665  0.71017966  0.75118910  1
  P  P29  1  0.69985507  0.98452301  0.74939668  1
  P  P30  1  0.95371683  0.31618617  0.58803316  1
  P  P31  1  0.36652207  0.04866506  0.58272968  1
  P  P32  1  0.68592365  0.64240999  0.58452210  1
  P  P33  1  0.95371683  0.63752965  0.08803316  1
  P  P34  1  0.68592365  0.04351266  0.08452210  1
  P  P35  1  0.36652207  0.31785601  0.08272968  1
  P  P36  1  0.62038283  0.64952017  0.92136716  1
  P  P37  1  0.03318807  0.38199906  0.91606368  1
  P  P38  1  0.35258965  0.97574399  0.91785610  1
  P  P39  1  0.62038283  0.97086365  0.42136716  1
  P  P40  1  0.35258965  0.37684666  0.41785610  1
  P  P41  1  0.03318807  0.65119001  0.41606368  1
  O  O42  1  0.21024699  0.99451333  0.31183803  1
  O  O43  1  0.81012966  0.79405031  0.30219851  1
  O  O44  1  0.99325241  0.21022536  0.30608947  1
  O  O45  1  0.21024699  0.21573365  0.81183803  1
  O  O46  1  0.99325241  0.78302705  0.80608947  1
  O  O47  1  0.81012966  0.01607934  0.80219851  1
  O  O48  1  0.79524706  0.96172808  0.69245140  1
  O  O49  1  0.16012397  0.19226419  0.70071265  1
  O  O50  1  0.03141093  0.82797635  0.69531646  1
  O  O51  1  0.79524706  0.83351898  0.19245140  1
  O  O52  1  0.03141093  0.20343458  0.19531646  1
  O  O53  1  0.16012397  0.96785977  0.20071265  1
  O  O54  1  0.87691399  0.32784633  0.64517103  1
  O  O55  1  0.47679666  0.12738331  0.63553151  1
  O  O56  1  0.65991941  0.54355836  0.63942247  1
  O  O57  1  0.87691399  0.54906665  0.14517103  1
  O  O58  1  0.65991941  0.11636005  0.13942247  1
  O  O59  1  0.47679666  0.34941234  0.13553151  1
  O  O60  1  0.46191406  0.29506108  0.02578440  1
  O  O61  1  0.82679097  0.52559719  0.03404565  1
  O  O62  1  0.69807793  0.16130935  0.02864946  1
  O  O63  1  0.46191406  0.16685198  0.52578440  1
  O  O64  1  0.69807793  0.53676758  0.52864946  1
  O  O65  1  0.82679097  0.30119277  0.53404565  1
  O  O66  1  0.54357999  0.66118033  0.97850503  1
  O  O67  1  0.14346266  0.46071731  0.96886551  1
  O  O68  1  0.32658541  0.87689236  0.97275647  1
  O  O69  1  0.54357999  0.88240065  0.47850503  1
  O  O70  1  0.32658541  0.44969405  0.47275647  1
  O  O71  1  0.14346266  0.68274634  0.46886551  1
  O  O72  1  0.12858006  0.62839508  0.35911840  1
  O  O73  1  0.49345697  0.85893119  0.36737965  1
  O  O74  1  0.36474393  0.49464335  0.36198346  1
  O  O75  1  0.12858006  0.50018598  0.85911840  1
  O  O76  1  0.36474393  0.87010158  0.86198346  1
  O  O77  1  0.49345697  0.63452677  0.86737965  1
  O  O78  1  0.00258120  0.79934121  0.40812825  1
  O  O79  1  0.79916085  0.00710869  0.41373565  1
  O  O80  1  0.21695563  0.19273017  0.40946501  1
  O  O81  1  0.00258120  0.20323999  0.90812825  1
  O  O82  1  0.21695563  0.02422546  0.90946501  1
  O  O83  1  0.79916085  0.79205216  0.91373565  1
  O  O84  1  0.94920510  0.13798531  0.58763768  1
  O  O85  1  0.19165899  0.04500590  0.59072454  1
  O  O86  1  0.86269585  0.81476935  0.58762617  1
  O  O87  1  0.94920510  0.81121978  0.08763768  1
  O  O88  1  0.86269585  0.04792651  0.08762617  1
  O  O89  1  0.19165899  0.14665309  0.09072454  1
  O  O90  1  0.66924820  0.13267421  0.74146125  1
  O  O91  1  0.46582785  0.34044169  0.74706865  1
  O  O92  1  0.88362263  0.52606317  0.74279801  1
  O  O93  1  0.66924820  0.53657299  0.24146125  1
  O  O94  1  0.88362263  0.35755846  0.24279801  1
  O  O95  1  0.46582785  0.12538516  0.24706865  1
  O  O96  1  0.61587210  0.47131831  0.92097068  1
  O  O97  1  0.85832599  0.37833890  0.92405754  1
  O  O98  1  0.52936285  0.14810235  0.92095917  1
  O  O99  1  0.61587210  0.14455278  0.42097068  1
  O  O100  1  0.52936285  0.38125951  0.42095917  1
  O  O101  1  0.85832599  0.47998609  0.42405754  1
  O  O102  1  0.33591420  0.46600821  0.07479525  1
  O  O103  1  0.13249385  0.67377569  0.08040265  1
  O  O104  1  0.55028863  0.85939717  0.07613201  1
  O  O105  1  0.33591420  0.86990699  0.57479525  1
  O  O106  1  0.55028863  0.69089246  0.57613201  1
  O  O107  1  0.13249385  0.45871916  0.58040265  1
  O  O108  1  0.28253810  0.80465231  0.25430468  1
  O  O109  1  0.52499199  0.71167290  0.25739154  1
  O  O110  1  0.19602885  0.48143635  0.25429317  1
  O  O111  1  0.28253810  0.47788678  0.75430468  1
  O  O112  1  0.19602885  0.71459351  0.75429317  1
  O  O113  1  0.52499199  0.81332009  0.75739154  1
