# generated using pymatgen
data_Na2ScNb3Si2(PO6)4
_symmetry_space_group_name_H-M   'P 1'
_cell_length_a   8.84423652
_cell_length_b   8.84207037
_cell_length_c   22.95803567
_cell_angle_alpha   90.05983821
_cell_angle_beta   90.02342913
_cell_angle_gamma   119.97119191
_symmetry_Int_Tables_number   1
_chemical_formula_structural   Na2ScNb3Si2(PO6)4
_chemical_formula_sum   'Na6 Sc3 Nb9 Si6 P12 O72'
_cell_volume   1555.26781244
_cell_formula_units_Z   3
loop_
 _symmetry_equiv_pos_site_id
 _symmetry_equiv_pos_as_xyz
  1  'x, y, z'
loop_
 _atom_site_type_symbol
 _atom_site_label
 _atom_site_symmetry_multiplicity
 _atom_site_fract_x
 _atom_site_fract_y
 _atom_site_fract_z
 _atom_site_occupancy
  Na  Na0  1  0.99821840  0.99961000  0.49644845  1
  Na  Na1  1  -0.00001601  0.99983128  0.00077596  1
  Na  Na2  1  0.66725631  0.33352511  0.83256268  1
  Na  Na3  1  0.66654581  0.33358749  0.32995066  1
  Na  Na4  1  0.33332917  0.66539859  0.16567361  1
  Na  Na5  1  0.33182040  0.66562153  0.66705433  1
  Sc  Sc6  1  0.99648487  -0.00012107  0.35316131  1
  Sc  Sc7  1  0.67114563  0.33535527  0.68616396  1
  Sc  Sc8  1  0.66420837  0.33486484  0.18547437  1
  Nb  Nb9  1  0.00025776  0.99963761  0.85658286  1
  Nb  Nb10  1  0.99953445  0.00241831  0.64551450  1
  Nb  Nb11  1  0.00309726  0.00340179  0.14616730  1
  Nb  Nb12  1  0.66169159  0.33169348  0.97861792  1
  Nb  Nb13  1  0.67032274  0.32940006  0.47846239  1
  Nb  Nb14  1  0.33331476  0.66388388  0.02035300  1
  Nb  Nb15  1  0.33507571  0.66642003  0.51981635  1
  Nb  Nb16  1  0.33770811  0.67184299  0.31087330  1
  Nb  Nb17  1  0.33259704  0.66667221  0.81450572  1
  Si  Si18  1  0.95667164  0.33567012  0.58464360  1
  Si  Si19  1  0.37867058  0.33441577  0.08460920  1
  Si  Si20  1  0.62030290  0.66529047  0.91688857  1
  Si  Si21  1  0.04339764  0.37944474  0.91692878  1
  Si  Si22  1  0.33488342  0.95434683  0.91741947  1
  Si  Si23  1  0.62638075  0.95485008  0.41650503  1
  P  P24  1  0.28966716  0.00345084  0.25133471  1
  P  P25  1  0.71417948  0.71009953  0.25069935  1
  P  P26  1  0.99727002  0.28835130  0.25123288  1
  P  P27  1  0.28962791  0.28856514  0.75052290  1
  P  P28  1  0.99926592  0.71118006  0.75016939  1
  P  P29  1  0.71111925  0.00052556  0.75053170  1
  P  P30  1  0.37936172  0.04528554  0.58377526  1
  P  P31  1  0.66631050  0.62004035  0.58366559  1
  P  P32  1  0.95494369  0.62140170  0.08383539  1
  P  P33  1  0.66594761  0.04469146  0.08381350  1
  P  P34  1  0.33285600  0.37825052  0.41634327  1
  P  P35  1  0.04701566  0.66874035  0.41643683  1
  O  O36  1  0.20573905  0.02624813  0.30486900  1
  O  O37  1  0.82055366  0.79398872  0.30464539  1
  O  O38  1  0.97363211  0.17920255  0.30439343  1
  O  O39  1  0.19654114  0.17293559  0.80399459  1
  O  O40  1  0.97671123  0.80386153  0.80410986  1
  O  O41  1  0.82725366  0.02404403  0.80403669  1
  O  O42  1  0.80157159  0.97131458  0.69574801  1
  O  O43  1  0.16974088  0.19820584  0.69563817  1
  O  O44  1  0.02876005  0.82948533  0.69570703  1
  O  O45  1  0.79647505  0.82808255  0.19555852  1
  O  O46  1  0.03023354  0.20104556  0.19553928  1
  O  O47  1  0.17079642  0.96905941  0.19560469  1
  O  O48  1  0.87381254  0.36862014  0.64079467  1
  O  O49  1  0.48743509  0.12134168  0.63788468  1
  O  O50  1  0.63190468  0.51212779  0.63797155  1
  O  O51  1  0.87959427  0.51222209  0.13809218  1
  O  O52  1  0.63524149  0.12224777  0.13814255  1
  O  O53  1  0.49424140  0.36844674  0.14097579  1
  O  O54  1  0.46730184  0.30169872  0.02602034  1
  O  O55  1  0.84182274  0.53826332  0.02851674  1
  O  O56  1  0.69856308  0.15841090  0.02847553  1
  O  O57  1  0.46187552  0.15990207  0.52845877  1
  O  O58  1  0.69586519  0.53738238  0.52837016  1
  O  O59  1  0.83277419  0.30244199  0.52608411  1
  O  O60  1  0.53266268  0.70075653  0.97345529  1
  O  O61  1  0.16803885  0.46766807  0.97332555  1
  O  O62  1  0.29961133  0.83264728  0.97381055  1
  O  O63  1  0.52390583  0.83411253  0.47318034  1
  O  O64  1  0.30835038  0.46916622  0.47118986  1
  O  O65  1  0.15997184  0.68921086  0.47113906  1
  O  O66  1  0.13049583  0.63316521  0.36244932  1
  O  O67  1  0.49441703  0.86024880  0.36023237  1
  O  O68  1  0.36353307  0.49722246  0.36259237  1
  O  O69  1  0.13658375  0.50063921  0.85913498  1
  O  O70  1  0.36446055  0.86384026  0.85910442  1
  O  O71  1  0.49918109  0.63510017  0.85903621  1
  O  O72  1  0.02737071  0.82823822  0.41179335  1
  O  O73  1  0.81523222  0.97772237  0.41236228  1
  O  O74  1  0.17403640  0.19845836  0.41172545  1
  O  O75  1  0.02520741  0.18807210  0.90688304  1
  O  O76  1  0.16407278  0.97609443  0.90690612  1
  O  O77  1  0.81224124  0.83692955  0.90706442  1
  O  O78  1  0.97797417  0.16011664  0.59186363  1
  O  O79  1  0.19256562  0.02202476  0.59094086  1
  O  O80  1  0.83071532  0.80644141  0.59119389  1
  O  O81  1  0.97492518  0.80718749  0.09096255  1
  O  O82  1  0.83004313  0.02179811  0.09092898  1
  O  O83  1  0.18099008  0.15943921  0.09162271  1
  O  O84  1  0.69152420  0.16034809  0.74463567  1
  O  O85  1  0.46805544  0.30686893  0.74421418  1
  O  O86  1  0.83789528  0.53228316  0.74519038  1
  O  O87  1  0.68758801  0.52737400  0.24377594  1
  O  O88  1  0.84065954  0.31285859  0.24268301  1
  O  O89  1  0.47293452  0.15720124  0.24321005  1
  O  O90  1  0.64453225  0.49636964  0.92468664  1
  O  O91  1  0.85228831  0.35705095  0.92501112  1
  O  O92  1  0.50611073  0.14664942  0.92419972  1
  O  O93  1  0.63483016  0.14555522  0.42527262  1
  O  O94  1  0.50059598  0.36588970  0.42558417  1
  O  O95  1  0.86306824  0.50215069  0.42539612  1
  O  O96  1  0.35171197  0.50284901  0.07452258  1
  O  O97  1  0.14027054  0.64759998  0.07471989  1
  O  O98  1  0.50510820  0.86081943  0.07470354  1
  O  O99  1  0.35391405  0.85977314  0.57366621  1
  O  O100  1  0.50611299  0.64628253  0.57404194  1
  O  O101  1  0.15105829  0.50246175  0.57293300  1
  O  O102  1  0.30292040  0.83097328  0.25726072  1
  O  O103  1  0.52665607  0.69294436  0.25788211  1
  O  O104  1  0.16735147  0.47227577  0.25774086  1
  O  O105  1  0.30238453  0.46981005  0.75613157  1
  O  O106  1  0.16694373  0.69679854  0.75641667  1
  O  O107  1  0.52999395  0.83228910  0.75607782  1
