# generated using pymatgen
data_Na8Ca2La2Si3(SO8)3
_symmetry_space_group_name_H-M   'P 1'
_cell_length_a   9.70027495
_cell_length_b   9.69404041
_cell_length_c   23.51845932
_cell_angle_alpha   89.88248646
_cell_angle_beta   90.25156332
_cell_angle_gamma   119.90243707
_symmetry_Int_Tables_number   1
_chemical_formula_structural   Na8Ca2La2Si3(SO8)3
_chemical_formula_sum   'Na24 Ca6 La6 Si9 S9 O72'
_cell_volume   1917.12441477
_cell_formula_units_Z   3
loop_
 _symmetry_equiv_pos_site_id
 _symmetry_equiv_pos_as_xyz
  1  'x, y, z'
loop_
 _atom_site_type_symbol
 _atom_site_label
 _atom_site_symmetry_multiplicity
 _atom_site_fract_x
 _atom_site_fract_y
 _atom_site_fract_z
 _atom_site_occupancy
  Na  Na0  1  0.64383745  0.03176809  0.26502090  1
  Na  Na1  1  0.33924987  0.32797893  0.25781882  1
  Na  Na2  1  0.99726980  0.61640380  0.23909849  1
  Na  Na3  1  0.61701736  0.61549413  0.72556461  1
  Na  Na4  1  0.98191816  0.33482514  0.72993195  1
  Na  Na5  1  0.39517632  0.03680009  0.75096929  1
  Na  Na6  1  0.30546494  0.36201081  0.59699064  1
  Na  Na7  1  0.00665120  0.66430329  0.58803580  1
  Na  Na8  1  0.66562268  0.94935568  0.57867578  1
  Na  Na9  1  0.28055710  0.93511516  0.08059563  1
  Na  Na10  1  0.68950943  0.69583151  0.08118127  1
  Na  Na11  1  0.03284267  0.36492172  0.10259217  1
  Na  Na12  1  0.99778722  0.70127562  0.92038861  1
  Na  Na13  1  0.67672300  0.02610131  0.89255033  1
  Na  Na14  1  0.31946336  0.26647278  0.89709593  1
  Na  Na15  1  0.94934307  0.26913887  0.41805108  1
  Na  Na16  1  0.34756725  0.03306342  0.40388850  1
  Na  Na17  1  0.69973310  0.70069511  0.43868003  1
  Na  Na18  1  0.96012598  0.00131337  0.50687280  1
  Na  Na19  1  0.02002223  0.97686718  0.99516801  1
  Na  Na20  1  0.64339852  0.31444526  0.81733887  1
  Na  Na21  1  0.66795453  0.29754030  0.32728959  1
  Na  Na22  1  0.29269675  0.66757151  0.17296486  1
  Na  Na23  1  0.34482795  0.64992375  0.65797653  1
  Ca  Ca24  1  -0.00019233  0.00254601  0.34662902  1
  Ca  Ca25  1  0.00277889  0.00765201  0.84309002  1
  Ca  Ca26  1  0.67056671  0.33243446  0.67883238  1
  Ca  Ca27  1  0.67062757  0.33114436  0.18376798  1
  Ca  Ca28  1  0.32473230  0.67314086  0.01503617  1
  Ca  Ca29  1  0.34041358  0.66860167  0.51647553  1
  La  La30  1  0.99450563  0.00859702  0.65393052  1
  La  La31  1  0.01009801  0.00344476  0.15905194  1
  La  La32  1  0.66836589  0.33190174  0.98699189  1
  La  La33  1  0.67287689  0.33170459  0.49158544  1
  La  La34  1  0.33514556  0.67737740  0.32002413  1
  La  La35  1  0.34064490  0.67636347  0.81587648  1
  Si  Si36  1  0.31599955  0.00393677  0.25097764  1
  Si  Si37  1  0.00088854  0.31101034  0.24845365  1
  Si  Si38  1  0.31499486  0.31185198  0.75201604  1
  Si  Si39  1  0.69024613  0.00429639  0.75421896  1
  Si  Si40  1  0.98650254  0.34134634  0.58329275  1
  Si  Si41  1  0.66767292  0.64279873  0.58206037  1
  Si  Si42  1  0.97493129  0.64259793  0.08298154  1
  Si  Si43  1  0.32813403  0.97691914  0.92102220  1
  Si  Si44  1  0.64579343  0.97767186  0.41573130  1
  S  S45  1  0.69255003  0.68749452  0.24955487  1
  S  S46  1  0.99084405  0.68866516  0.75314147  1
  S  S47  1  0.35730538  0.01969143  0.58376054  1
  S  S48  1  0.66338318  0.01879858  0.08380190  1
  S  S49  1  0.36239347  0.34202439  0.08431696  1
  S  S50  1  0.64332971  0.67217379  0.92230576  1
  S  S51  1  0.03109984  0.35547129  0.91988812  1
  S  S52  1  0.33026438  0.35632068  0.41568468  1
  S  S53  1  0.02460553  0.67149900  0.41780448  1
  O  O54  1  0.21810111  0.01180861  0.30623830  1
  O  O55  1  0.79525860  0.77655601  0.29815521  1
  O  O56  1  0.98702470  0.19500665  0.30100747  1
  O  O57  1  0.22707431  0.20751999  0.80902512  1
  O  O58  1  0.98461522  0.77298486  0.80506710  1
  O  O59  1  0.78281154  0.00619086  0.81295677  1
  O  O60  1  0.78157156  0.97932206  0.69988646  1
  O  O61  1  0.20526204  0.22110526  0.69569629  1
  O  O62  1  0.01391468  0.78706510  0.70158793  1
  O  O63  1  0.76098972  0.78017189  0.19566653  1
  O  O64  1  0.01619224  0.23205910  0.18729749  1
  O  O65  1  0.21394139  0.98436156  0.19145940  1
  O  O66  1  0.88962482  0.35016012  0.63863033  1
  O  O67  1  0.45811605  0.10736114  0.63324843  1
  O  O68  1  0.65608335  0.53282885  0.63634863  1
  O  O69  1  0.87556245  0.53485447  0.13763297  1
  O  O70  1  0.64598958  0.10312870  0.13320189  1
  O  O71  1  0.45598734  0.34944284  0.13524317  1
  O  O72  1  0.44092535  0.32440104  0.03233569  1
  O  O73  1  0.87456131  0.55880466  0.02329131  1
  O  O74  1  0.68054316  0.11248057  0.03106450  1
  O  O75  1  0.42783853  0.11383431  0.53055153  1
  O  O76  1  0.67686580  0.55661074  0.52203487  1
  O  O77  1  0.88168218  0.32131539  0.52445359  1
  O  O78  1  0.56001773  0.67660822  0.97472907  1
  O  O79  1  0.12457938  0.43848094  0.97145599  1
  O  O80  1  0.31508440  0.87896055  0.97971124  1
  O  O81  1  0.54481199  0.86690561  0.46943513  1
  O  O82  1  0.32051373  0.44734253  0.46437179  1
  O  O83  1  0.12194345  0.67959189  0.46763889  1
  O  O84  1  0.09956747  0.65316326  0.36479609  1
  O  O85  1  0.55013094  0.89738804  0.35503537  1
  O  O86  1  0.34538992  0.44503811  0.36161186  1
  O  O87  1  0.10860142  0.45271694  0.86868486  1
  O  O88  1  0.35363848  0.88774737  0.86578610  1
  O  O89  1  0.54543634  0.65693817  0.87155699  1
  O  O90  1  0.01363089  0.81928803  0.41522025  1
  O  O91  1  0.82296680  0.99115891  0.41771464  1
  O  O92  1  0.18464385  0.19597510  0.41464671  1
  O  O93  1  0.01498590  0.19501302  0.91688190  1
  O  O94  1  0.16285067  0.98623695  0.91627385  1
  O  O95  1  0.80302058  0.81841363  0.91976568  1
  O  O96  1  0.01363874  0.18534740  0.58253738  1
  O  O97  1  0.19346547  0.99412322  0.58848667  1
  O  O98  1  0.83315102  0.81944509  0.58188325  1
  O  O99  1  0.99287821  0.82410030  0.08285680  1
  O  O100  1  0.80839650  0.00205389  0.08760035  1
  O  O101  1  0.19754496  0.20103751  0.08540849  1
  O  O102  1  0.68391591  0.17000071  0.74962902  1
  O  O103  1  0.49301208  0.33246780  0.74760760  1
  O  O104  1  0.84223422  0.53252499  0.74955298  1
  O  O105  1  0.68064668  0.52899834  0.24630251  1
  O  O106  1  0.84387761  0.33407579  0.24922476  1
  O  O107  1  0.48987959  0.16824430  0.25004991  1
  O  O108  1  0.66545113  0.52949269  0.92217015  1
  O  O109  1  0.86619369  0.33477898  0.92226834  1
  O  O110  1  0.48738806  0.16221111  0.92014605  1
  O  O111  1  0.66127177  0.15817713  0.41507317  1
  O  O112  1  0.47309713  0.33547530  0.41908182  1
  O  O113  1  0.86028096  0.53054846  0.41978377  1
  O  O114  1  0.35316907  0.49077665  0.08086302  1
  O  O115  1  0.15168484  0.65421490  0.08491874  1
  O  O116  1  0.52166361  0.85604639  0.08040111  1
  O  O117  1  0.34747765  0.86182292  0.58042468  1
  O  O118  1  0.51184391  0.66793121  0.58299729  1
  O  O119  1  0.15982417  0.50600372  0.58232242  1
  O  O120  1  0.34101586  0.84610295  0.25013317  1
  O  O121  1  0.52848836  0.66297688  0.25475600  1
  O  O122  1  0.16487126  0.49020115  0.25039814  1
  O  O123  1  0.33230346  0.49207927  0.75142958  1
  O  O124  1  0.12886706  0.66038020  0.75563987  1
  O  O125  1  0.50385363  0.85332522  0.75161036  1
