# generated using pymatgen
data_MgCo3NiO8
_symmetry_space_group_name_H-M   'P 1'
_cell_length_a   5.78733375
_cell_length_b   5.77776028
_cell_length_c   5.89245098
_cell_angle_alpha   60.64132454
_cell_angle_beta   119.41870575
_cell_angle_gamma   119.96504700
_symmetry_Int_Tables_number   1
_chemical_formula_structural   MgCo3NiO8
_chemical_formula_sum   'Mg1 Co3 Ni1 O8'
_cell_volume   140.63295656
_cell_formula_units_Z   1
loop_
 _symmetry_equiv_pos_site_id
 _symmetry_equiv_pos_as_xyz
  1  'x, y, z'
loop_
 _atom_site_type_symbol
 _atom_site_label
 _atom_site_symmetry_multiplicity
 _atom_site_fract_x
 _atom_site_fract_y
 _atom_site_fract_z
 _atom_site_occupancy
  Mg  Mg0  1  0.00000000  0.00000000  0.00000000  1
  Co  Co1  1  0.50000000  0.50000000  0.00000000  1
  Co  Co2  1  0.50000000  0.00000000  0.00000000  1
  Co  Co3  1  0.00000000  0.50000000  0.00000000  1
  Ni  Ni4  1  0.50000000  0.50000000  0.50000000  1
  O  O5  1  0.75187300  0.70864500  0.79485500  1
  O  O6  1  0.75189400  0.24839900  0.79479300  1
  O  O7  1  0.26910700  0.73243100  0.80435800  1
  O  O8  1  0.29019700  0.24830200  0.79368600  1
  O  O9  1  0.70980300  0.75169800  0.20631400  1
  O  O10  1  0.73089300  0.26756900  0.19564200  1
  O  O11  1  0.24810600  0.75160100  0.20520700  1
  O  O12  1  0.24812700  0.29135500  0.20514500  1
