# generated using pymatgen
data_Na9Ca5NbSi3(SO6)6
_symmetry_space_group_name_H-M   'P 1'
_cell_length_a   9.41250849
_cell_length_b   9.38042550
_cell_length_c   23.61230363
_cell_angle_alpha   89.57206010
_cell_angle_beta   90.00000000
_cell_angle_gamma   120.11320411
_symmetry_Int_Tables_number   1
_chemical_formula_structural   Na9Ca5NbSi3(SO6)6
_chemical_formula_sum   'Na18 Ca10 Nb2 Si6 S12 O72'
_cell_volume   1803.36726563
_cell_formula_units_Z   2
loop_
 _symmetry_equiv_pos_site_id
 _symmetry_equiv_pos_as_xyz
  1  'x, y, z'
loop_
 _atom_site_type_symbol
 _atom_site_label
 _atom_site_symmetry_multiplicity
 _atom_site_fract_x
 _atom_site_fract_y
 _atom_site_fract_z
 _atom_site_occupancy
  Na  Na0  1  0.64587897  0.99982131  0.24039944  1
  Na  Na1  1  0.37668725  0.33794825  0.25182167  1
  Na  Na2  1  0.99544353  0.66193515  0.24695294  1
  Na  Na3  1  0.66649162  0.66193515  0.74695294  1
  Na  Na4  1  0.96126100  0.33794825  0.75182167  1
  Na  Na5  1  0.35394233  0.99982131  0.74039944  1
  Na  Na6  1  0.30297172  0.33674211  0.57200935  1
  Na  Na7  1  0.03377138  0.33674211  0.07200935  1
  Na  Na8  1  0.95970470  0.65711494  0.90716320  1
  Na  Na9  1  0.72467870  0.05276520  0.90612618  1
  Na  Na10  1  0.32808550  0.05276520  0.40612618  1
  Na  Na11  1  0.69740925  0.65711494  0.40716320  1
  Na  Na12  1  0.00898882  0.02696243  0.49958851  1
  Na  Na13  1  0.01797361  0.02696243  0.99958851  1
  Na  Na14  1  0.69019121  0.33575733  0.82870788  1
  Na  Na15  1  0.64556712  0.33575733  0.32870788  1
  Na  Na16  1  0.35488175  0.69671992  0.15705105  1
  Na  Na17  1  0.34183717  0.69671992  0.65705105  1
  Ca  Ca18  1  0.00825765  0.00863305  0.34813102  1
  Ca  Ca19  1  0.00037541  0.00863305  0.84813102  1
  Ca  Ca20  1  0.97850841  0.97523030  0.65498007  1
  Ca  Ca21  1  0.99672189  0.97523030  0.15498007  1
  Ca  Ca22  1  0.67564489  0.33285022  0.68036345  1
  Ca  Ca23  1  0.65720634  0.33285022  0.18036345  1
  Ca  Ca24  1  0.66196368  0.33464834  0.98112440  1
  Ca  Ca25  1  0.67268566  0.33464834  0.48112440  1
  Ca  Ca26  1  0.33545020  0.66305302  0.01711401  1
  Ca  Ca27  1  0.32760182  0.66305302  0.51711401  1
  Nb  Nb28  1  0.33688050  0.65669321  0.31674117  1
  Nb  Nb29  1  0.31981171  0.65669321  0.81674117  1
  Si  Si30  1  0.30632116  0.99227413  0.25627538  1
  Si  Si31  1  0.69721784  0.69861756  0.25699728  1
  Si  Si32  1  0.00139972  0.69861756  0.75699728  1
  Si  Si33  1  0.68595297  0.99227413  0.75627538  1
  Si  Si34  1  0.03294179  0.36466304  0.92183458  1
  Si  Si35  1  0.33172025  0.36466304  0.42183458  1
  S  S36  1  0.01068437  0.31360481  0.24983857  1
  S  S37  1  0.30292045  0.31360481  0.74983857  1
  S  S38  1  0.97642056  0.33150995  0.58561089  1
  S  S39  1  0.36064744  0.03502862  0.58291910  1
  S  S40  1  0.66397961  0.63434591  0.58225028  1
  S  S41  1  0.97036730  0.63434591  0.08225028  1
  S  S42  1  0.67438219  0.03502862  0.08291910  1
  S  S43  1  0.35509039  0.33150995  0.08561089  1
  S  S44  1  0.62466001  0.66590267  0.91373567  1
  S  S45  1  0.33475576  0.95282760  0.91354180  1
  S  S46  1  0.61807085  0.95282760  0.41354180  1
  S  S47  1  0.04124166  0.66590267  0.41373567  1
  O  O48  1  0.24176854  0.04486404  0.31174723  1
  O  O49  1  0.79549345  0.76980158  0.31550928  1
  O  O50  1  0.98038169  0.20675839  0.29925571  1
  O  O51  1  0.22637670  0.20675839  0.79925571  1
  O  O52  1  0.97430812  0.76980158  0.81550928  1
  O  O53  1  0.80309550  0.04486404  0.81174723  1
  O  O54  1  0.75695068  0.93220400  0.70441537  1
  O  O55  1  0.20170441  0.24981062  0.69833355  1
  O  O56  1  0.06927699  0.83047603  0.70500423  1
  O  O57  1  0.76119904  0.83047603  0.20500423  1
  O  O58  1  0.04810621  0.24981062  0.19833355  1
  O  O59  1  0.17525332  0.93220400  0.20441537  1
  O  O60  1  0.89665786  0.33456570  0.63954719  1
  O  O61  1  0.45256329  0.11581307  0.63552523  1
  O  O62  1  0.65428555  0.53951781  0.63462897  1
  O  O63  1  0.88523326  0.53951781  0.13462897  1
  O  O64  1  0.66325078  0.11581307  0.13552523  1
  O  O65  1  0.43790884  0.33456570  0.13954719  1
  O  O66  1  0.44757936  0.32597754  0.03593973  1
  O  O67  1  0.87473127  0.54562508  0.03115068  1
  O  O68  1  0.67803665  0.13173895  0.03172489  1
  O  O69  1  0.45370330  0.13173895  0.53172489  1
  O  O70  1  0.67089481  0.54562508  0.53115068  1
  O  O71  1  0.87839918  0.32597754  0.53593973  1
  O  O72  1  0.54349662  0.68332085  0.96390045  1
  O  O73  1  0.12331118  0.45511193  0.97936325  1
  O  O74  1  0.32100108  0.85712010  0.96439135  1
  O  O75  1  0.53611802  0.85712010  0.46439135  1
  O  O76  1  0.33179975  0.45511193  0.47936325  1
  O  O77  1  0.13982323  0.68332085  0.46390045  1
  O  O78  1  0.12994679  0.65828593  0.36124977  1
  O  O79  1  0.51408437  0.85964199  0.36175556  1
  O  O80  1  0.32830400  0.49084420  0.36696943  1
  O  O81  1  0.16253920  0.49084420  0.86696943  1
  O  O82  1  0.34555662  0.85964199  0.86175556  1
  O  O83  1  0.52833814  0.65828593  0.86124977  1
  O  O84  1  0.02078573  0.81348462  0.41059887  1
  O  O85  1  0.78156325  0.96936735  0.40849562  1
  O  O86  1  0.17454849  0.17902973  0.41833170  1
  O  O87  1  0.00448124  0.17902973  0.91833170  1
  O  O88  1  0.18780411  0.96936735  0.90849562  1
  O  O89  1  0.79269889  0.81348462  0.91059887  1
  O  O90  1  0.00103651  0.18499524  0.58473450  1
  O  O91  1  0.20052387  0.03377423  0.58316182  1
  O  O92  1  0.81112126  0.80135695  0.58237808  1
  O  O93  1  0.99023569  0.80135695  0.08237808  1
  O  O94  1  0.83325036  0.03377423  0.08316182  1
  O  O95  1  0.18395873  0.18499524  0.08473450  1
  O  O96  1  0.64209866  0.13905897  0.74517541  1
  O  O97  1  0.47275241  0.34399814  0.74270126  1
  O  O98  1  0.84619046  0.51323974  0.74638905  1
  O  O99  1  0.66705027  0.51323974  0.24638905  1
  O  O100  1  0.87124673  0.34399814  0.24270126  1
  O  O101  1  0.49696130  0.13905897  0.24517541  1
  O  O102  1  0.63866358  0.51471610  0.91489971  1
  O  O103  1  0.85937578  0.36677391  0.91055414  1
  O  O104  1  0.49026952  0.11439624  0.91231196  1
  O  O105  1  0.62412772  0.11439624  0.41231196  1
  O  O106  1  0.50739913  0.36677391  0.41055414  1
  O  O107  1  0.87605352  0.51471610  0.41489971  1
  O  O108  1  0.33870772  0.48317417  0.08467007  1
  O  O109  1  0.13496911  0.64416139  0.08209742  1
  O  O110  1  0.53024553  0.86537907  0.08130513  1
  O  O111  1  0.33513254  0.86537907  0.58130513  1
  O  O112  1  0.50919128  0.64416139  0.58209742  1
  O  O113  1  0.14446545  0.48317417  0.58467007  1
  O  O114  1  0.31920766  0.81940375  0.26942652  1
  O  O115  1  0.49921906  0.66507036  0.26778776  1
  O  O116  1  0.16270285  0.48346014  0.25995824  1
  O  O117  1  0.32075629  0.48346014  0.75995824  1
  O  O118  1  0.16585030  0.66507036  0.76778776  1
  O  O119  1  0.50019509  0.81940375  0.76942652  1
