# generated using pymatgen
data_Na6Ca4Ta2Si3(SO6)6
_symmetry_space_group_name_H-M   'P 1'
_cell_length_a   9.17522697
_cell_length_b   9.17522665
_cell_length_c   23.30045834
_cell_angle_alpha   90.00000000
_cell_angle_beta   90.00000000
_cell_angle_gamma   120.00000119
_symmetry_Int_Tables_number   1
_chemical_formula_structural   Na6Ca4Ta2Si3(SO6)6
_chemical_formula_sum   'Na12 Ca8 Ta4 Si6 S12 O72'
_cell_volume   1698.74702073
_cell_formula_units_Z   2
loop_
 _symmetry_equiv_pos_site_id
 _symmetry_equiv_pos_as_xyz
  1  'x, y, z'
loop_
 _atom_site_type_symbol
 _atom_site_label
 _atom_site_symmetry_multiplicity
 _atom_site_fract_x
 _atom_site_fract_y
 _atom_site_fract_z
 _atom_site_occupancy
  Na  Na0  1  0.00239337  0.69908720  0.91987262  1
  Na  Na1  1  0.69669284  0.99760663  0.91987262  1
  Na  Na2  1  0.30091280  0.30330716  0.91987262  1
  Na  Na3  1  0.00239337  0.30330716  0.41987262  1
  Na  Na4  1  0.30091280  0.99760663  0.41987262  1
  Na  Na5  1  0.69669284  0.69908720  0.41987262  1
  Na  Na6  1  0.00000000  0.00000000  0.49510008  1
  Na  Na7  1  0.00000000  0.00000000  0.99510008  1
  Na  Na8  1  0.66666700  0.33333300  0.82405962  1
  Na  Na9  1  0.66666700  0.33333300  0.32405962  1
  Na  Na10  1  0.33333300  0.66666700  0.16653063  1
  Na  Na11  1  0.33333300  0.66666700  0.66653063  1
  Ca  Ca12  1  0.00000000  0.00000000  0.34417687  1
  Ca  Ca13  1  0.00000000  0.00000000  0.84417687  1
  Ca  Ca14  1  0.00000000  0.00000000  0.64742808  1
  Ca  Ca15  1  0.00000000  0.00000000  0.14742808  1
  Ca  Ca16  1  0.66666700  0.33333300  0.68733970  1
  Ca  Ca17  1  0.66666700  0.33333300  0.18733970  1
  Ca  Ca18  1  0.33333300  0.66666700  0.01764754  1
  Ca  Ca19  1  0.33333300  0.66666700  0.51764754  1
  Ta  Ta20  1  0.66666700  0.33333300  0.97586217  1
  Ta  Ta21  1  0.66666700  0.33333300  0.47586217  1
  Ta  Ta22  1  0.33333300  0.66666700  0.32347843  1
  Ta  Ta23  1  0.33333300  0.66666700  0.82347843  1
  Si  Si24  1  0.62934722  0.66418996  0.91888565  1
  Si  Si25  1  0.03484174  0.37065278  0.91888565  1
  Si  Si26  1  0.33581004  0.96515826  0.91888565  1
  Si  Si27  1  0.62934722  0.96515826  0.41888565  1
  Si  Si28  1  0.33581004  0.37065278  0.41888565  1
  Si  Si29  1  0.03484174  0.66418996  0.41888565  1
  S  S30  1  0.30780552  0.98178945  0.25449684  1
  S  S31  1  0.67398393  0.69219448  0.25449684  1
  S  S32  1  0.01821055  0.32601607  0.25449684  1
  S  S33  1  0.30780552  0.32601607  0.75449684  1
  S  S34  1  0.01821055  0.69219448  0.75449684  1
  S  S35  1  0.67398393  0.98178945  0.75449684  1
  S  S36  1  0.94771493  0.32231278  0.58026288  1
  S  S37  1  0.37459884  0.05228507  0.58026288  1
  S  S38  1  0.67768722  0.62540116  0.58026288  1
  S  S39  1  0.94771493  0.62540116  0.08026288  1
  S  S40  1  0.67768722  0.05228507  0.08026288  1
  S  S41  1  0.37459884  0.32231278  0.08026288  1
  O  O42  1  0.23340117  0.99699836  0.30864674  1
  O  O43  1  0.76359719  0.76659883  0.30864674  1
  O  O44  1  0.00300164  0.23640281  0.30864674  1
  O  O45  1  0.23340117  0.23640281  0.80864674  1
  O  O46  1  0.00300164  0.76659883  0.80864674  1
  O  O47  1  0.76359719  0.99699836  0.80864674  1
  O  O48  1  0.76325602  0.96749121  0.70404492  1
  O  O49  1  0.20423519  0.23674398  0.70404492  1
  O  O50  1  0.03250879  0.79576481  0.70404492  1
  O  O51  1  0.76325602  0.79576481  0.20404492  1
  O  O52  1  0.03250879  0.23674398  0.20404492  1
  O  O53  1  0.20423519  0.96749121  0.20404492  1
  O  O54  1  0.85520279  0.31816064  0.63162396  1
  O  O55  1  0.46295884  0.14479721  0.63162396  1
  O  O56  1  0.68183936  0.53704116  0.63162396  1
  O  O57  1  0.85520279  0.53704116  0.13162396  1
  O  O58  1  0.68183936  0.14479721  0.13162396  1
  O  O59  1  0.46295884  0.31816064  0.13162396  1
  O  O60  1  0.47734914  0.32332438  0.02694421  1
  O  O61  1  0.84597624  0.52265086  0.02694421  1
  O  O62  1  0.67667562  0.15402376  0.02694421  1
  O  O63  1  0.47734914  0.15402376  0.52694421  1
  O  O64  1  0.67667562  0.52265086  0.52694421  1
  O  O65  1  0.84597624  0.32332438  0.52694421  1
  O  O66  1  0.56588852  0.72834475  0.97110008  1
  O  O67  1  0.16245523  0.43411148  0.97110008  1
  O  O68  1  0.27165525  0.83754477  0.97110008  1
  O  O69  1  0.56588852  0.83754477  0.47110008  1
  O  O70  1  0.27165525  0.43411148  0.47110008  1
  O  O71  1  0.16245523  0.72834475  0.47110008  1
  O  O72  1  0.13523426  0.62572146  0.36337225  1
  O  O73  1  0.49048620  0.86476574  0.36337225  1
  O  O74  1  0.37427854  0.50951380  0.36337225  1
  O  O75  1  0.13523426  0.50951380  0.86337225  1
  O  O76  1  0.37427854  0.86476574  0.86337225  1
  O  O77  1  0.49048620  0.62572146  0.86337225  1
  O  O78  1  0.97651095  0.79767442  0.40428231  1
  O  O79  1  0.82116348  0.02348905  0.40428231  1
  O  O80  1  0.20232558  0.17883652  0.40428231  1
  O  O81  1  0.97651095  0.17883652  0.90428231  1
  O  O82  1  0.20232558  0.02348905  0.90428231  1
  O  O83  1  0.82116348  0.79767442  0.90428231  1
  O  O84  1  0.95818536  0.16693480  0.57479232  1
  O  O85  1  0.20874944  0.04181464  0.57479232  1
  O  O86  1  0.83306520  0.79125056  0.57479232  1
  O  O87  1  0.95818536  0.79125056  0.07479232  1
  O  O88  1  0.83306520  0.04181464  0.07479232  1
  O  O89  1  0.20874944  0.16693480  0.07479232  1
  O  O90  1  0.64185101  0.12454460  0.75022175  1
  O  O91  1  0.48269459  0.35814899  0.75022175  1
  O  O92  1  0.87545540  0.51730541  0.75022175  1
  O  O93  1  0.64185101  0.51730541  0.25022175  1
  O  O94  1  0.87545540  0.35814899  0.25022175  1
  O  O95  1  0.48269459  0.12454460  0.25022175  1
  O  O96  1  0.61500885  0.47367418  0.92708659  1
  O  O97  1  0.85866633  0.38499115  0.92708659  1
  O  O98  1  0.52632582  0.14133367  0.92708659  1
  O  O99  1  0.61500885  0.14133367  0.42708659  1
  O  O100  1  0.52632582  0.38499115  0.42708659  1
  O  O101  1  0.85866633  0.47367418  0.42708659  1
  O  O102  1  0.36175542  0.47545136  0.08004479  1
  O  O103  1  0.11369493  0.63824458  0.08004479  1
  O  O104  1  0.52454864  0.88630507  0.08004479  1
  O  O105  1  0.36175542  0.88630507  0.58004479  1
  O  O106  1  0.52454864  0.63824458  0.58004479  1
  O  O107  1  0.11369493  0.47545136  0.58004479  1
  O  O108  1  0.31594444  0.82017025  0.25711472  1
  O  O109  1  0.50422482  0.68405556  0.25711472  1
  O  O110  1  0.17982975  0.49577518  0.25711472  1
  O  O111  1  0.31594444  0.49577518  0.75711472  1
  O  O112  1  0.17982975  0.68405556  0.75711472  1
  O  O113  1  0.50422482  0.82017025  0.75711472  1
