# generated using pymatgen
data_Sr4MgFe2Cu2(SO3)2
_symmetry_space_group_name_H-M   'P 1'
_cell_length_a   4.01829700
_cell_length_b   4.01829700
_cell_length_c   16.31648400
_cell_angle_alpha   90.00000000
_cell_angle_beta   90.00000000
_cell_angle_gamma   90.00000000
_symmetry_Int_Tables_number   1
_chemical_formula_structural   Sr4MgFe2Cu2(SO3)2
_chemical_formula_sum   'Sr4 Mg1 Fe2 Cu2 S2 O6'
_cell_volume   263.45754810
_cell_formula_units_Z   1
loop_
 _symmetry_equiv_pos_site_id
 _symmetry_equiv_pos_as_xyz
  1  'x, y, z'
loop_
 _atom_site_type_symbol
 _atom_site_label
 _atom_site_symmetry_multiplicity
 _atom_site_fract_x
 _atom_site_fract_y
 _atom_site_fract_z
 _atom_site_occupancy
  Sr  Sr0  1  0.75000100  0.75000100  0.17201500  1
  Sr  Sr1  1  0.25000000  0.25000000  0.82798400  1
  Sr  Sr2  1  0.75000100  0.75000100  0.37133300  1
  Sr  Sr3  1  0.25000000  0.25000000  0.62866600  1
  Mg  Mg4  1  0.75000000  0.25000000  0.50000000  1
  Fe  Fe5  1  0.25000000  0.25000000  0.28476900  1
  Fe  Fe6  1  0.75000100  0.75000100  0.71523000  1
  Cu  Cu7  1  0.25000000  0.75000100  0.00000000  1
  Cu  Cu8  1  0.75000100  0.25000000  0.00000000  1
  S  S9  1  0.75000100  0.75000100  0.91626600  1
  S  S10  1  0.25000000  0.25000000  0.08373300  1
  O  O11  1  0.75000100  0.75000100  0.55159800  1
  O  O12  1  0.25000000  0.25000000  0.44840200  1
  O  O13  1  0.25000000  0.75000100  0.72695500  1
  O  O14  1  0.25000000  0.75000100  0.27304500  1
  O  O15  1  0.75000100  0.25000000  0.27782000  1
  O  O16  1  0.75000100  0.25000000  0.72218000  1
