# generated using pymatgen
data_Na7Ta2Zn2Si3(PO8)3
_symmetry_space_group_name_H-M   'P 1'
_cell_length_a   9.11413306
_cell_length_b   9.09022757
_cell_length_c   22.18666898
_cell_angle_alpha   90.51182299
_cell_angle_beta   89.67169611
_cell_angle_gamma   120.15790058
_symmetry_Int_Tables_number   1
_chemical_formula_structural   Na7Ta2Zn2Si3(PO8)3
_chemical_formula_sum   'Na21 Ta6 Zn6 Si9 P9 O72'
_cell_volume   1589.28530357
_cell_formula_units_Z   3
loop_
 _symmetry_equiv_pos_site_id
 _symmetry_equiv_pos_as_xyz
  1  'x, y, z'
loop_
 _atom_site_type_symbol
 _atom_site_label
 _atom_site_symmetry_multiplicity
 _atom_site_fract_x
 _atom_site_fract_y
 _atom_site_fract_z
 _atom_site_occupancy
  Na  Na0  1  0.61662878  0.97862293  0.26061322  1
  Na  Na1  1  0.35393383  0.37469238  0.25598842  1
  Na  Na2  1  0.02914252  0.64512766  0.25489830  1
  Na  Na3  1  0.64926658  0.62011164  0.74510518  1
  Na  Na4  1  0.97766479  0.35737874  0.74035652  1
  Na  Na5  1  0.37654663  0.02156648  0.74169911  1
  Na  Na6  1  0.00956933  0.67411403  0.58531131  1
  Na  Na7  1  0.66715013  0.99369369  0.58316762  1
  Na  Na8  1  0.27505310  0.94491299  0.08597685  1
  Na  Na9  1  0.66957582  0.72230238  0.07890985  1
  Na  Na10  1  0.05579375  0.33502873  0.08672260  1
  Na  Na11  1  0.97618010  0.69237377  0.90725105  1
  Na  Na12  1  0.31597740  0.28875033  0.90779359  1
  Na  Na13  1  0.95157269  0.30679395  0.42611727  1
  Na  Na14  1  0.35896853  0.04351724  0.42366147  1
  Na  Na15  1  0.00031363  0.00263714  0.50164727  1
  Na  Na16  1  0.98254063  0.99284099  0.99599653  1
  Na  Na17  1  0.66701014  0.32912645  0.82069270  1
  Na  Na18  1  0.66701603  0.34350872  0.34876278  1
  Na  Na19  1  0.32457513  0.66687142  0.16933915  1
  Na  Na20  1  0.32636465  0.65160685  0.66376580  1
  Ta  Ta21  1  0.99852518  0.00169444  0.35200883  1
  Ta  Ta22  1  0.00794294  0.00437807  0.64913913  1
  Ta  Ta23  1  0.67255758  0.33381832  0.18997032  1
  Ta  Ta24  1  0.67086074  0.33893595  0.97586536  1
  Ta  Ta25  1  0.33753446  0.66789721  0.51707472  1
  Ta  Ta26  1  0.33510937  0.66591903  0.81520690  1
  Zn  Zn27  1  0.99065182  0.99314746  0.84915491  1
  Zn  Zn28  1  0.00529742  0.99609329  0.15012469  1
  Zn  Zn29  1  0.66721632  0.33575959  0.67679405  1
  Zn  Zn30  1  0.66373260  0.32463470  0.49066491  1
  Zn  Zn31  1  0.33344463  0.66882163  0.01753735  1
  Zn  Zn32  1  0.33007663  0.66934136  0.31776545  1
  Si  Si33  1  0.29327070  0.99911092  0.24606164  1
  Si  Si34  1  0.00244736  0.29157439  0.24538280  1
  Si  Si35  1  0.29455277  0.29277813  0.75602587  1
  Si  Si36  1  -0.00016109  0.70259907  0.75380819  1
  Si  Si37  1  0.96555209  0.33222422  0.58283850  1
  Si  Si38  1  0.36978675  0.03911329  0.58227033  1
  Si  Si39  1  0.96175748  0.62903792  0.08312668  1
  Si  Si40  1  0.62935365  0.67451852  0.92253050  1
  Si  Si41  1  0.63065904  0.96199213  0.41224282  1
  P  P42  1  0.71148889  0.70859917  0.24638130  1
  P  P43  1  0.70690784  0.99576756  0.75242275  1
  P  P44  1  0.66489334  0.62912302  0.58445810  1
  P  P45  1  0.66553740  0.04790987  0.08224158  1
  P  P46  1  0.38261276  0.33331073  0.08334444  1
  P  P47  1  0.04020630  0.37362688  0.91952941  1
  P  P48  1  0.33820755  0.96057470  0.92081492  1
  P  P49  1  0.33322390  0.37366644  0.41149785  1
  P  P50  1  0.03759587  0.66888337  0.41473563  1
  O  O51  1  0.19344743  0.02811990  0.30571245  1
  O  O52  1  0.83519809  0.80333355  0.30163152  1
  O  O53  1  0.96849576  0.16124149  0.30471720  1
  O  O54  1  0.21152674  0.18450904  0.81524043  1
  O  O55  1  0.97013363  0.78300682  0.81348330  1
  O  O56  1  0.81715927  0.02608429  0.80666337  1
  O  O57  1  0.78775504  0.96381525  0.69397115  1
  O  O58  1  0.16038062  0.19137787  0.69816193  1
  O  O59  1  0.02349898  0.82855500  0.69490783  1
  O  O60  1  0.78317027  0.81043562  0.18899891  1
  O  O61  1  0.02826480  0.20881190  0.18519431  1
  O  O62  1  0.18198822  0.96319298  0.18629400  1
  O  O63  1  0.89693405  0.38397386  0.64189251  1
  O  O64  1  0.48770125  0.10836579  0.64141359  1
  O  O65  1  0.63117022  0.53493130  0.64390785  1
  O  O66  1  0.85358014  0.50441006  0.14180615  1
  O  O67  1  0.65360590  0.14477745  0.14078628  1
  O  O68  1  0.49333974  0.34282035  0.13954754  1
  O  O69  1  0.48224999  0.32246221  0.02628486  1
  O  O70  1  0.83844311  0.51811173  0.02411834  1
  O  O71  1  0.67503316  0.16193654  0.02798336  1
  O  O72  1  0.44008259  0.14174179  0.52090052  1
  O  O73  1  0.70744137  0.55073447  0.53128689  1
  O  O74  1  0.84795435  0.28566848  0.52384231  1
  O  O75  1  0.53958806  0.68382097  0.98343983  1
  O  O76  1  0.14028282  0.45495906  0.97730257  1
  O  O77  1  0.31038994  0.85498265  0.97726631  1
  O  O78  1  0.52713045  0.84038528  0.47184365  1
  O  O79  1  0.30725038  0.47113716  0.46606439  1
  O  O80  1  0.16082934  0.69332897  0.46963955  1
  O  O81  1  0.11107517  0.64024211  0.35674761  1
  O  O82  1  0.51913170  0.87494344  0.35353239  1
  O  O83  1  0.34317162  0.46421742  0.35312979  1
  O  O84  1  0.13397431  0.49920050  0.86374539  1
  O  O85  1  0.35665224  0.86469175  0.86337247  1
  O  O86  1  0.49791880  0.64194401  0.86303802  1
  O  O87  1  0.04024203  0.84422167  0.41213164  1
  O  O88  1  0.82156870  0.97449914  0.41057411  1
  O  O89  1  0.15836004  0.19244788  0.41149127  1
  O  O90  1  0.01928819  0.20029817  0.91061699  1
  O  O91  1  0.19007346  0.99199091  0.91475722  1
  O  O92  1  0.82095218  0.82507717  0.91569112  1
  O  O93  1  0.98005519  0.15850546  0.59400442  1
  O  O94  1  0.16986611  0.99916201  0.59194695  1
  O  O95  1  0.82249431  0.81688905  0.59116895  1
  O  O96  1  0.96446690  0.80784899  0.08133776  1
  O  O97  1  0.82790923  0.03954639  0.08125694  1
  O  O98  1  0.20986096  0.17174118  0.08056313  1
  O  O99  1  0.67454654  0.14365299  0.74497862  1
  O  O100  1  0.48212018  0.32244615  0.74489922  1
  O  O101  1  0.84152453  0.51210194  0.74516870  1
  O  O102  1  0.70650301  0.53150020  0.24544286  1
  O  O103  1  0.82190448  0.30127704  0.24547947  1
  O  O104  1  0.47962515  0.18445247  0.24511583  1
  O  O105  1  0.63287977  0.48576786  0.92103415  1
  O  O106  1  0.86277575  0.36746173  0.92002844  1
  O  O107  1  0.50736041  0.13888547  0.92166947  1
  O  O108  1  0.65953078  0.15239675  0.41875594  1
  O  O109  1  0.47911696  0.34147550  0.41984374  1
  O  O110  1  0.86187756  0.51794260  0.42551203  1
  O  O111  1  0.37377162  0.49677044  0.08610931  1
  O  O112  1  0.14272001  0.63570323  0.08350787  1
  O  O113  1  0.50176830  0.87542142  0.08435728  1
  O  O114  1  0.33977054  0.83864429  0.57375439  1
  O  O115  1  0.50980199  0.65919696  0.57299315  1
  O  O116  1  0.15887360  0.49902128  0.57113539  1
  O  O117  1  0.32720124  0.84251325  0.25323490  1
  O  O118  1  0.53176868  0.67345657  0.25586097  1
  O  O119  1  0.16053145  0.48101689  0.25458613  1
  O  O120  1  0.30128937  0.48233589  0.75778316  1
  O  O121  1  0.18437987  0.70094871  0.75643754  1
  O  O122  1  0.52695191  0.82471440  0.75743887  1
