# generated using pymatgen
data_Na3GaSiSn(PO6)2
_symmetry_space_group_name_H-M   'P 1'
_cell_length_a   15.43661674
_cell_length_b   8.90861047
_cell_length_c   8.92870194
_cell_angle_alpha   90.00000000
_cell_angle_beta   124.90268156
_cell_angle_gamma   90.00000000
_symmetry_Int_Tables_number   1
_chemical_formula_structural   Na3GaSiSn(PO6)2
_chemical_formula_sum   'Na12 Ga4 Si4 Sn4 P8 O48'
_cell_volume   1007.00243234
_cell_formula_units_Z   4
loop_
 _symmetry_equiv_pos_site_id
 _symmetry_equiv_pos_as_xyz
  1  'x, y, z'
loop_
 _atom_site_type_symbol
 _atom_site_label
 _atom_site_symmetry_multiplicity
 _atom_site_fract_x
 _atom_site_fract_y
 _atom_site_fract_z
 _atom_site_occupancy
  Na  Na0  1  0.25075415  0.72533328  0.99464993  1
  Na  Na1  1  0.75075415  0.77466672  0.49464993  1
  Na  Na2  1  0.75075415  0.22533328  0.99464993  1
  Na  Na3  1  0.25075415  0.27466672  0.49464993  1
  Na  Na4  1  0.50530336  0.11141984  0.76094930  1
  Na  Na5  1  0.50530336  0.88858016  0.26094930  1
  Na  Na6  1  0.00530336  0.61141984  0.76094930  1
  Na  Na7  1  0.00530336  0.38858016  0.26094930  1
  Na  Na8  1  0.18556914  0.93240355  0.28112183  1
  Na  Na9  1  0.18556914  0.06759645  0.78112183  1
  Na  Na10  1  0.68556914  0.43240355  0.28112183  1
  Na  Na11  1  0.68556914  0.56759645  0.78112183  1
  Ga  Ga12  1  0.10516864  0.74094660  0.56204442  1
  Ga  Ga13  1  0.10516864  0.25905340  0.06204442  1
  Ga  Ga14  1  0.60516864  0.24094660  0.56204442  1
  Ga  Ga15  1  0.60516864  0.75905340  0.06204442  1
  Si  Si16  1  0.64562118  0.89857350  0.74774692  1
  Si  Si17  1  0.64562118  0.10142650  0.24774692  1
  Si  Si18  1  0.14562118  0.39857350  0.74774692  1
  Si  Si19  1  0.14562118  0.60142650  0.24774692  1
  Sn  Sn20  1  0.89766054  0.75636022  0.94326174  1
  Sn  Sn21  1  0.89766054  0.24363978  0.44326174  1
  Sn  Sn22  1  0.39766054  0.25636022  0.94326174  1
  Sn  Sn23  1  0.39766054  0.74363978  0.44326174  1
  P  P24  1  0.00201651  0.95589791  0.75656725  1
  P  P25  1  0.00201651  0.04410209  0.25656725  1
  P  P26  1  0.50201651  0.45589791  0.75656725  1
  P  P27  1  0.50201651  0.54410209  0.25656725  1
  P  P28  1  0.35203680  0.89141462  0.75901965  1
  P  P29  1  0.35203680  0.10858538  0.25901965  1
  P  P30  1  0.85203680  0.39141462  0.75901965  1
  P  P31  1  0.85203680  0.60858538  0.25901965  1
  O  O32  1  0.14741702  0.58131979  0.73827496  1
  O  O33  1  0.84665306  0.56831568  0.76088390  1
  O  O34  1  0.84665306  0.43168432  0.26088390  1
  O  O35  1  0.14741702  0.41868021  0.23827496  1
  O  O36  1  0.64741702  0.08131979  0.73827496  1
  O  O37  1  0.34665306  0.06831568  0.76088390  1
  O  O38  1  0.34665306  0.93168432  0.26088390  1
  O  O39  1  0.64741702  0.91868021  0.23827496  1
  O  O40  1  0.43208581  0.54921698  0.58053182  1
  O  O41  1  0.56649466  0.55330052  0.92977675  1
  O  O42  1  0.56649466  0.44669948  0.42977675  1
  O  O43  1  0.43208581  0.45078302  0.08053182  1
  O  O44  1  0.93208581  0.04921698  0.58053182  1
  O  O45  1  0.06649466  0.05330052  0.92977675  1
  O  O46  1  0.06649466  0.94669948  0.42977675  1
  O  O47  1  0.93208581  0.95078302  0.08053182  1
  O  O48  1  0.25344829  0.83310804  0.74380352  1
  O  O49  1  0.74491288  0.81480831  0.75952248  1
  O  O50  1  0.74491288  0.18519169  0.25952248  1
  O  O51  1  0.25344829  0.16689196  0.24380352  1
  O  O52  1  0.75344829  0.33310804  0.74380352  1
  O  O53  1  0.24491288  0.31480831  0.75952248  1
  O  O54  1  0.24491288  0.68519169  0.25952248  1
  O  O55  1  0.75344829  0.66689196  0.24380352  1
  O  O56  1  0.34839695  0.86394390  0.58233551  1
  O  O57  1  0.63639532  0.85344413  0.91325026  1
  O  O58  1  0.63639532  0.14655587  0.41325026  1
  O  O59  1  0.34839695  0.13605610  0.08233551  1
  O  O60  1  0.84839695  0.36394390  0.58233551  1
  O  O61  1  0.13639532  0.35344413  0.91325026  1
  O  O62  1  0.13639532  0.64655587  0.41325026  1
  O  O63  1  0.84839695  0.63605610  0.08233551  1
  O  O64  1  0.45240347  0.82992409  0.93169916  1
  O  O65  1  0.54310741  0.82768417  0.55577673  1
  O  O66  1  0.54310741  0.17231583  0.05577673  1
  O  O67  1  0.45240347  0.17007591  0.43169916  1
  O  O68  1  0.95240347  0.32992409  0.93169916  1
  O  O69  1  0.04310741  0.32768417  0.55577673  1
  O  O70  1  0.04310741  0.67231583  0.05577673  1
  O  O71  1  0.95240347  0.67007591  0.43169916  1
  O  O72  1  0.08235677  0.85931820  0.74574621  1
  O  O73  1  0.92219803  0.84571947  0.75303766  1
  O  O74  1  0.92219803  0.15428053  0.25303766  1
  O  O75  1  0.08235677  0.14068180  0.24574621  1
  O  O76  1  0.58235677  0.35931820  0.74574621  1
  O  O77  1  0.42219803  0.34571947  0.75303766  1
  O  O78  1  0.42219803  0.65428053  0.25303766  1
  O  O79  1  0.58235677  0.64068180  0.24574621  1
