# generated using pymatgen
data_Na4NbZnSi2PO12
_symmetry_space_group_name_H-M   'P 1'
_cell_length_a   9.13913470
_cell_length_b   9.13913438
_cell_length_c   22.22426752
_cell_angle_alpha   89.87954443
_cell_angle_beta   90.12045557
_cell_angle_gamma   119.54389141
_symmetry_Int_Tables_number   1
_chemical_formula_structural   Na4NbZnSi2PO12
_chemical_formula_sum   'Na24 Nb6 Zn6 Si12 P6 O72'
_cell_volume   1614.89649544
_cell_formula_units_Z   6
loop_
 _symmetry_equiv_pos_site_id
 _symmetry_equiv_pos_as_xyz
  1  'x, y, z'
loop_
 _atom_site_type_symbol
 _atom_site_label
 _atom_site_symmetry_multiplicity
 _atom_site_fract_x
 _atom_site_fract_y
 _atom_site_fract_z
 _atom_site_occupancy
  Na  Na0  1  0.64538703  0.01811125  0.24780310  1
  Na  Na1  1  0.37848359  0.36201680  0.24326363  1
  Na  Na2  1  0.97554851  0.61736073  0.24549758  1
  Na  Na3  1  0.63798320  0.62151641  0.74326363  1
  Na  Na4  1  0.98188875  0.35461297  0.74780310  1
  Na  Na5  1  0.38263927  0.02445149  0.74549758  1
  Na  Na6  1  0.31205403  0.35144425  0.58113610  1
  Na  Na7  1  0.04515059  0.69534980  0.57659663  1
  Na  Na8  1  0.64221551  0.95069373  0.57883058  1
  Na  Na9  1  0.30465020  0.95484941  0.07659663  1
  Na  Na10  1  0.64855575  0.68794597  0.08113610  1
  Na  Na11  1  0.04930627  0.35778449  0.07883058  1
  Na  Na12  1  0.97872003  0.68477825  0.91447010  1
  Na  Na13  1  0.71181659  0.02868380  0.90993063  1
  Na  Na14  1  0.30888151  0.28402773  0.91216458  1
  Na  Na15  1  0.97131620  0.28818341  0.40993063  1
  Na  Na16  1  0.31522175  0.02127997  0.41447010  1
  Na  Na17  1  0.71597227  0.69111849  0.41216458  1
  Na  Na18  1  0.99523396  0.99362793  0.49203112  1
  Na  Na19  1  0.00637207  0.00476604  0.99203112  1
  Na  Na20  1  0.66190096  0.32696093  0.82536412  1
  Na  Na21  1  0.67303907  0.33809904  0.32536412  1
  Na  Na22  1  0.32856696  0.66029493  0.15869812  1
  Na  Na23  1  0.33970507  0.67143304  0.65869812  1
  Nb  Nb24  1  0.99824284  0.00056564  0.64720039  1
  Nb  Nb25  1  0.99943436  0.00175716  0.14720039  1
  Nb  Nb26  1  0.66490984  0.33389864  0.98053339  1
  Nb  Nb27  1  0.66610136  0.33509016  0.48053339  1
  Nb  Nb28  1  0.33157584  0.66723264  0.31386739  1
  Nb  Nb29  1  0.33276736  0.66842416  0.81386739  1
  Zn  Zn30  1  0.98857163  0.99251791  0.34835463  1
  Zn  Zn31  1  0.00748209  0.01142837  0.84835463  1
  Zn  Zn32  1  0.65523863  0.32585091  0.68168763  1
  Zn  Zn33  1  0.67414909  0.34476137  0.18168763  1
  Zn  Zn34  1  0.32190463  0.65918491  0.01502163  1
  Zn  Zn35  1  0.34081509  0.67809537  0.51502163  1
  Si  Si36  1  0.70406517  0.70365367  0.25277326  1
  Si  Si37  1  0.99931287  0.29397823  0.25332105  1
  Si  Si38  1  0.29634633  0.29593483  0.75277326  1
  Si  Si39  1  0.70602177  0.00068713  0.75332105  1
  Si  Si40  1  0.37073217  0.03698667  0.58610626  1
  Si  Si41  1  0.66597987  0.62731123  0.58665405  1
  Si  Si42  1  0.96301333  0.62926783  0.08610626  1
  Si  Si43  1  0.37268877  0.33402013  0.08665405  1
  Si  Si44  1  0.03739817  0.37032067  0.91944026  1
  Si  Si45  1  0.33264587  0.96064523  0.91998805  1
  Si  Si46  1  0.62967933  0.96260183  0.41944026  1
  Si  Si47  1  0.03935477  0.66735413  0.41998805  1
  P  P48  1  0.28944437  0.99729507  0.25261876  1
  P  P49  1  0.00270493  0.71055563  0.75261876  1
  P  P50  1  0.95611137  0.33062807  0.58595176  1
  P  P51  1  0.66937193  0.04388863  0.08595176  1
  P  P52  1  0.62277737  0.66396207  0.91928576  1
  P  P53  1  0.33603793  0.37722263  0.41928576  1
  O  O54  1  0.21190358  0.02438090  0.30879652  1
  O  O55  1  0.81702549  0.78255761  0.31135806  1
  O  O56  1  0.97936950  0.18609245  0.31224643  1
  O  O57  1  0.21744239  0.18297451  0.81135806  1
  O  O58  1  0.97561910  0.78809642  0.80879652  1
  O  O59  1  0.81390755  0.02063050  0.81224643  1
  O  O60  1  0.80315560  0.96899694  0.69319972  1
  O  O61  1  0.16550432  0.19604992  0.69328210  1
  O  O62  1  0.02983893  0.82819740  0.69557131  1
  O  O63  1  0.80395008  0.83449568  0.19328210  1
  O  O64  1  0.03100306  0.19684440  0.19319972  1
  O  O65  1  0.17180260  0.97016107  0.19557131  1
  O  O66  1  0.87857058  0.35771390  0.64212952  1
  O  O67  1  0.48369249  0.11589061  0.64469106  1
  O  O68  1  0.64603650  0.51942545  0.64557943  1
  O  O69  1  0.88410939  0.51630751  0.14469106  1
  O  O70  1  0.64228610  0.12142942  0.14212952  1
  O  O71  1  0.48057455  0.35396350  0.14557943  1
  O  O72  1  0.46982260  0.30232994  0.02653272  1
  O  O73  1  0.83217132  0.52938292  0.02661510  1
  O  O74  1  0.69650593  0.16153040  0.02890431  1
  O  O75  1  0.47061708  0.16782868  0.52661510  1
  O  O76  1  0.69767006  0.53017740  0.52653272  1
  O  O77  1  0.83846960  0.30349407  0.52890431  1
  O  O78  1  0.54523658  0.69104790  0.97546352  1
  O  O79  1  0.15035849  0.44922461  0.97802506  1
  O  O80  1  0.31270250  0.85275945  0.97891343  1
  O  O81  1  0.55077539  0.84964151  0.47802506  1
  O  O82  1  0.30895210  0.45476342  0.47546352  1
  O  O83  1  0.14724055  0.68729750  0.47891343  1
  O  O84  1  0.13648860  0.63566394  0.35986672  1
  O  O85  1  0.49883732  0.86271692  0.35994910  1
  O  O86  1  0.36317193  0.49486440  0.36223831  1
  O  O87  1  0.13728308  0.50116268  0.85994910  1
  O  O88  1  0.36433606  0.86351140  0.85986672  1
  O  O89  1  0.50513560  0.63682807  0.86223831  1
  O  O90  1  0.01762018  0.83123909  0.41298651  1
  O  O91  1  0.81918926  0.99563884  0.41326298  1
  O  O92  1  0.19091280  0.19903764  0.41139605  1
  O  O93  1  0.00436116  0.18081074  0.91326298  1
  O  O94  1  0.16876091  0.98237982  0.91298651  1
  O  O95  1  0.80096236  0.80908720  0.91139605  1
  O  O96  1  0.96138592  0.15935770  0.58784614  1
  O  O97  1  0.18473282  0.03340004  0.58855290  1
  O  O98  1  0.84447157  0.81532416  0.58863775  1
  O  O99  1  0.96659996  0.81526718  0.08855290  1
  O  O100  1  0.84064230  0.03861408  0.08784614  1
  O  O101  1  0.18467584  0.15552843  0.08863775  1
  O  O102  1  0.68428718  0.16457209  0.74631951  1
  O  O103  1  0.48585626  0.32897184  0.74659598  1
  O  O104  1  0.85757980  0.53237064  0.74472905  1
  O  O105  1  0.67102816  0.51414374  0.24659598  1
  O  O106  1  0.83542791  0.31571282  0.24631951  1
  O  O107  1  0.46762936  0.14242020  0.24472905  1
  O  O108  1  0.62805292  0.49269070  0.92117914  1
  O  O109  1  0.85139982  0.36673304  0.92188590  1
  O  O110  1  0.51113857  0.14865716  0.92197075  1
  O  O111  1  0.63326696  0.14860018  0.42188590  1
  O  O112  1  0.50730930  0.37194708  0.42117914  1
  O  O113  1  0.85134284  0.48886143  0.42197075  1
  O  O114  1  0.35095318  0.49790609  0.07965351  1
  O  O115  1  0.15252226  0.66230584  0.07992998  1
  O  O116  1  0.52424580  0.86570464  0.07806305  1
  O  O117  1  0.33769416  0.84747774  0.57992998  1
  O  O118  1  0.50209391  0.64904682  0.57965351  1
  O  O119  1  0.13429536  0.47575420  0.57806305  1
  O  O120  1  0.29471892  0.82602470  0.25451314  1
  O  O121  1  0.51806582  0.70006704  0.25521990  1
  O  O122  1  0.17780457  0.48199116  0.25530475  1
  O  O123  1  0.29993296  0.48193418  0.75521990  1
  O  O124  1  0.17397530  0.70528108  0.75451314  1
  O  O125  1  0.51800884  0.82219543  0.75530475  1
