# generated using pymatgen
data_Na3YSi3Ge3(SO8)3
_symmetry_space_group_name_H-M   'P 1'
_cell_length_a   8.70556673
_cell_length_b   8.81106388
_cell_length_c   22.39089970
_cell_angle_alpha   89.07068991
_cell_angle_beta   91.01521224
_cell_angle_gamma   120.15911941
_symmetry_Int_Tables_number   1
_chemical_formula_structural   Na3YSi3Ge3(SO8)3
_chemical_formula_sum   'Na9 Y3 Si9 Ge9 S9 O72'
_cell_volume   1484.72239497
_cell_formula_units_Z   3
loop_
 _symmetry_equiv_pos_site_id
 _symmetry_equiv_pos_as_xyz
  1  'x, y, z'
loop_
 _atom_site_type_symbol
 _atom_site_label
 _atom_site_symmetry_multiplicity
 _atom_site_fract_x
 _atom_site_fract_y
 _atom_site_fract_z
 _atom_site_occupancy
  Na  Na0  1  0.35625469  0.35467305  0.24441670  1
  Na  Na1  1  0.63137318  0.62248880  0.75610460  1
  Na  Na2  1  0.96740148  0.28720513  0.41755716  1
  Na  Na3  1  0.99523964  -0.00025021  0.50242676  1
  Na  Na4  1  0.99943864  0.99611896  0.00019386  1
  Na  Na5  1  0.66436048  0.33376997  0.83571232  1
  Na  Na6  1  0.67271780  0.32509989  0.33248510  1
  Na  Na7  1  0.31573346  0.66136057  0.16181956  1
  Na  Na8  1  0.30106077  0.64837879  0.66594814  1
  Y  Y9  1  0.99514559  0.99787659  0.35912258  1
  Y  Y10  1  0.67645349  0.33698897  0.68707868  1
  Y  Y11  1  0.68912453  0.34601742  0.17588636  1
  Si  Si12  1  0.00510242  0.30129189  0.25216784  1
  Si  Si13  1  0.27539318  0.28295253  0.75724088  1
  Si  Si14  1  0.01779204  0.73173877  0.75151642  1
  Si  Si15  1  0.96957156  0.33309454  0.58072412  1
  Si  Si16  1  0.98319858  0.64952030  0.08012368  1
  Si  Si17  1  0.36740580  0.34037991  0.08248028  1
  Si  Si18  1  0.62002628  0.67978176  0.91420190  1
  Si  Si19  1  0.59741778  0.93877341  0.41989446  1
  Si  Si20  1  0.35521765  0.38332146  0.42090520  1
  Ge  Ge21  1  0.99981130  0.98160368  0.85356824  1
  Ge  Ge22  1  0.02234914  0.02632769  0.65022928  1
  Ge  Ge23  1  0.02140203  0.02138478  0.14124494  1
  Ge  Ge24  1  0.65877323  0.38420637  0.98480735  1
  Ge  Ge25  1  0.65283271  0.29742235  0.47864394  1
  Ge  Ge26  1  0.34085010  0.66618560  0.01789507  1
  Ge  Ge27  1  0.33332272  0.64606434  0.51742739  1
  Ge  Ge28  1  0.34359290  0.65317665  0.31686158  1
  Ge  Ge29  1  0.31195060  0.64202732  0.81297204  1
  S  S30  1  0.28909144  0.98434929  0.24878014  1
  S  S31  1  0.70103598  0.71168642  0.24822329  1
  S  S32  1  0.71431156  0.99143718  0.75311521  1
  S  S33  1  0.36335762  0.02766483  0.58060923  1
  S  S34  1  0.66945411  0.63588862  0.58118638  1
  S  S35  1  0.66696114  0.03463008  0.07757786  1
  S  S36  1  0.03751091  0.37397219  0.91740803  1
  S  S37  1  0.33927425  0.95857546  0.91578498  1
  S  S38  1  0.04712664  0.65326561  0.41977821  1
  O  O39  1  0.20764023  0.00651157  0.30201321  1
  O  O40  1  0.80122414  0.78165887  0.30325042  1
  O  O41  1  0.99272476  0.20449723  0.31429465  1
  O  O42  1  0.17548976  0.16364076  0.81579208  1
  O  O43  1  0.96268124  0.80295850  0.80987776  1
  O  O44  1  0.82132809  0.01751176  0.80812255  1
  O  O45  1  0.79348825  0.96510270  0.69785674  1
  O  O46  1  0.16593714  0.21205393  0.69343177  1
  O  O47  1  0.03970469  0.85083084  0.68995975  1
  O  O48  1  0.78821144  0.81506265  0.19408775  1
  O  O49  1  0.04227387  0.19831582  0.19382054  1
  O  O50  1  0.17896511  0.96131546  0.19298726  1
  O  O51  1  0.89828871  0.37322060  0.63954166  1
  O  O52  1  0.46783467  0.10421866  0.63496350  1
  O  O53  1  0.63385948  0.53618706  0.63804530  1
  O  O54  1  0.93144430  0.53057158  0.13896920  1
  O  O55  1  0.63130546  0.09589663  0.13361953  1
  O  O56  1  0.46415223  0.37199707  0.14605059  1
  O  O57  1  0.46267181  0.29399976  0.02644087  1
  O  O58  1  0.84071722  0.55300229  0.02279443  1
  O  O59  1  0.69832624  0.15220102  0.02591763  1
  O  O60  1  0.44771182  0.14757503  0.52697335  1
  O  O61  1  0.69067047  0.54396813  0.53062816  1
  O  O62  1  0.83558863  0.29811645  0.52024287  1
  O  O63  1  0.52623113  0.70549536  0.97171223  1
  O  O64  1  0.15502756  0.46121541  0.96956746  1
  O  O65  1  0.30748758  0.84835891  0.96983544  1
  O  O66  1  0.50195263  0.83092560  0.47994361  1
  O  O67  1  0.29943949  0.46961231  0.47341273  1
  O  O68  1  0.15317528  0.67848717  0.47456197  1
  O  O69  1  0.12468284  0.62595938  0.36432210  1
  O  O70  1  0.48148711  0.85362474  0.35736064  1
  O  O71  1  0.38502339  0.49480117  0.35693515  1
  O  O72  1  0.11272195  0.48598667  0.86106007  1
  O  O73  1  0.36018655  0.87511069  0.86177894  1
  O  O74  1  0.49597685  0.64231614  0.85377422  1
  O  O75  1  0.02539002  0.80596723  0.41704470  1
  O  O76  1  0.79621015  0.96991161  0.42215739  1
  O  O77  1  0.18431219  0.18933555  0.42055432  1
  O  O78  1  0.02559168  0.20145505  0.91214182  1
  O  O79  1  0.17303305  0.97582941  0.91233819  1
  O  O80  1  0.82313711  0.85435866  0.90880282  1
  O  O81  1  0.98290901  0.14962372  0.58917030  1
  O  O82  1  0.18536132  0.01440193  0.58412792  1
  O  O83  1  0.83012757  0.81260428  0.58625823  1
  O  O84  1  0.97975207  0.83281684  0.09217284  1
  O  O85  1  0.82742969  0.01385353  0.08527368  1
  O  O86  1  0.17087457  0.16226620  0.08426022  1
  O  O87  1  0.69089617  0.14433204  0.74988348  1
  O  O88  1  0.47367140  0.31315385  0.75447645  1
  O  O89  1  0.84514623  0.53839537  0.74853444  1
  O  O90  1  0.66311916  0.52780905  0.24531198  1
  O  O91  1  0.83656190  0.32770720  0.24968532  1
  O  O92  1  0.46502894  0.14599877  0.24398819  1
  O  O93  1  0.63686608  0.49778106  0.92067708  1
  O  O94  1  0.85868165  0.35437047  0.92268864  1
  O  O95  1  0.49961601  0.13562786  0.92118475  1
  O  O96  1  0.62517668  0.14131977  0.42170998  1
  O  O97  1  0.54184208  0.38192941  0.43179047  1
  O  O98  1  0.86992404  0.48945927  0.42323268  1
  O  O99  1  0.35197359  0.51391976  0.06896836  1
  O  O100  1  0.17598774  0.67668810  0.06200713  1
  O  O101  1  0.50874074  0.85610516  0.06998867  1
  O  O102  1  0.34268946  0.85312433  0.57329443  1
  O  O103  1  0.50749759  0.65715298  0.57510873  1
  O  O104  1  0.16647395  0.51206157  0.57148160  1
  O  O105  1  0.30437621  0.82468268  0.25290216  1
  O  O106  1  0.52428967  0.70636726  0.25179345  1
  O  O107  1  0.19682673  0.49861567  0.25754561  1
  O  O108  1  0.29641724  0.48249442  0.75968660  1
  O  O109  1  0.20026156  0.71958143  0.76203800  1
  O  O110  1  0.53777018  0.82750666  0.75632048  1
