# generated using pymatgen
data_MgFe3(PO4)3
_symmetry_space_group_name_H-M   'P 1'
_cell_length_a   5.59471816
_cell_length_b   5.37961868
_cell_length_c   11.28384412
_cell_angle_alpha   89.85708908
_cell_angle_beta   90.10944266
_cell_angle_gamma   117.73186053
_symmetry_Int_Tables_number   1
_chemical_formula_structural   MgFe3(PO4)3
_chemical_formula_sum   'Mg1 Fe3 P3 O12'
_cell_volume   300.60402652
_cell_formula_units_Z   1
loop_
 _symmetry_equiv_pos_site_id
 _symmetry_equiv_pos_as_xyz
  1  'x, y, z'
loop_
 _atom_site_type_symbol
 _atom_site_label
 _atom_site_symmetry_multiplicity
 _atom_site_fract_x
 _atom_site_fract_y
 _atom_site_fract_z
 _atom_site_occupancy
  Mg  Mg0  1  0.00877500  0.00935800  0.99685400  1
  Fe  Fe1  1  0.50379200  0.51510900  0.00048600  1
  Fe  Fe2  1  0.00690800  0.47828400  0.66241100  1
  Fe  Fe3  1  0.48756500  0.01317600  0.33504400  1
  P  P4  1  0.52486900  0.51396200  0.49577900  1
  P  P5  1  0.99637500  0.50009100  0.16192400  1
  P  P6  1  0.48292300  0.98644400  0.84280400  1
  O  O7  1  0.14145900  0.37281600  0.08168300  1
  O  O8  1  0.58508200  0.79506300  0.42948300  1
  O  O9  1  0.23635600  0.72043100  0.80317600  1
  O  O10  1  0.79559300  0.53749300  0.53476100  1
  O  O11  1  0.77100400  0.25266600  0.22617400  1
  O  O12  1  0.36524400  0.14179200  0.92706200  1
  O  O13  1  0.39299400  0.27020100  0.40119700  1
  O  O14  1  0.67656600  0.18709800  0.75388400  1
  O  O15  1  0.87082100  0.63967000  0.07618900  1
  O  O16  1  0.20356700  0.73605700  0.23774500  1
  O  O17  1  0.65156800  0.89785300  0.93265800  1
  O  O18  1  0.32353700  0.45743900  0.59513000  1
