# generated using pymatgen
data_NaYAlP(SO6)2
_symmetry_space_group_name_H-M   'P 1'
_cell_length_a   8.73050690
_cell_length_b   8.71410348
_cell_length_c   23.06122280
_cell_angle_alpha   90.13373348
_cell_angle_beta   89.73936398
_cell_angle_gamma   119.86123183
_symmetry_Int_Tables_number   1
_chemical_formula_structural   NaYAlP(SO6)2
_chemical_formula_sum   'Na6 Y6 Al6 P6 S12 O72'
_cell_volume   1521.51496153
_cell_formula_units_Z   6
loop_
 _symmetry_equiv_pos_site_id
 _symmetry_equiv_pos_as_xyz
  1  'x, y, z'
loop_
 _atom_site_type_symbol
 _atom_site_label
 _atom_site_symmetry_multiplicity
 _atom_site_fract_x
 _atom_site_fract_y
 _atom_site_fract_z
 _atom_site_occupancy
  Na  Na0  1  0.98992994  0.99321146  0.50011424  1
  Na  Na1  1  0.00573723  0.98834650  0.99996838  1
  Na  Na2  1  0.65749957  0.31217275  0.82943455  1
  Na  Na3  1  0.65622940  0.31671639  0.33816694  1
  Na  Na4  1  0.32026978  0.67318631  0.16503168  1
  Na  Na5  1  0.34593225  0.67137613  0.66096166  1
  Y  Y6  1  0.99831847  0.00170822  0.85043268  1
  Y  Y7  1  0.00577954  0.99374590  0.14719023  1
  Y  Y8  1  0.66531461  0.33179930  0.18633924  1
  Y  Y9  1  0.66614042  0.33212217  0.98079046  1
  Y  Y10  1  0.33764158  0.68078968  0.32300238  1
  Y  Y11  1  0.34155868  0.67982178  0.80599999  1
  Al  Al12  1  0.99751649  0.00007484  0.35511080  1
  Al  Al13  1  0.97822803  0.98393831  0.64468086  1
  Al  Al14  1  0.66410875  0.33156553  0.67834584  1
  Al  Al15  1  0.67203826  0.33460232  0.48710998  1
  Al  Al16  1  0.32415101  0.67370087  0.01693774  1
  Al  Al17  1  0.37050928  0.67748930  0.51762814  1
  P  P18  1  0.28654634  0.00482745  0.25800786  1
  P  P19  1  0.71760128  0.02136333  0.73989620  1
  P  P20  1  0.66732250  0.61493623  0.58272777  1
  P  P21  1  0.98149696  0.63128292  0.08031671  1
  P  P22  1  0.32757295  0.95078094  0.91946046  1
  P  P23  1  0.64213323  0.97703186  0.42234090  1
  S  S24  1  0.71437014  0.71308472  0.25646690  1
  S  S25  1  0.99939344  0.28520275  0.25631098  1
  S  S26  1  0.29646749  0.28048100  0.73935298  1
  S  S27  1  0.98204038  0.69955357  0.74007198  1
  S  S28  1  0.95742260  0.33496150  0.58286674  1
  S  S29  1  0.37790180  0.04364058  0.58234291  1
  S  S30  1  0.65098292  0.01504175  0.08049115  1
  S  S31  1  0.36578437  0.35306866  0.08013645  1
  S  S32  1  0.61566564  0.67087289  0.92052784  1
  S  S33  1  0.05546699  0.38355545  0.91950311  1
  S  S34  1  0.33707733  0.36765558  0.42260038  1
  S  S35  1  0.03024822  0.66392811  0.42348350  1
  O  O36  1  0.17976529  0.01238120  0.31101955  1
  O  O37  1  0.82024355  0.81030609  0.30769166  1
  O  O38  1  0.98358445  0.17510672  0.30754258  1
  O  O39  1  0.23026947  0.18777066  0.79597545  1
  O  O40  1  0.95823432  0.76913100  0.79619618  1
  O  O41  1  0.81322734  0.04719043  0.79858723  1
  O  O42  1  0.81849706  0.99306060  0.69023728  1
  O  O43  1  0.17848552  0.18362815  0.69105311  1
  O  O44  1  0.01205677  0.82196090  0.69170943  1
  O  O45  1  0.78660852  0.80749500  0.20145447  1
  O  O46  1  0.01248688  0.20857685  0.20092341  1
  O  O47  1  0.19531235  0.99005185  0.20004115  1
  O  O48  1  0.87331599  0.36440050  0.63496601  1
  O  O49  1  0.49001745  0.12329260  0.63470142  1
  O  O50  1  0.63385768  0.49702222  0.63667044  1
  O  O51  1  0.89586108  0.52532279  0.13652851  1
  O  O52  1  0.62362679  0.09433476  0.13383836  1
  O  O53  1  0.46814146  0.37403828  0.13371895  1
  O  O54  1  0.44579337  0.31494158  0.02989085  1
  O  O55  1  0.86482980  0.54343967  0.02784611  1
  O  O56  1  0.68050457  0.12784655  0.02971862  1
  O  O57  1  0.46102375  0.15749414  0.53088139  1
  O  O58  1  0.69651357  0.52693227  0.52913417  1
  O  O59  1  0.84334170  0.30181938  0.53134190  1
  O  O60  1  0.51980760  0.67718962  0.97205133  1
  O  O61  1  0.15864486  0.47592192  0.97113182  1
  O  O62  1  0.32026658  0.84227144  0.97288821  1
  O  O63  1  0.54545924  0.84209849  0.47274613  1
  O  O64  1  0.30589549  0.46229108  0.47199712  1
  O  O65  1  0.15436227  0.69533599  0.47186556  1
  O  O66  1  0.09209854  0.62238064  0.36888798  1
  O  O67  1  0.53098653  0.91185792  0.36710599  1
  O  O68  1  0.37326403  0.47038781  0.36857427  1
  O  O69  1  0.13645794  0.47494134  0.86453633  1
  O  O70  1  0.34231130  0.86788898  0.86225972  1
  O  O71  1  0.52238731  0.65351399  0.86545459  1
  O  O72  1  0.01453118  0.82629131  0.41435190  1
  O  O73  1  0.82563592  0.99006889  0.41030590  1
  O  O74  1  0.17417014  0.19146622  0.41527315  1
  O  O75  1  0.03761783  0.20512445  0.91968862  1
  O  O76  1  0.15847369  0.96527359  0.91858945  1
  O  O77  1  0.79084912  0.83439556  0.91943259  1
  O  O78  1  0.97721530  0.17394669  0.59049052  1
  O  O79  1  0.19867668  0.02339517  0.59095360  1
  O  O80  1  0.83231784  0.80462335  0.59205066  1
  O  O81  1  0.00562063  0.81855911  0.08234485  1
  O  O82  1  0.80889736  0.99668132  0.08534890  1
  O  O83  1  0.18483057  0.20069287  0.08475453  1
  O  O84  1  0.69500020  0.18527774  0.73017958  1
  O  O85  1  0.47656640  0.30315472  0.73240372  1
  O  O86  1  0.82283500  0.52342011  0.73228367  1
  O  O87  1  0.70698692  0.53970357  0.25457944  1
  O  O88  1  0.83765027  0.30128097  0.25519099  1
  O  O89  1  0.47013307  0.17379114  0.25639279  1
  O  O90  1  0.64133413  0.51552404  0.92113441  1
  O  O91  1  0.87702853  0.36349390  0.92023443  1
  O  O92  1  0.49185034  0.13670578  0.91941442  1
  O  O93  1  0.66255927  0.16025611  0.43698639  1
  O  O94  1  0.49266183  0.34502821  0.43349693  1
  O  O95  1  0.85127574  0.50801372  0.43386744  1
  O  O96  1  0.35887822  0.51570020  0.07141058  1
  O  O97  1  0.16310587  0.64476582  0.07320602  1
  O  O98  1  0.49352880  0.84041235  0.07291290  1
  O  O99  1  0.35980886  0.86356978  0.57352248  1
  O  O100  1  0.50082774  0.63862320  0.57277953  1
  O  O101  1  0.13495124  0.49448784  0.57447984  1
  O  O102  1  0.30646764  0.83860392  0.25848889  1
  O  O103  1  0.53355146  0.68539358  0.25946229  1
  O  O104  1  0.15841283  0.46145749  0.26002136  1
  O  O105  1  0.31183534  0.45819962  0.74344298  1
  O  O106  1  0.14096182  0.67911720  0.74308588  1
  O  O107  1  0.53301399  0.85224000  0.74212047  1
