# generated using pymatgen
data_TiO2
_symmetry_space_group_name_H-M   'P 1'
_cell_length_a   3.77299303
_cell_length_b   5.98683477
_cell_length_c   9.07315071
_cell_angle_alpha   90.00000000
_cell_angle_beta   90.00000000
_cell_angle_gamma   90.00000000
_symmetry_Int_Tables_number   1
_chemical_formula_structural   TiO2
_chemical_formula_sum   'Ti4 O8'
_cell_volume   204.94692188
_cell_formula_units_Z   4
loop_
 _symmetry_equiv_pos_site_id
 _symmetry_equiv_pos_as_xyz
  1  'x, y, z'
loop_
 _atom_site_type_symbol
 _atom_site_label
 _atom_site_symmetry_multiplicity
 _atom_site_fract_x
 _atom_site_fract_y
 _atom_site_fract_z
 _atom_site_occupancy
  Ti  Ti0  1  0.25000000  0.98787319  0.36414728  1
  Ti  Ti1  1  0.75000000  0.01212681  0.63585272  1
  Ti  Ti2  1  0.25000000  0.48787319  0.13585272  1
  Ti  Ti3  1  0.75000000  0.51212681  0.86414728  1
  O  O4  1  0.75000000  0.96231831  0.41831780  1
  O  O5  1  0.25000000  0.23610080  0.25453256  1
  O  O6  1  0.75000000  0.76389920  0.74546744  1
  O  O7  1  0.25000000  0.03768169  0.58168220  1
  O  O8  1  0.75000000  0.46231831  0.08168220  1
  O  O9  1  0.25000000  0.73610080  0.24546744  1
  O  O10  1  0.75000000  0.26389920  0.75453256  1
  O  O11  1  0.25000000  0.53768169  0.91831780  1
