# generated using pymatgen
data_DyCoO3
_symmetry_space_group_name_H-M   'P 1'
_cell_length_a   5.12056865
_cell_length_b   5.41427635
_cell_length_c   7.35305120
_cell_angle_alpha   90.00000000
_cell_angle_beta   90.00000000
_cell_angle_gamma   90.00000000
_symmetry_Int_Tables_number   1
_chemical_formula_structural   DyCoO3
_chemical_formula_sum   'Dy4 Co4 O12'
_cell_volume   203.85726899
_cell_formula_units_Z   4
loop_
 _symmetry_equiv_pos_site_id
 _symmetry_equiv_pos_as_xyz
  1  'x, y, z'
loop_
 _atom_site_type_symbol
 _atom_site_label
 _atom_site_symmetry_multiplicity
 _atom_site_fract_x
 _atom_site_fract_y
 _atom_site_fract_z
 _atom_site_occupancy
  Dy  Dy0  1  0.51863772  0.57043262  0.25000000  1
  Dy  Dy1  1  0.98136228  0.07043262  0.25000000  1
  Dy  Dy2  1  0.48136228  0.42956738  0.75000000  1
  Dy  Dy3  1  0.01863772  0.92956738  0.75000000  1
  Co  Co4  1  0.00000000  0.50000000  -0.00000000  1
  Co  Co5  1  0.50000000  -0.00000000  0.50000000  1
  Co  Co6  1  0.00000000  0.50000000  0.50000000  1
  Co  Co7  1  0.50000000  -0.00000000  -0.00000000  1
  O  O8  1  0.40247993  0.97417087  0.25000000  1
  O  O9  1  0.09752007  0.47417087  0.25000000  1
  O  O10  1  0.59752007  0.02582913  0.75000000  1
  O  O11  1  0.90247993  0.52582913  0.75000000  1
  O  O12  1  0.80655602  0.80071801  0.04902843  1
  O  O13  1  0.69344398  0.30071801  0.45097157  1
  O  O14  1  0.19344398  0.19928199  0.54902843  1
  O  O15  1  0.30655602  0.69928199  0.95097157  1
  O  O16  1  0.19344398  0.19928199  0.95097157  1
  O  O17  1  0.30655602  0.69928199  0.54902843  1
  O  O18  1  0.80655602  0.80071801  0.45097157  1
  O  O19  1  0.69344398  0.30071801  0.04902843  1
