# generated using pymatgen
data_MgFe8(OF)8
_symmetry_space_group_name_H-M   'P 1'
_cell_length_a   9.88174337
_cell_length_b   9.78424523
_cell_length_c   3.09565875
_cell_angle_alpha   90.08362178
_cell_angle_beta   89.91948633
_cell_angle_gamma   89.53012664
_symmetry_Int_Tables_number   1
_chemical_formula_structural   MgFe8(OF)8
_chemical_formula_sum   'Mg1 Fe8 O8 F8'
_cell_volume   299.29432179
_cell_formula_units_Z   1
loop_
 _symmetry_equiv_pos_site_id
 _symmetry_equiv_pos_as_xyz
  1  'x, y, z'
loop_
 _atom_site_type_symbol
 _atom_site_label
 _atom_site_symmetry_multiplicity
 _atom_site_fract_x
 _atom_site_fract_y
 _atom_site_fract_z
 _atom_site_occupancy
  Mg  Mg0  1  0.50146400  0.25365800  0.01525900  1
  Fe  Fe1  1  0.01767700  0.98882200  0.00482300  1
  Fe  Fe2  1  0.99625900  0.51225500  0.00698200  1
  Fe  Fe3  1  0.18127200  0.25118200  0.50671500  1
  Fe  Fe4  1  0.21769600  0.73624900  0.50418200  1
  Fe  Fe5  1  0.52680200  0.53492400  0.99836100  1
  Fe  Fe6  1  0.50958700  0.96082500  0.00732400  1
  Fe  Fe7  1  0.77040200  0.27990200  0.51220600  1
  Fe  Fe8  1  0.76649200  0.73148900  0.50548600  1
  O  O9  1  0.08136600  0.40713600  0.50676000  1
  O  O10  1  0.09594400  0.89835500  0.50401300  1
  O  O11  1  0.13723300  0.14326200  0.00616100  1
  O  O12  1  0.15322000  0.64566000  0.00394400  1
  O  O13  1  0.57720400  0.36542400  0.51431000  1
  O  O14  1  0.66680000  0.66745200  0.00542500  1
  O  O15  1  0.84278100  0.36091000  0.01183500  1
  O  O16  1  0.91184100  0.60915400  0.50726800  1
  F  F17  1  0.32084100  0.32625900  0.00991000  1
  F  F18  1  0.34391300  0.84764200  0.99794100  1
  F  F19  1  0.43697700  0.11014500  0.50853800  1
  F  F20  1  0.39809800  0.61227600  0.49867200  1
  F  F21  1  0.62274900  0.89701900  0.50643700  1
  F  F22  1  0.66437100  0.13981500  0.01089900  1
  F  F23  1  0.85189700  0.86162300  0.00512200  1
  F  F24  1  0.90017200  0.10161500  0.50809300  1
