# generated using pymatgen
data_Na3NbAlSi2PO12
_symmetry_space_group_name_H-M   'P 1'
_cell_length_a   8.89958132
_cell_length_b   8.89958102
_cell_length_c   22.09591852
_cell_angle_alpha   89.17422971
_cell_angle_beta   90.82577028
_cell_angle_gamma   119.61268670
_symmetry_Int_Tables_number   1
_chemical_formula_structural   Na3NbAlSi2PO12
_chemical_formula_sum   'Na18 Nb6 Al6 Si12 P6 O72'
_cell_volume   1521.25923285
_cell_formula_units_Z   6
loop_
 _symmetry_equiv_pos_site_id
 _symmetry_equiv_pos_as_xyz
  1  'x, y, z'
loop_
 _atom_site_type_symbol
 _atom_site_label
 _atom_site_symmetry_multiplicity
 _atom_site_fract_x
 _atom_site_fract_y
 _atom_site_fract_z
 _atom_site_occupancy
  Na  Na0  1  0.99797058  0.99534533  0.49473374  1
  Na  Na1  1  0.00465467  0.00202942  0.99473374  1
  Na  Na2  1  0.66463758  0.32867833  0.82806674  1
  Na  Na3  1  0.67132167  0.33536242  0.32806674  1
  Na  Na4  1  0.33130358  0.66201233  0.16140074  1
  Na  Na5  1  0.33798767  0.66869642  0.66140074  1
  Na  Na6  1  0.64116767  0.00723760  0.24926595  1
  Na  Na7  1  0.99158525  0.62728675  0.24836123  1
  Na  Na8  1  0.99276240  0.35883233  0.74926595  1
  Na  Na9  1  0.37271325  0.00841475  0.74836123  1
  Na  Na10  1  0.30783467  0.34057060  0.58259895  1
  Na  Na11  1  0.65825225  0.96061975  0.58169423  1
  Na  Na12  1  0.65942940  0.69216533  0.08259895  1
  Na  Na13  1  0.03938025  0.34174775  0.08169423  1
  Na  Na14  1  0.97450067  0.67390460  0.91593295  1
  Na  Na15  1  0.32491825  0.29395375  0.91502823  1
  Na  Na16  1  0.32609540  0.02549933  0.41593295  1
  Na  Na17  1  0.70604625  0.67508175  0.41502823  1
  Nb  Nb18  1  0.99658437  0.99492138  0.64570242  1
  Nb  Nb19  1  0.00507862  0.00341563  0.14570242  1
  Nb  Nb20  1  0.66325137  0.32825438  0.97903542  1
  Nb  Nb21  1  0.67174562  0.33674863  0.47903542  1
  Nb  Nb22  1  0.32991737  0.66158838  0.31236942  1
  Nb  Nb23  1  0.33841162  0.67008263  0.81236942  1
  Al  Al24  1  0.98604111  0.99299924  0.35331687  1
  Al  Al25  1  0.00700076  0.01395890  0.85331687  1
  Al  Al26  1  0.65270811  0.32633224  0.68664987  1
  Al  Al27  1  0.67366776  0.34729190  0.18664987  1
  Al  Al28  1  0.31937411  0.65966624  0.01998387  1
  Al  Al29  1  0.34033376  0.68062590  0.51998387  1
  Si  Si30  1  0.71124001  0.70378923  0.25185438  1
  Si  Si31  1  0.99318414  0.28389377  0.25178401  1
  Si  Si32  1  0.29621077  0.28875999  0.75185438  1
  Si  Si33  1  0.71610623  0.00681586  0.75178401  1
  Si  Si34  1  0.37790701  0.03712223  0.58518738  1
  Si  Si35  1  0.65985114  0.61722677  0.58511701  1
  Si  Si36  1  0.96287777  0.62209299  0.08518738  1
  Si  Si37  1  0.38277323  0.34014886  0.08511701  1
  Si  Si38  1  0.04457301  0.37045623  0.91852138  1
  Si  Si39  1  0.32651714  0.95056077  0.91845101  1
  Si  Si40  1  0.62954377  0.95542699  0.41852138  1
  Si  Si41  1  0.04943923  0.67348286  0.41845101  1
  P  P42  1  0.29456617  0.01161851  0.25387976  1
  P  P43  1  0.98838149  0.70543383  0.75387976  1
  P  P44  1  0.96123317  0.34495151  0.58721276  1
  P  P45  1  0.65504849  0.03876683  0.08721276  1
  P  P46  1  0.62789917  0.67828551  0.92054676  1
  P  P47  1  0.32171449  0.37210083  0.42054676  1
  O  O48  1  0.20760452  0.02934673  0.31021927  1
  O  O49  1  0.83401879  0.79455593  0.31036926  1
  O  O50  1  0.96629594  0.15476590  0.30726388  1
  O  O51  1  0.20544407  0.16598121  0.81036926  1
  O  O52  1  0.97065327  0.79239548  0.81021927  1
  O  O53  1  0.84523410  0.03370406  0.80726388  1
  O  O54  1  0.79811102  0.97123435  0.68944840  1
  O  O55  1  0.16698369  0.19933875  0.69140756  1
  O  O56  1  0.02610756  0.82863187  0.69698824  1
  O  O57  1  0.80066125  0.83301631  0.19140756  1
  O  O58  1  0.02876565  0.20188898  0.18944840  1
  O  O59  1  0.17136813  0.97389244  0.19698824  1
  O  O60  1  0.87427152  0.36267973  0.64355227  1
  O  O61  1  0.50068579  0.12788893  0.64370226  1
  O  O62  1  0.63296294  0.48809890  0.64059688  1
  O  O63  1  0.87211107  0.49931421  0.14370226  1
  O  O64  1  0.63732027  0.12572848  0.14355227  1
  O  O65  1  0.51190110  0.36703706  0.14059688  1
  O  O66  1  0.46477802  0.30456735  0.02278140  1
  O  O67  1  0.83365069  0.53267175  0.02474056  1
  O  O68  1  0.69277456  0.16196487  0.03032124  1
  O  O69  1  0.46732825  0.16634931  0.52474056  1
  O  O70  1  0.69543265  0.53522198  0.52278140  1
  O  O71  1  0.83803513  0.30722544  0.53032124  1
  O  O72  1  0.54093752  0.69601373  0.97688627  1
  O  O73  1  0.16735179  0.46122293  0.97703626  1
  O  O74  1  0.29962894  0.82143290  0.97393088  1
  O  O75  1  0.53877707  0.83264821  0.47703626  1
  O  O76  1  0.30398627  0.45906248  0.47688627  1
  O  O77  1  0.17856710  0.70037106  0.47393088  1
  O  O78  1  0.13144402  0.63790135  0.35611540  1
  O  O79  1  0.50031669  0.86600575  0.35807456  1
  O  O80  1  0.35944056  0.49529887  0.36365524  1
  O  O81  1  0.13399425  0.49968331  0.85807456  1
  O  O82  1  0.36209865  0.86855598  0.85611540  1
  O  O83  1  0.50470113  0.64055944  0.86365524  1
  O  O84  1  0.03053910  0.84648641  0.40979070  1
  O  O85  1  0.81709403  0.97095203  0.41009957  1
  O  O86  1  0.17101465  0.18985561  0.41065333  1
  O  O87  1  0.02904797  0.18290597  0.91009957  1
  O  O88  1  0.15351359  0.96946090  0.90979070  1
  O  O89  1  0.81014439  0.82898535  0.91065333  1
  O  O90  1  0.97215764  0.17206354  0.58809164  1
  O  O91  1  0.18846270  0.03115555  0.58866010  1
  O  O92  1  0.83046361  0.81571408  0.58810968  1
  O  O93  1  0.96884445  0.81153730  0.08866010  1
  O  O94  1  0.82793646  0.02784236  0.08809164  1
  O  O95  1  0.18428592  0.16953639  0.08810968  1
  O  O96  1  0.69720610  0.17981941  0.74312370  1
  O  O97  1  0.48376103  0.30428503  0.74343257  1
  O  O98  1  0.83768165  0.52318861  0.74398633  1
  O  O99  1  0.69571497  0.51623897  0.24343257  1
  O  O100  1  0.82018059  0.30279390  0.24312370  1
  O  O101  1  0.47681139  0.16231835  0.24398633  1
  O  O102  1  0.63882464  0.50539654  0.92142464  1
  O  O103  1  0.85512970  0.36448855  0.92199310  1
  O  O104  1  0.49713061  0.14904708  0.92144268  1
  O  O105  1  0.63551145  0.14487030  0.42199310  1
  O  O106  1  0.49460346  0.36117536  0.42142464  1
  O  O107  1  0.85095292  0.50286939  0.42144268  1
  O  O108  1  0.36387210  0.51315341  0.07645770  1
  O  O109  1  0.15042703  0.63761903  0.07676657  1
  O  O110  1  0.50434765  0.85652261  0.07732033  1
  O  O111  1  0.36238097  0.84957297  0.57676657  1
  O  O112  1  0.48684659  0.63612790  0.57645770  1
  O  O113  1  0.14347739  0.49565235  0.57732033  1
  O  O114  1  0.30549064  0.83873054  0.25475864  1
  O  O115  1  0.52179570  0.69782255  0.25532710  1
  O  O116  1  0.16379661  0.48238108  0.25477668  1
  O  O117  1  0.30217745  0.47820430  0.75532710  1
  O  O118  1  0.16126946  0.69450936  0.75475864  1
  O  O119  1  0.51761892  0.83620339  0.75477668  1
