# generated using pymatgen
data_BaSe2O5
_symmetry_space_group_name_H-M   'P 1'
_cell_length_a   11.75860894
_cell_length_b   4.58024973
_cell_length_c   9.80053485
_cell_angle_alpha   87.64535617
_cell_angle_beta   90.00000000
_cell_angle_gamma   90.00000000
_symmetry_Int_Tables_number   1
_chemical_formula_structural   BaSe2O5
_chemical_formula_sum   'Ba4 Se8 O20'
_cell_volume   527.38532135
_cell_formula_units_Z   4
loop_
 _symmetry_equiv_pos_site_id
 _symmetry_equiv_pos_as_xyz
  1  'x, y, z'
loop_
 _atom_site_type_symbol
 _atom_site_label
 _atom_site_symmetry_multiplicity
 _atom_site_fract_x
 _atom_site_fract_y
 _atom_site_fract_z
 _atom_site_occupancy
  Ba  Ba0  1  0.66982271  0.24420430  0.03717426  1
  Ba  Ba1  1  0.16982271  0.75579570  0.46282574  1
  Ba  Ba2  1  0.33017729  0.75579570  0.96282574  1
  Ba  Ba3  1  0.83017729  0.24420430  0.53717426  1
  Se  Se4  1  0.60552455  0.81275779  0.74235791  1
  Se  Se5  1  0.10552455  0.18724221  0.75764209  1
  Se  Se6  1  0.39447545  0.18724221  0.25764209  1
  Se  Se7  1  0.89447545  0.81275779  0.24235791  1
  Se  Se8  1  0.58023097  0.73229491  0.35490243  1
  Se  Se9  1  0.08023097  0.26770509  0.14509757  1
  Se  Se10  1  0.41976903  0.26770509  0.64509757  1
  Se  Se11  1  0.91976903  0.73229491  0.85490243  1
  O  O12  1  0.55878501  0.75700941  0.90348085  1
  O  O13  1  0.05878501  0.24299059  0.59651915  1
  O  O14  1  0.44121499  0.24299059  0.09651915  1
  O  O15  1  0.94121499  0.75700941  0.40348085  1
  O  O16  1  0.65608259  0.15546707  0.74124578  1
  O  O17  1  0.15608259  0.84453293  0.75875422  1
  O  O18  1  0.34391741  0.84453293  0.25875422  1
  O  O19  1  0.84391741  0.15546707  0.24124578  1
  O  O20  1  0.53584858  0.11848503  0.34271053  1
  O  O21  1  0.03584858  0.88151497  0.15728947  1
  O  O22  1  0.46415142  0.88151497  0.65728947  1
  O  O23  1  0.96415142  0.11848503  0.84271053  1
  O  O24  1  0.85971065  0.71315821  0.70067928  1
  O  O25  1  0.35971065  0.28684179  0.79932072  1
  O  O26  1  0.14028935  0.28684179  0.29932072  1
  O  O27  1  0.64028935  0.71315821  0.20067928  1
  O  O28  1  0.80969351  0.76635813  0.96138787  1
  O  O29  1  0.30969351  0.23364187  0.53861213  1
  O  O30  1  0.19030649  0.23364187  0.03861213  1
  O  O31  1  0.69030649  0.76635813  0.46138787  1
