# generated using pymatgen
data_K2ReF8
_symmetry_space_group_name_H-M   'P 1'
_cell_length_a   5.84411994
_cell_length_b   8.58699071
_cell_length_c   12.40501980
_cell_angle_alpha   90.00000000
_cell_angle_beta   90.00000000
_cell_angle_gamma   90.00000000
_symmetry_Int_Tables_number   1
_chemical_formula_structural   K2ReF8
_chemical_formula_sum   'K8 Re4 F32'
_cell_volume   622.52611570
_cell_formula_units_Z   4
loop_
 _symmetry_equiv_pos_site_id
 _symmetry_equiv_pos_as_xyz
  1  'x, y, z'
loop_
 _atom_site_type_symbol
 _atom_site_label
 _atom_site_symmetry_multiplicity
 _atom_site_fract_x
 _atom_site_fract_y
 _atom_site_fract_z
 _atom_site_occupancy
  K  K0  1  0.25000000  0.05137844  0.21115557  1
  K  K1  1  0.75000000  0.94862156  0.78884443  1
  K  K2  1  0.25000000  0.55137844  0.28884443  1
  K  K3  1  0.75000000  0.44862156  0.71115557  1
  K  K4  1  0.25000000  0.17016038  0.55986825  1
  K  K5  1  0.75000000  0.82983962  0.44013175  1
  K  K6  1  0.25000000  0.67016038  0.94013175  1
  K  K7  1  0.75000000  0.32983962  0.05986825  1
  Re  Re8  1  0.25000000  0.21478986  0.87800056  1
  Re  Re9  1  0.75000000  0.78521014  0.12199944  1
  Re  Re10  1  0.25000000  0.71478986  0.62199944  1
  Re  Re11  1  0.75000000  0.28521014  0.37800056  1
  F  F12  1  0.25000000  0.76670196  0.46756356  1
  F  F13  1  0.75000000  0.23329804  0.53243644  1
  F  F14  1  0.25000000  0.26670196  0.03243644  1
  F  F15  1  0.75000000  0.73329804  0.96756356  1
  F  F16  1  0.25000000  -0.00485914  0.83865612  1
  F  F17  1  0.75000000  0.00485914  0.16134388  1
  F  F18  1  0.25000000  0.49514086  0.66134388  1
  F  F19  1  0.75000000  0.50485914  0.33865612  1
  F  F20  1  0.02823879  0.87100078  0.06387205  1
  F  F21  1  0.52823879  0.12899922  0.93612795  1
  F  F22  1  0.47176121  0.37100078  0.43612795  1
  F  F23  1  0.97176121  0.62899922  0.56387205  1
  F  F24  1  0.54726050  0.10271715  0.38738010  1
  F  F25  1  0.04726050  0.89728285  0.61261990  1
  F  F26  1  0.95273950  0.60271715  0.11261990  1
  F  F27  1  0.45273950  0.39728285  0.88738010  1
  F  F28  1  0.45273950  0.89728285  0.61261990  1
  F  F29  1  0.95273950  0.10271715  0.38738010  1
  F  F30  1  0.04726050  0.39728285  0.88738010  1
  F  F31  1  0.54726050  0.60271715  0.11261990  1
  F  F32  1  0.54682101  0.29369358  0.25168674  1
  F  F33  1  0.04682101  0.70630642  0.74831326  1
  F  F34  1  0.95317899  0.79369358  0.24831326  1
  F  F35  1  0.45317899  0.20630642  0.75168674  1
  F  F36  1  0.45317899  0.70630642  0.74831326  1
  F  F37  1  0.95317899  0.29369358  0.25168674  1
  F  F38  1  0.04682101  0.20630642  0.75168674  1
  F  F39  1  0.54682101  0.79369358  0.24831326  1
  F  F40  1  0.02823879  0.37100078  0.43612795  1
  F  F41  1  0.52823879  0.62899922  0.56387205  1
  F  F42  1  0.47176121  0.87100078  0.06387205  1
  F  F43  1  0.97176121  0.12899922  0.93612795  1
