# generated using pymatgen
data_MgMn2Cr2O8
_symmetry_space_group_name_H-M   'P 1'
_cell_length_a   5.33996936
_cell_length_b   5.34005895
_cell_length_c   6.43044674
_cell_angle_alpha   92.63198742
_cell_angle_beta   87.36635531
_cell_angle_gamma   114.82780365
_symmetry_Int_Tables_number   1
_chemical_formula_structural   MgMn2Cr2O8
_chemical_formula_sum   'Mg1 Mn2 Cr2 O8'
_cell_volume   166.17342771
_cell_formula_units_Z   1
loop_
 _symmetry_equiv_pos_site_id
 _symmetry_equiv_pos_as_xyz
  1  'x, y, z'
loop_
 _atom_site_type_symbol
 _atom_site_label
 _atom_site_symmetry_multiplicity
 _atom_site_fract_x
 _atom_site_fract_y
 _atom_site_fract_z
 _atom_site_occupancy
  Mg  Mg0  1  0.50000000  0.50000000  0.50000000  1
  Mn  Mn1  1  0.00000000  0.00000000  0.50000000  1
  Mn  Mn2  1  0.00000000  0.00000000  0.00000000  1
  Cr  Cr3  1  0.67040400  0.32956400  0.79197500  1
  Cr  Cr4  1  0.32959600  0.67043600  0.20802500  1
  O  O5  1  0.76777200  0.23221600  0.56113300  1
  O  O6  1  0.23222900  0.76778400  0.43886700  1
  O  O7  1  0.76066000  0.23932000  0.01002400  1
  O  O8  1  0.23934000  0.76068000  0.98997600  1
  O  O9  1  0.76617500  0.69790100  0.74124900  1
  O  O10  1  0.69792100  0.76617200  0.25874900  1
  O  O11  1  0.23382500  0.30209900  0.25875100  1
  O  O12  1  0.30207900  0.23382800  0.74125100  1
