# generated using pymatgen
data_Rb3AsSe16
_symmetry_space_group_name_H-M   'P 1'
_cell_length_a   11.97925460
_cell_length_b   11.97920318
_cell_length_c   11.98126731
_cell_angle_alpha   60.00108979
_cell_angle_beta   60.00202981
_cell_angle_gamma   59.99566169
_symmetry_Int_Tables_number   1
_chemical_formula_structural   Rb3AsSe16
_chemical_formula_sum   'Rb6 As2 Se32'
_cell_volume   1215.74217530
_cell_formula_units_Z   2
loop_
 _symmetry_equiv_pos_site_id
 _symmetry_equiv_pos_as_xyz
  1  'x, y, z'
loop_
 _atom_site_type_symbol
 _atom_site_label
 _atom_site_symmetry_multiplicity
 _atom_site_fract_x
 _atom_site_fract_y
 _atom_site_fract_z
 _atom_site_occupancy
  Rb  Rb0  1  0.49999316  0.49999130  0.50000359  1
  Rb  Rb1  1  0.74999233  0.74999502  0.75000654  1
  Rb  Rb2  1  0.12499430  0.12499545  0.12500299  1
  Rb  Rb3  1  0.12499569  0.12499861  0.62501253  1
  Rb  Rb4  1  0.12500885  0.62498908  0.12500042  1
  Rb  Rb5  1  0.62499260  0.12499196  0.12501683  1
  As  As6  1  0.24989277  0.24990934  0.25014182  1
  As  As7  1  0.00004355  0.00003837  -0.00006836  1
  Se  Se8  1  0.79583773  0.17664400  0.59181849  1
  Se  Se9  1  0.43571876  0.79583115  0.59181504  1
  Se  Se10  1  0.59183676  0.79576141  0.17663746  1
  Se  Se11  1  0.59186068  0.17664310  0.43576262  1
  Se  Se12  1  0.59185780  0.43579634  0.79572147  1
  Se  Se13  1  0.43576649  0.59184618  0.17662346  1
  Se  Se14  1  0.32938097  0.32944313  0.01169460  1
  Se  Se15  1  0.01165763  0.32940205  0.32953216  1
  Se  Se16  1  0.32937743  0.01166100  0.32949422  1
  Se  Se17  1  0.32941544  0.32942735  0.32947630  1
  Se  Se18  1  0.92063854  0.92051136  0.23833214  1
  Se  Se19  1  0.23832793  0.92060771  0.92049790  1
  Se  Se20  1  0.92056821  0.23831932  0.92054572  1
  Se  Se21  1  0.92058840  0.92056194  0.92054371  1
  Se  Se22  1  0.07338776  0.45421036  0.81421645  1
  Se  Se23  1  0.81424618  0.07340509  0.45423527  1
  Se  Se24  1  0.45421137  0.81426854  0.07337368  1
  Se  Se25  1  0.07339318  0.65812515  0.45424485  1
  Se  Se26  1  0.07340796  0.81425592  0.65814580  1
  Se  Se27  1  0.45422630  0.65818745  0.81421325  1
  Se  Se28  1  0.65815868  0.07340606  0.81422330  1
  Se  Se29  1  0.65814216  0.45423183  0.07336331  1
  Se  Se30  1  0.81425725  0.45421429  0.65815418  1
  Se  Se31  1  0.45419106  0.07342608  0.65814346  1
  Se  Se32  1  0.81424811  0.65813798  0.07337346  1
  Se  Se33  1  0.65812096  0.81425765  0.45424156  1
  Se  Se34  1  0.17665319  0.79576466  0.43574633  1
  Se  Se35  1  0.43577889  0.17664189  0.79576441  1
  Se  Se36  1  0.79579418  0.43572228  0.17663673  1
  Se  Se37  1  0.17663857  0.59182615  0.79573041  1
  Se  Se38  1  0.17662937  0.43572027  0.59182582  1
  Se  Se39  1  0.79576583  0.59183318  0.43575707  1
