# generated using pymatgen
data_Na7Mg3Ta(PO4)6
_symmetry_space_group_name_H-M   'P 1'
_cell_length_a   9.01366200
_cell_length_b   9.00179435
_cell_length_c   22.02526718
_cell_angle_alpha   90.04614020
_cell_angle_beta   90.09834322
_cell_angle_gamma   119.96236155
_symmetry_Int_Tables_number   1
_chemical_formula_structural   Na7Mg3Ta(PO4)6
_chemical_formula_sum   'Na21 Mg9 Ta3 P18 O72'
_cell_volume   1548.26509757
_cell_formula_units_Z   3
loop_
 _symmetry_equiv_pos_site_id
 _symmetry_equiv_pos_as_xyz
  1  'x, y, z'
loop_
 _atom_site_type_symbol
 _atom_site_label
 _atom_site_symmetry_multiplicity
 _atom_site_fract_x
 _atom_site_fract_y
 _atom_site_fract_z
 _atom_site_occupancy
  Na  Na0  1  0.63561866  0.99941043  0.24800494  1
  Na  Na1  1  0.36352608  0.36422793  0.24800578  1
  Na  Na2  1  0.00057798  0.63646459  0.24811664  1
  Na  Na3  1  0.65693481  0.63998507  0.74635107  1
  Na  Na4  1  0.98774467  0.34787365  0.74620645  1
  Na  Na5  1  0.29360332  0.33495631  0.58753432  1
  Na  Na6  1  0.04047967  0.70683784  0.58752694  1
  Na  Na7  1  0.66577633  0.96084851  0.58764383  1
  Na  Na8  1  0.29282279  0.95868120  0.08887535  1
  Na  Na9  1  0.66441920  0.70606886  0.08924560  1
  Na  Na10  1  0.04274677  0.33402456  0.08983354  1
  Na  Na11  1  0.31822486  0.29558394  0.91034600  1
  Na  Na12  1  0.98469316  0.30237531  0.40221966  1
  Na  Na13  1  0.31749811  0.01480133  0.40249656  1
  Na  Na14  1  0.69803884  0.68230580  0.40218801  1
  Na  Na15  1  0.00011030  0.99991363  0.49848121  1
  Na  Na16  1  0.98418077  0.98511645  0.99570085  1
  Na  Na17  1  0.66336505  0.31708396  0.82543005  1
  Na  Na18  1  0.66690858  0.33347178  0.31974822  1
  Na  Na19  1  0.33342491  0.66651561  0.17103802  1
  Na  Na20  1  0.33488332  0.68248670  0.66231148  1
  Mg  Mg21  1  0.00034007  0.99991600  0.34544346  1
  Mg  Mg22  1  0.99532876  0.99393236  0.85080674  1
  Mg  Mg23  1  0.00239924  0.99862259  0.65255431  1
  Mg  Mg24  1  0.99997332  0.99953585  0.15128879  1
  Mg  Mg25  1  0.66070437  0.32723007  0.68656009  1
  Mg  Mg26  1  0.66683782  0.33352609  0.18402470  1
  Mg  Mg27  1  0.33428138  0.66886815  0.01781971  1
  Mg  Mg28  1  0.33331395  0.66690658  0.51620611  1
  Mg  Mg29  1  0.33317302  0.66656834  0.31596473  1
  Ta  Ta30  1  0.67100387  0.33429444  0.97833170  1
  Ta  Ta31  1  0.66587511  0.33273359  0.48212192  1
  Ta  Ta32  1  0.33316773  0.67339340  0.81581666  1
  P  P33  1  0.29776885  0.99847389  0.24969433  1
  P  P34  1  0.70061019  0.70222214  0.24965836  1
  P  P35  1  0.00154171  0.29921063  0.24974057  1
  P  P36  1  0.29738994  0.29873399  0.75219057  1
  P  P37  1  0.00166595  0.70556487  0.74867045  1
  P  P38  1  0.70573421  0.99934301  0.74942938  1
  P  P39  1  0.96290191  0.33515203  0.58650245  1
  P  P40  1  0.37329271  0.03827257  0.58497020  1
  P  P41  1  0.66521561  0.62846387  0.58640628  1
  P  P42  1  0.96118652  0.62618950  0.08483092  1
  P  P43  1  0.66512197  0.03926179  0.08471356  1
  P  P44  1  0.37454049  0.33449350  0.08325661  1
  P  P45  1  0.62947029  0.66905788  0.91991593  1
  P  P46  1  0.03997519  0.37301738  0.91930882  1
  P  P47  1  0.33163690  0.96214982  0.92160862  1
  P  P48  1  0.62992498  0.96303000  0.41907763  1
  P  P49  1  0.33358097  0.37053653  0.41909130  1
  P  P50  1  0.03636845  0.66631368  0.41915485  1
  O  O51  1  0.21286570  0.02123486  0.30732914  1
  O  O52  1  0.80848165  0.78713919  0.30737892  1
  O  O53  1  0.97905724  0.19144396  0.30733824  1
  O  O54  1  0.21095347  0.19789179  0.80919716  1
  O  O55  1  0.97556050  0.79796599  0.80118459  1
  O  O56  1  0.82297704  0.02338131  0.80231474  1
  O  O57  1  0.76585785  0.95258205  0.69000220  1
  O  O58  1  0.18653278  0.22701897  0.69423127  1
  O  O59  1  0.03358552  0.80115099  0.68796312  1
  O  O60  1  0.78660445  0.81166710  0.19267265  1
  O  O61  1  0.02478799  0.21306958  0.19260292  1
  O  O62  1  0.18842829  0.97504030  0.19251555  1
  O  O63  1  0.87758545  0.35743626  0.64240575  1
  O  O64  1  0.48953411  0.12930151  0.63797414  1
  O  O65  1  0.64505729  0.52160188  0.64242222  1
  O  O66  1  0.87819204  0.51931389  0.14120658  1
  O  O67  1  0.64220262  0.12232662  0.14135390  1
  O  O68  1  0.48340174  0.35753056  0.13918340  1
  O  O69  1  0.47725868  0.32076842  0.02524803  1
  O  O70  1  0.83985637  0.51971265  0.02806749  1
  O  O71  1  0.67887739  0.16092813  0.02832208  1
  O  O72  1  0.47212569  0.15099935  0.52578840  1
  O  O73  1  0.67661209  0.52183741  0.52928063  1
  O  O74  1  0.84386830  0.32099597  0.52930886  1
  O  O75  1  0.54321976  0.67971773  0.97712389  1
  O  O76  1  0.14447526  0.45823888  0.97563256  1
  O  O77  1  0.31734309  0.86612917  0.97912507  1
  O  O78  1  0.54833270  0.85971743  0.47657234  1
  O  O79  1  0.31175180  0.45190338  0.47674581  1
  O  O80  1  0.14003260  0.68836551  0.47668792  1
  O  O81  1  0.11048788  0.62669242  0.36286458  1
  O  O82  1  0.51590699  0.88843487  0.36277709  1
  O  O83  1  0.37219834  0.48416400  0.36286105  1
  O  O84  1  0.13431052  0.49236706  0.86228063  1
  O  O85  1  0.35281169  0.86109889  0.86591575  1
  O  O86  1  0.50458326  0.64030969  0.86357619  1
  O  O87  1  0.00612107  0.81987574  0.41310790  1
  O  O88  1  0.81352379  0.99337180  0.41317321  1
  O  O89  1  0.18070027  0.18651379  0.41309368  1
  O  O90  1  0.01929282  0.19629120  0.91017865  1
  O  O91  1  0.18463912  0.99686056  0.91169426  1
  O  O92  1  0.80743918  0.81804217  0.91049281  1
  O  O93  1  0.97055772  0.16777460  0.58425584  1
  O  O94  1  0.19915375  0.03229641  0.58406800  1
  O  O95  1  0.83229339  0.80289279  0.58317827  1
  O  O96  1  0.96746562  0.80028845  0.08264643  1
  O  O97  1  0.83218182  0.03199834  0.08222969  1
  O  O98  1  0.19985965  0.16735839  0.08154361  1
  O  O99  1  0.68202599  0.15584711  0.74455325  1
  O  O100  1  0.48350648  0.33833207  0.74737183  1
  O  O101  1  0.84946772  0.51877894  0.74641043  1
  O  O102  1  0.68116390  0.52070081  0.24585722  1
  O  O103  1  0.83962970  0.31860321  0.24612565  1
  O  O104  1  0.47874850  0.16073303  0.24602323  1
  O  O105  1  0.63203097  0.49153540  0.92011596  1
  O  O106  1  0.85815547  0.36060092  0.92112475  1
  O  O107  1  0.50370225  0.14482821  0.92071999  1
  O  O108  1  0.65228477  0.15184556  0.42522290  1
  O  O109  1  0.50105522  0.35025151  0.42520756  1
  O  O110  1  0.84831715  0.49975137  0.42569253  1
  O  O111  1  0.35392397  0.49374119  0.07758736  1
  O  O112  1  0.13937846  0.64511375  0.07763353  1
  O  O113  1  0.50634899  0.86034340  0.07781927  1
  O  O114  1  0.35164828  0.85816666  0.57827910  1
  O  O115  1  0.50546261  0.64731079  0.57924114  1
  O  O116  1  0.14128107  0.49458393  0.57890926  1
  O  O117  1  0.31708123  0.83654796  0.25452915  1
  O  O118  1  0.51959888  0.68289381  0.25445384  1
  O  O119  1  0.16330844  0.48035203  0.25455785  1
  O  O120  1  0.31343722  0.48736602  0.75924570  1
  O  O121  1  0.16723657  0.68362537  0.75923045  1
  O  O122  1  0.52039020  0.83242292  0.76117253  1
