# generated using pymatgen
data_Na15Ta5Zn7(PO4)18
_symmetry_space_group_name_H-M   'P 1'
_cell_length_a   8.91936039
_cell_length_b   8.89420796
_cell_length_c   22.27081108
_cell_angle_alpha   89.94607264
_cell_angle_beta   90.16707231
_cell_angle_gamma   119.87549306
_symmetry_Int_Tables_number   1
_chemical_formula_structural   Na15Ta5Zn7(PO4)18
_chemical_formula_sum   'Na15 Ta5 Zn7 P18 O72'
_cell_volume   1531.96640502
_cell_formula_units_Z   1
loop_
 _symmetry_equiv_pos_site_id
 _symmetry_equiv_pos_as_xyz
  1  'x, y, z'
loop_
 _atom_site_type_symbol
 _atom_site_label
 _atom_site_symmetry_multiplicity
 _atom_site_fract_x
 _atom_site_fract_y
 _atom_site_fract_z
 _atom_site_occupancy
  Na  Na0  1  0.98657284  0.63014218  0.24534189  1
  Na  Na1  1  0.64742138  0.63490324  0.74770848  1
  Na  Na2  1  0.98737269  0.35187339  0.74785206  1
  Na  Na3  1  0.36511755  0.01249656  0.74777189  1
  Na  Na4  1  0.29468357  0.33383081  0.58462885  1
  Na  Na5  1  0.03985152  0.70621068  0.58513827  1
  Na  Na6  1  0.66558382  0.96093741  0.58466769  1
  Na  Na7  1  0.65400250  0.69009131  0.07931219  1
  Na  Na8  1  0.31966390  0.02453487  0.41206063  1
  Na  Na9  1  0.99033109  0.99942972  0.49557742  1
  Na  Na10  1  0.00884183  0.00753779  0.98935930  1
  Na  Na11  1  0.66691665  0.33335072  0.83214828  1
  Na  Na12  1  0.66442279  0.33054812  0.32365236  1
  Na  Na13  1  0.33096319  0.66734285  0.15665216  1
  Na  Na14  1  0.33354692  0.66685011  0.66209452  1
  Ta  Ta15  1  0.00418450  0.00631659  0.14512111  1
  Ta  Ta16  1  0.66614513  0.33066586  0.97923449  1
  Ta  Ta17  1  0.67134447  0.33741681  0.47805023  1
  Ta  Ta18  1  0.33813266  0.66523341  0.31181407  1
  Ta  Ta19  1  0.33269577  0.66648387  0.81938030  1
  Zn  Zn20  1  0.99326883  0.00065427  0.35002711  1
  Zn  Zn21  1  0.99995882  0.00004112  0.85212654  1
  Zn  Zn22  1  0.99984571  0.00042252  0.65387117  1
  Zn  Zn23  1  0.66680105  0.33289221  0.68203056  1
  Zn  Zn24  1  0.66029373  0.32599615  0.18277202  1
  Zn  Zn25  1  0.32598899  0.66578808  0.01685204  1
  Zn  Zn26  1  0.33452359  0.66617367  0.51334318  1
  P  P27  1  0.29426102  0.00517374  0.25324227  1
  P  P28  1  0.71142681  0.70957731  0.25072391  1
  P  P29  1  0.99738242  0.28910387  0.25232295  1
  P  P30  1  0.29384800  0.29450310  0.75000297  1
  P  P31  1  0.00074936  0.70645221  0.75000630  1
  P  P32  1  0.70498471  0.99872918  0.75002031  1
  P  P33  1  0.96117405  0.33441427  0.58474429  1
  P  P34  1  0.37401050  0.03970430  0.58360945  1
  P  P35  1  0.66556964  0.62654683  0.58471203  1
  P  P36  1  0.96074073  0.62270606  0.08631394  1
  P  P37  1  0.66404135  0.04148271  0.08535016  1
  P  P38  1  0.37765110  0.33491152  0.08455887  1
  P  P39  1  0.63038901  0.66964633  0.92094086  1
  P  P40  1  0.04031090  0.37041636  0.92014078  1
  P  P41  1  0.33017578  0.96014517  0.91998434  1
  P  P42  1  0.62933040  0.95706023  0.41892530  1
  P  P43  1  0.33032635  0.37274782  0.41907477  1
  P  P44  1  0.04226171  0.66767586  0.41744675  1
  O  O45  1  0.21388715  0.02164079  0.31051503  1
  O  O46  1  0.82394728  0.79137563  0.30516454  1
  O  O47  1  0.97604904  0.18549571  0.30768865  1
  O  O48  1  0.20857336  0.17682659  0.80319513  1
  O  O49  1  0.96862853  0.79180351  0.80330503  1
  O  O50  1  0.82278699  0.03122342  0.80334639  1
  O  O51  1  0.76708043  0.95284689  0.69140601  1
  O  O52  1  0.18578435  0.23272237  0.69124356  1
  O  O53  1  0.04637288  0.81450589  0.69131909  1
  O  O54  1  0.79599781  0.82713870  0.19293183  1
  O  O55  1  0.02817111  0.20004988  0.19537395  1
  O  O56  1  0.16654256  0.96880141  0.19771698  1
  O  O57  1  0.88265462  0.36492421  0.64089871  1
  O  O58  1  0.48358072  0.11945639  0.63978325  1
  O  O59  1  0.63581100  0.51786319  0.64102807  1
  O  O60  1  0.88039725  0.52557592  0.14380213  1
  O  O61  1  0.64216266  0.12360560  0.14094748  1
  O  O62  1  0.48901296  0.36620130  0.13952883  1
  O  O63  1  0.46684714  0.30260576  0.02807935  1
  O  O64  1  0.83273123  0.53150455  0.03102212  1
  O  O65  1  0.69465466  0.16120722  0.02853237  1
  O  O66  1  0.47353941  0.15998234  0.52674762  1
  O  O67  1  0.68632499  0.52336281  0.52893873  1
  O  O68  1  0.83750256  0.31364147  0.52881540  1
  O  O69  1  0.54613125  0.68866025  0.97642082  1
  O  O70  1  0.14991594  0.45811469  0.97346460  1
  O  O71  1  0.31165728  0.85208023  0.97358450  1
  O  O72  1  0.54842858  0.85959249  0.47671715  1
  O  O73  1  0.30931611  0.45120572  0.47668695  1
  O  O74  1  0.14818495  0.69464135  0.47440408  1
  O  O75  1  0.13271114  0.63766965  0.36106232  1
  O  O76  1  0.50012393  0.86375918  0.36394809  1
  O  O77  1  0.35997250  0.49652050  0.36365446  1
  O  O78  1  0.12904132  0.49162504  0.86131183  1
  O  O79  1  0.36154480  0.87106405  0.86116101  1
  O  O80  1  0.50673225  0.63873346  0.86318580  1
  O  O81  1  0.02073841  0.82510123  0.40996023  1
  O  O82  1  0.80815230  0.98522149  0.41068433  1
  O  O83  1  0.18320569  0.18936026  0.41114979  1
  O  O84  1  0.01200557  0.19062423  0.90948158  1
  O  O85  1  0.17873390  0.98808174  0.90973066  1
  O  O86  1  0.80858569  0.82222720  0.91015385  1
  O  O87  1  0.96839797  0.16515840  0.58381419  1
  O  O88  1  0.19728554  0.03149657  0.58309799  1
  O  O89  1  0.83391705  0.80281704  0.58370433  1
  O  O90  1  0.96557087  0.80696268  0.09031505  1
  O  O91  1  0.83866685  0.02907463  0.09021005  1
  O  O92  1  0.19482254  0.16267294  0.09084668  1
  O  O93  1  0.67412068  0.15450862  0.74530913  1
  O  O94  1  0.47979961  0.32519831  0.74541475  1
  O  O95  1  0.84579263  0.52011072  0.74534866  1
  O  O96  1  0.68583722  0.52867585  0.24306372  1
  O  O97  1  0.85171696  0.32918561  0.24428706  1
  O  O98  1  0.47505256  0.15540531  0.24433924  1
  O  O99  1  0.63756354  0.49445019  0.92345846  1
  O  O100  1  0.85858395  0.36411558  0.92389492  1
  O  O101  1  0.50544471  0.14221123  0.92314211  1
  O  O102  1  0.63138763  0.13890556  0.42203031  1
  O  O103  1  0.50384013  0.36086112  0.42250667  1
  O  O104  1  0.85984975  0.49638437  0.42255755  1
  O  O105  1  0.35319300  0.49055109  0.07614380  1
  O  O106  1  0.14148548  0.65323193  0.07775575  1
  O  O107  1  0.51856096  0.85601600  0.07754267  1
  O  O108  1  0.35444009  0.85819506  0.57743869  1
  O  O109  1  0.50400475  0.64541939  0.57763007  1
  O  O110  1  0.14095755  0.49613570  0.57752930  1
  O  O111  1  0.29849663  0.82523126  0.25701178  1
  O  O112  1  0.52768345  0.69797821  0.25778151  1
  O  O113  1  0.17182718  0.47645906  0.25709050  1
  O  O114  1  0.31348881  0.48329124  0.75934066  1
  O  O115  1  0.16977424  0.68705690  0.75921410  1
  O  O116  1  0.51710704  0.82973299  0.75937799  1
