# generated using pymatgen
data_Na2TaTiSi2PO12
_symmetry_space_group_name_H-M   'P 1'
_cell_length_a   8.88561878
_cell_length_b   8.88561848
_cell_length_c   22.37344793
_cell_angle_alpha   89.65864421
_cell_angle_beta   90.34135580
_cell_angle_gamma   119.92020733
_symmetry_Int_Tables_number   1
_chemical_formula_structural   Na2TaTiSi2PO12
_chemical_formula_sum   'Na12 Ta6 Ti6 Si12 P6 O72'
_cell_volume   1531.00720073
_cell_formula_units_Z   6
loop_
 _symmetry_equiv_pos_site_id
 _symmetry_equiv_pos_as_xyz
  1  'x, y, z'
loop_
 _atom_site_type_symbol
 _atom_site_label
 _atom_site_symmetry_multiplicity
 _atom_site_fract_x
 _atom_site_fract_y
 _atom_site_fract_z
 _atom_site_occupancy
  Na  Na0  1  0.99337060  0.62860696  0.25003264  1
  Na  Na1  1  0.37139304  0.00662940  0.75003264  1
  Na  Na2  1  0.66003760  0.96193996  0.58336564  1
  Na  Na3  1  0.03806004  0.33996240  0.08336564  1
  Na  Na4  1  0.32670360  0.29527396  0.91669964  1
  Na  Na5  1  0.70472604  0.67329640  0.41669964  1
  Na  Na6  1  0.02174387  0.00874440  0.49557102  1
  Na  Na7  1  0.99125560  0.97825613  0.99557102  1
  Na  Na8  1  0.68841087  0.34207740  0.82890402  1
  Na  Na9  1  0.65792260  0.31158913  0.32890402  1
  Na  Na10  1  0.35507687  0.67541140  0.16223802  1
  Na  Na11  1  0.32458860  0.64492313  0.66223802  1
  Ta  Ta12  1  0.00047793  0.99962651  0.64482320  1
  Ta  Ta13  1  0.00037349  -0.00047793  0.14482320  1
  Ta  Ta14  1  0.66714493  0.33295951  0.97815620  1
  Ta  Ta15  1  0.66704049  0.33285507  0.47815620  1
  Ta  Ta16  1  0.33381093  0.66629351  0.31149020  1
  Ta  Ta17  1  0.33370649  0.66618907  0.81149020  1
  Ti  Ti18  1  0.99320971  0.99931551  0.35395353  1
  Ti  Ti19  1  0.00068449  0.00679029  0.85395353  1
  Ti  Ti20  1  0.65987671  0.33264851  0.68728653  1
  Ti  Ti21  1  0.66735149  0.34012329  0.18728653  1
  Ti  Ti22  1  0.32654271  0.66598251  0.02062053  1
  Ti  Ti23  1  0.33401749  0.67345729  0.52062053  1
  Si  Si24  1  0.70932320  0.71031769  0.25104801  1
  Si  Si25  1  0.99421066  0.28404324  0.25001588  1
  Si  Si26  1  0.28968231  0.29067680  0.75104801  1
  Si  Si27  1  0.71595676  0.00578934  0.75001588  1
  Si  Si28  1  0.37599020  0.04365069  0.58438101  1
  Si  Si29  1  0.66087766  0.61737624  0.58334888  1
  Si  Si30  1  0.95634931  0.62400980  0.08438101  1
  Si  Si31  1  0.38262376  0.33912234  0.08334888  1
  Si  Si32  1  0.04265620  0.37698469  0.91771501  1
  Si  Si33  1  0.32754366  0.95071024  0.91668288  1
  Si  Si34  1  0.62301531  0.95734380  0.41771501  1
  Si  Si35  1  0.04928976  0.67245634  0.41668288  1
  P  P36  1  0.28987040  0.00662842  0.25211285  1
  P  P37  1  0.99337158  0.71012960  0.75211285  1
  P  P38  1  0.95653740  0.33996142  0.58544585  1
  P  P39  1  0.66003858  0.04346260  0.08544585  1
  P  P40  1  0.62320340  0.67329542  0.91877985  1
  P  P41  1  0.32670458  0.37679660  0.41877985  1
  O  O42  1  0.19980324  0.02463320  0.30692156  1
  O  O43  1  0.83085924  0.79627773  0.31030932  1
  O  O44  1  0.97592236  0.16060878  0.30695107  1
  O  O45  1  0.20372227  0.16914076  0.81030932  1
  O  O46  1  0.97536680  0.80019676  0.80692156  1
  O  O47  1  0.83939122  0.02407764  0.80695107  1
  O  O48  1  0.79850493  0.97159430  0.68963701  1
  O  O49  1  0.16536096  0.19170950  0.69309558  1
  O  O50  1  0.02866912  0.82898824  0.69544615  1
  O  O51  1  0.80829050  0.83463904  0.19309558  1
  O  O52  1  0.02840570  0.20149507  0.18963701  1
  O  O53  1  0.17101176  0.97133088  0.19544615  1
  O  O54  1  0.86647024  0.35796620  0.64025456  1
  O  O55  1  0.49752624  0.12961073  0.64364232  1
  O  O56  1  0.64258936  0.49394178  0.64028407  1
  O  O57  1  0.87038927  0.50247376  0.14364232  1
  O  O58  1  0.64203380  0.13352976  0.14025456  1
  O  O59  1  0.50605822  0.35741064  0.14028407  1
  O  O60  1  0.46517193  0.30492730  0.02297001  1
  O  O61  1  0.83202796  0.52504250  0.02642858  1
  O  O62  1  0.69533612  0.16232124  0.02877915  1
  O  O63  1  0.47495750  0.16797204  0.52642858  1
  O  O64  1  0.69507270  0.53482807  0.52297001  1
  O  O65  1  0.83767876  0.30466388  0.52877915  1
  O  O66  1  0.53313624  0.69130020  0.97358856  1
  O  O67  1  0.16419224  0.46294473  0.97697632  1
  O  O68  1  0.30925536  0.82727578  0.97361807  1
  O  O69  1  0.53705527  0.83580776  0.47697632  1
  O  O70  1  0.30869980  0.46686376  0.47358856  1
  O  O71  1  0.17272422  0.69074464  0.47361807  1
  O  O72  1  0.13183793  0.63826130  0.35630401  1
  O  O73  1  0.49869396  0.85837650  0.35976258  1
  O  O74  1  0.36200212  0.49565524  0.36211315  1
  O  O75  1  0.14162350  0.50130604  0.85976258  1
  O  O76  1  0.36173870  0.86816207  0.85630401  1
  O  O77  1  0.50434476  0.63799788  0.86211315  1
  O  O78  1  0.02457426  0.84110969  0.41147778  1
  O  O79  1  0.81278917  0.97178169  0.40989990  1
  O  O80  1  0.17160754  0.19521138  0.41042146  1
  O  O81  1  0.02821831  0.18721083  0.90989990  1
  O  O82  1  0.15889031  0.97542574  0.91147778  1
  O  O83  1  0.80478862  0.82839246  0.91042146  1
  O  O84  1  0.96461998  0.16656658  0.58927025  1
  O  O85  1  0.18433071  0.02567899  0.58923712  1
  O  O86  1  0.83223466  0.81473972  0.58977567  1
  O  O87  1  0.97432101  0.81566929  0.08923712  1
  O  O88  1  0.83343342  0.03538002  0.08927025  1
  O  O89  1  0.18526028  0.16776534  0.08977567  1
  O  O90  1  0.69124126  0.17444269  0.74481078  1
  O  O91  1  0.47945617  0.30511469  0.74323290  1
  O  O92  1  0.83827454  0.52854438  0.74375446  1
  O  O93  1  0.69488531  0.52054383  0.24323290  1
  O  O94  1  0.82555731  0.30875874  0.24481078  1
  O  O95  1  0.47145562  0.16172546  0.24375446  1
  O  O96  1  0.63128698  0.49989958  0.92260325  1
  O  O97  1  0.85099771  0.35901199  0.92257012  1
  O  O98  1  0.49890166  0.14807272  0.92310867  1
  O  O99  1  0.64098801  0.14900229  0.42257012  1
  O  O100  1  0.50010042  0.36871302  0.42260325  1
  O  O101  1  0.85192728  0.50109834  0.42310867  1
  O  O102  1  0.35790726  0.50777669  0.07814478  1
  O  O103  1  0.14612217  0.63844869  0.07656690  1
  O  O104  1  0.50494054  0.86187838  0.07708846  1
  O  O105  1  0.36155131  0.85387783  0.57656690  1
  O  O106  1  0.49222331  0.64209274  0.57814478  1
  O  O107  1  0.13812162  0.49505946  0.57708846  1
  O  O108  1  0.29795298  0.83323358  0.25593725  1
  O  O109  1  0.51766371  0.69234599  0.25590412  1
  O  O110  1  0.16556766  0.48140672  0.25644267  1
  O  O111  1  0.30765401  0.48233629  0.75590412  1
  O  O112  1  0.16676642  0.70204702  0.75593725  1
  O  O113  1  0.51859328  0.83443234  0.75644267  1
