# generated using pymatgen
data_NaCaSn3P3(SO8)3
_symmetry_space_group_name_H-M   'P 1'
_cell_length_a   8.86489320
_cell_length_b   8.86113873
_cell_length_c   23.12277296
_cell_angle_alpha   90.15342583
_cell_angle_beta   90.18602330
_cell_angle_gamma   120.18250246
_symmetry_Int_Tables_number   1
_chemical_formula_structural   NaCaSn3P3(SO8)3
_chemical_formula_sum   'Na3 Ca3 Sn9 P9 S9 O72'
_cell_volume   1570.08905859
_cell_formula_units_Z   3
loop_
 _symmetry_equiv_pos_site_id
 _symmetry_equiv_pos_as_xyz
  1  'x, y, z'
loop_
 _atom_site_type_symbol
 _atom_site_label
 _atom_site_symmetry_multiplicity
 _atom_site_fract_x
 _atom_site_fract_y
 _atom_site_fract_z
 _atom_site_occupancy
  Na  Na0  1  0.65649293  0.33199296  0.83343144  1
  Na  Na1  1  0.67401585  0.33077482  0.33361674  1
  Na  Na2  1  0.33084205  0.67407830  0.16415387  1
  Ca  Ca3  1  0.66109881  0.33798243  0.68656067  1
  Ca  Ca4  1  0.67116942  0.33102871  0.18328063  1
  Ca  Ca5  1  0.33271442  0.67270507  0.31584182  1
  Sn  Sn6  1  0.99354212  0.99229584  0.35813931  1
  Sn  Sn7  1  0.00386373  0.00386021  0.85879090  1
  Sn  Sn8  1  0.99900685  0.99974619  0.64767792  1
  Sn  Sn9  1  0.99323969  0.99385339  0.14077421  1
  Sn  Sn10  1  0.67344337  0.33411492  0.98174530  1
  Sn  Sn11  1  0.67441093  0.34132487  0.48613719  1
  Sn  Sn12  1  0.33450141  0.67191595  0.01443779  1
  Sn  Sn13  1  0.34050871  0.67398380  0.51461564  1
  Sn  Sn14  1  0.33320127  0.65962337  0.81604029  1
  P  P15  1  0.28141233  0.28822449  0.75299119  1
  P  P16  1  0.66464766  0.63412326  0.58290938  1
  P  P17  1  0.96788880  0.62891245  0.08214254  1
  P  P18  1  0.66219826  0.03321665  0.08199152  1
  P  P19  1  0.62489787  0.66308053  0.91646702  1
  P  P20  1  0.04075796  0.37799303  0.91622389  1
  P  P21  1  0.33849806  0.96012365  0.91496404  1
  P  P22  1  0.63257189  0.97219836  0.41764861  1
  P  P23  1  0.03480407  0.66327691  0.41768734  1
  S  S24  1  0.28054149  0.00219949  0.24993749  1
  S  S25  1  0.71303026  0.71323004  0.24972754  1
  S  S26  1  0.00167068  0.28000796  0.25027002  1
  S  S27  1  0.00929247  0.71698501  0.75332272  1
  S  S28  1  0.70775471  0.99202375  0.75297394  1
  S  S29  1  0.97029536  0.33595844  0.58292254  1
  S  S30  1  0.36749799  0.03433653  0.58222953  1
  S  S31  1  0.36941229  0.33590504  0.08165861  1
  S  S32  1  0.33547197  0.36804746  0.41754457  1
  O  O33  1  0.19450755  0.01873523  0.30373509  1
  O  O34  1  0.81720663  0.79842683  0.30362054  1
  O  O35  1  0.98632374  0.17749764  0.30396001  1
  O  O36  1  0.18904905  0.17088958  0.80547034  1
  O  O37  1  0.97844228  0.79994353  0.80408616  1
  O  O38  1  0.81764294  0.01592693  0.80439080  1
  O  O39  1  0.78338707  0.96244293  0.69887660  1
  O  O40  1  0.17089965  0.20600749  0.69581275  1
  O  O41  1  0.03380473  0.81942606  0.69891328  1
  O  O42  1  0.80074701  0.81839113  0.19717812  1
  O  O43  1  0.01672877  0.19227605  0.19687758  1
  O  O44  1  0.17698550  0.98639934  0.19655398  1
  O  O45  1  0.89546511  0.36768190  0.63380689  1
  O  O46  1  0.47531994  0.10742099  0.63315236  1
  O  O47  1  0.63024365  0.52371313  0.63540581  1
  O  O48  1  0.89715468  0.52518362  0.13683940  1
  O  O49  1  0.62300831  0.10032412  0.13647389  1
  O  O50  1  0.47340032  0.36960628  0.13427272  1
  O  O51  1  0.44887813  0.30441594  0.02976977  1
  O  O52  1  0.84859170  0.54662322  0.02803056  1
  O  O53  1  0.69177728  0.14790299  0.02765982  1
  O  O54  1  0.44706429  0.14627767  0.52961778  1
  O  O55  1  0.70256864  0.55350487  0.52783156  1
  O  O56  1  0.85426537  0.29610464  0.53044748  1
  O  O57  1  0.54479255  0.69731869  0.97011710  1
  O  O58  1  0.15545196  0.45809954  0.97021123  1
  O  O59  1  0.30473361  0.84866693  0.96914002  1
  O  O60  1  0.55179385  0.85371003  0.47136620  1
  O  O61  1  0.30339700  0.44662816  0.46975079  1
  O  O62  1  0.14935034  0.69289249  0.47272662  1
  O  O63  1  0.10315162  0.62339062  0.36394979  1
  O  O64  1  0.52636049  0.90221154  0.36319657  1
  O  O65  1  0.36981593  0.47309931  0.36584929  1
  O  O66  1  0.11830664  0.49354101  0.86193976  1
  O  O67  1  0.37498827  0.87966570  0.86061336  1
  O  O68  1  0.50980861  0.62487940  0.86151824  1
  O  O69  1  0.02146923  0.83152341  0.41234419  1
  O  O70  1  0.81834783  0.99556119  0.41196329  1
  O  O71  1  0.17752052  0.19202708  0.41158646  1
  O  O72  1  0.02102260  0.19670979  0.90902633  1
  O  O73  1  0.17470102  0.97540014  0.90753852  1
  O  O74  1  0.80567930  0.82585549  0.90745238  1
  O  O75  1  0.98847461  0.17769751  0.58890399  1
  O  O76  1  0.19207068  0.01819475  0.58852354  1
  O  O77  1  0.83166104  0.82012764  0.59049320  1
  O  O78  1  0.99140604  0.81539368  0.08769993  1
  O  O79  1  0.83087985  0.02037496  0.08763952  1
  O  O80  1  0.19296899  0.17762139  0.08772538  1
  O  O81  1  0.69214187  0.14783103  0.74830388  1
  O  O82  1  0.46066307  0.30684089  0.75052778  1
  O  O83  1  0.85805930  0.54134882  0.74910434  1
  O  O84  1  0.69962041  0.54182948  0.24798363  1
  O  O85  1  0.84268165  0.29207028  0.24926187  1
  O  O86  1  0.45222167  0.16120212  0.24886453  1
  O  O87  1  0.64246074  0.49823339  0.92411128  1
  O  O88  1  0.85791787  0.35914108  0.92233627  1
  O  O89  1  0.50166660  0.14507033  0.92251292  1
  O  O90  1  0.65112855  0.15519233  0.42906550  1
  O  O91  1  0.48918450  0.34426508  0.42673811  1
  O  O92  1  0.84720250  0.50375979  0.42666219  1
  O  O93  1  0.34658922  0.49005378  0.07349700  1
  O  O94  1  0.15170712  0.64972776  0.07290232  1
  O  O95  1  0.50453656  0.84448583  0.07324515  1
  O  O96  1  0.34282908  0.85746260  0.57252111  1
  O  O97  1  0.50325605  0.65392558  0.57031996  1
  O  O98  1  0.14424896  0.49006331  0.57140804  1
  O  O99  1  0.29239037  0.84343356  0.25101425  1
  O  O100  1  0.54260763  0.70073712  0.25169790  1
  O  O101  1  0.16021396  0.45131079  0.25190513  1
  O  O102  1  0.28972019  0.46742175  0.75871147  1
  O  O103  1  0.17357898  0.71166162  0.75928976  1
  O  O104  1  0.53372955  0.83142824  0.75843340  1
