# generated using pymatgen
data_Na2ZrTiSi(PO6)2
_symmetry_space_group_name_H-M   'P 1'
_cell_length_a   8.92333851
_cell_length_b   8.93799609
_cell_length_c   22.62387586
_cell_angle_alpha   90.01738058
_cell_angle_beta   90.02165461
_cell_angle_gamma   119.81073811
_symmetry_Int_Tables_number   1
_chemical_formula_structural   Na2ZrTiSi(PO6)2
_chemical_formula_sum   'Na12 Zr6 Ti6 Si6 P12 O72'
_cell_volume   1565.63373028
_cell_formula_units_Z   6
loop_
 _symmetry_equiv_pos_site_id
 _symmetry_equiv_pos_as_xyz
  1  'x, y, z'
loop_
 _atom_site_type_symbol
 _atom_site_label
 _atom_site_symmetry_multiplicity
 _atom_site_fract_x
 _atom_site_fract_y
 _atom_site_fract_z
 _atom_site_occupancy
  Na  Na0  1  0.00094714  0.64305526  0.24980093  1
  Na  Na1  1  0.36255987  0.99472011  0.75299725  1
  Na  Na2  1  0.66375055  0.96945177  0.58766471  1
  Na  Na3  1  0.04051526  0.33561189  0.08307720  1
  Na  Na4  1  0.96378708  0.66677344  0.91649842  1
  Na  Na5  1  0.32802052  0.02595787  0.41819880  1
  Na  Na6  1  0.00505487  0.99376394  0.50020746  1
  Na  Na7  1  0.00247607  0.99765090  0.99679990  1
  Na  Na8  1  0.66808093  0.32893375  0.83902694  1
  Na  Na9  1  0.66812588  0.33127715  0.32827369  1
  Na  Na10  1  0.36421648  0.68040601  0.16632540  1
  Na  Na11  1  0.32130962  0.64200285  0.67131671  1
  Zr  Zr12  1  0.99139153  0.00305859  0.34928378  1
  Zr  Zr13  1  0.00511236  0.99904664  0.64999975  1
  Zr  Zr14  1  0.00076754  0.99511699  0.14501657  1
  Zr  Zr15  1  0.66860881  0.33365726  0.69183861  1
  Zr  Zr16  1  0.67229094  0.34215571  0.47659600  1
  Zr  Zr17  1  0.32442962  0.66424705  0.52066943  1
  Ti  Ti18  1  0.99838391  0.00913492  0.85615046  1
  Ti  Ti19  1  0.67194869  0.33247707  0.18297725  1
  Ti  Ti20  1  0.65721739  0.32914756  0.97968227  1
  Ti  Ti21  1  0.33099050  0.67494998  0.01894315  1
  Ti  Ti22  1  0.32452663  0.65758176  0.31179232  1
  Ti  Ti23  1  0.34501539  0.67577635  0.81814482  1
  Si  Si24  1  0.00066671  0.30138422  0.24477822  1
  Si  Si25  1  0.70521195  0.99214909  0.75262773  1
  Si  Si26  1  0.37225552  0.04241227  0.58232621  1
  Si  Si27  1  0.95350134  0.61927109  0.07857206  1
  Si  Si28  1  0.33512397  0.96126659  0.91691980  1
  Si  Si29  1  0.03903172  0.66590021  0.41186739  1
  P  P30  1  0.30477830  0.00395510  0.25076808  1
  P  P31  1  0.69779310  0.69884801  0.24793487  1
  P  P32  1  0.28413622  0.29510224  0.75609725  1
  P  P33  1  0.00490321  0.71086486  0.75838724  1
  P  P34  1  0.95768258  0.33192796  0.58479170  1
  P  P35  1  0.66867401  0.62587157  0.58469852  1
  P  P36  1  0.65781580  0.04577162  0.08101572  1
  P  P37  1  0.38792477  0.34126318  0.08221581  1
  P  P38  1  0.61946846  0.66781296  0.91868192  1
  P  P39  1  0.04896467  0.38054125  0.91796222  1
  P  P40  1  0.61832796  0.94990418  0.41552247  1
  P  P41  1  0.33265367  0.37899623  0.41309968  1
  O  O42  1  0.22153121  0.02856615  0.30746883  1
  O  O43  1  0.82209075  0.78029733  0.30165601  1
  O  O44  1  0.96807967  0.17705724  0.30137172  1
  O  O45  1  0.19291920  0.17122196  0.80889564  1
  O  O46  1  0.98855484  0.80334356  0.81356617  1
  O  O47  1  0.83663775  0.01091072  0.80717267  1
  O  O48  1  0.78334767  0.97113315  0.69001156  1
  O  O49  1  0.18020711  0.21209254  0.69868646  1
  O  O50  1  0.03794355  0.82742639  0.70284461  1
  O  O51  1  0.78975761  0.81696326  0.19400768  1
  O  O52  1  0.02832960  0.21443122  0.18562157  1
  O  O53  1  0.17239577  0.96433031  0.19927678  1
  O  O54  1  0.87033128  0.35235529  0.64063359  1
  O  O55  1  0.48890011  0.13987446  0.64150900  1
  O  O56  1  0.65732189  0.52217346  0.64027410  1
  O  O57  1  0.85976124  0.49700586  0.13761139  1
  O  O58  1  0.63715946  0.13167043  0.13774539  1
  O  O59  1  0.49478227  0.35476325  0.13746560  1
  O  O60  1  0.47467654  0.31698931  0.02592451  1
  O  O61  1  0.83794623  0.52017792  0.02004648  1
  O  O62  1  0.68305851  0.16227843  0.02684956  1
  O  O63  1  0.46608206  0.14835982  0.52178229  1
  O  O64  1  0.68881049  0.53887774  0.52850330  1
  O  O65  1  0.84943841  0.31507889  0.52927703  1
  O  O66  1  0.52672702  0.68776279  0.97294633  1
  O  O67  1  0.15489147  0.45807671  0.97565443  1
  O  O68  1  0.30164403  0.82462786  0.97259661  1
  O  O69  1  0.54400199  0.85669199  0.47530453  1
  O  O70  1  0.31902002  0.46293749  0.47060462  1
  O  O71  1  0.15804078  0.69215295  0.47037635  1
  O  O72  1  0.14442480  0.65448109  0.35331312  1
  O  O73  1  0.50121415  0.84763753  0.36344013  1
  O  O74  1  0.34439474  0.48737562  0.35832288  1
  O  O75  1  0.14384133  0.50363745  0.86589513  1
  O  O76  1  0.36294988  0.86770936  0.85797302  1
  O  O77  1  0.50957161  0.64438441  0.86252655  1
  O  O78  1  0.02966112  0.84305406  0.40890292  1
  O  O79  1  0.80160301  0.97461370  0.41038289  1
  O  O80  1  0.17300570  0.19523386  0.40944644  1
  O  O81  1  0.02884005  0.19810795  0.90999079  1
  O  O82  1  0.15534195  0.96900509  0.91184628  1
  O  O83  1  0.80357509  0.82939847  0.91340094  1
  O  O84  1  0.96457518  0.16277842  0.58853212  1
  O  O85  1  0.17951802  0.01690587  0.58662798  1
  O  O86  1  0.82742261  0.81034209  0.58757366  1
  O  O87  1  0.97612033  0.81107184  0.08393767  1
  O  O88  1  0.82773008  0.03715608  0.08522429  1
  O  O89  1  0.20348269  0.17849239  0.08569079  1
  O  O90  1  0.67629203  0.16071291  0.75324594  1
  O  O91  1  0.46366240  0.30620026  0.75121972  1
  O  O92  1  0.84135786  0.53364785  0.75221577  1
  O  O93  1  0.68296382  0.52025306  0.23903458  1
  O  O94  1  0.83124071  0.32980488  0.23926701  1
  O  O95  1  0.48119932  0.16437471  0.24008916  1
  O  O96  1  0.64392361  0.50690180  0.92259594  1
  O  O97  1  0.86803157  0.36664814  0.92122942  1
  O  O98  1  0.50683789  0.15079901  0.92493954  1
  O  O99  1  0.62765527  0.12869766  0.41664156  1
  O  O100  1  0.49409804  0.35559477  0.41432712  1
  O  O101  1  0.85232498  0.49197100  0.41353433  1
  O  O102  1  0.36739222  0.50246904  0.07730649  1
  O  O103  1  0.14445824  0.62887295  0.07323104  1
  O  O104  1  0.49787504  0.86471996  0.07478592  1
  O  O105  1  0.36413448  0.85383010  0.58197500  1
  O  O106  1  0.50655565  0.64551940  0.58133261  1
  O  O107  1  0.14138149  0.48687836  0.58115183  1
  O  O108  1  0.32281125  0.84042845  0.25570725  1
  O  O109  1  0.52082670  0.68334614  0.25689255  1
  O  O110  1  0.16910847  0.49656409  0.25444961  1
  O  O111  1  0.30172939  0.47300960  0.76338279  1
  O  O112  1  0.16805428  0.69199338  0.76212758  1
  O  O113  1  0.51128292  0.82125125  0.76105613  1
