# generated using pymatgen
data_Na14Nb4Zn4Si9(SO16)3
_symmetry_space_group_name_H-M   'P 1'
_cell_length_a   18.35828855
_cell_length_b   9.14239524
_cell_length_c   22.38516740
_cell_angle_alpha   90.14993452
_cell_angle_beta   89.86356376
_cell_angle_gamma   119.94777137
_symmetry_Int_Tables_number   1
_chemical_formula_structural   Na14Nb4Zn4Si9(SO16)3
_chemical_formula_sum   'Na42 Nb12 Zn12 Si27 S9 O144'
_cell_volume   3255.43977590
_cell_formula_units_Z   3
loop_
 _symmetry_equiv_pos_site_id
 _symmetry_equiv_pos_as_xyz
  1  'x, y, z'
loop_
 _atom_site_type_symbol
 _atom_site_label
 _atom_site_symmetry_multiplicity
 _atom_site_fract_x
 _atom_site_fract_y
 _atom_site_fract_z
 _atom_site_occupancy
  Na  Na0  1  0.81678827  0.99335126  0.25711662  1
  Na  Na1  1  0.17460508  0.34979575  0.24985957  1
  Na  Na2  1  0.67016368  0.36046850  0.25192683  1
  Na  Na3  1  0.00590383  0.64950199  0.24695858  1
  Na  Na4  1  0.51127089  0.64411853  0.25196195  1
  Na  Na5  1  0.31695016  0.63995014  0.75957984  1
  Na  Na6  1  0.01196659  0.37748130  0.75588336  1
  Na  Na7  1  0.50512296  0.36727985  0.74898025  1
  Na  Na8  1  0.17190277  0.98021834  0.75558823  1
  Na  Na9  1  0.67052895  0.99004726  0.75336009  1
  Na  Na10  1  0.14433175  0.31128516  0.58653441  1
  Na  Na11  1  0.64227334  0.31246484  0.58762246  1
  Na  Na12  1  0.34040039  0.98412200  0.58302657  1
  Na  Na13  1  0.83964032  0.97121560  0.59162483  1
  Na  Na14  1  0.14458782  0.97651150  0.08766675  1
  Na  Na15  1  0.63751546  0.96934544  0.08645099  1
  Na  Na16  1  0.34505192  0.70668675  0.08923515  1
  Na  Na17  1  0.83939080  0.69907785  0.08011754  1
  Na  Na18  1  0.47771613  0.66464675  0.91924487  1
  Na  Na19  1  0.97604201  0.64559534  0.92102006  1
  Na  Na20  1  0.35290827  0.04763209  0.91584001  1
  Na  Na21  1  0.84864872  0.04544809  0.92018777  1
  Na  Na22  1  0.17237901  0.29536671  0.92491198  1
  Na  Na23  1  0.66686591  0.28040930  0.91833565  1
  Na  Na24  1  0.47625994  0.30734727  0.41937475  1
  Na  Na25  1  0.98098159  0.29285196  0.40970775  1
  Na  Na26  1  0.16750854  0.05435081  0.41469804  1
  Na  Na27  1  0.67005112  0.04595685  0.42183874  1
  Na  Na28  1  0.35002644  0.65095679  0.41688813  1
  Na  Na29  1  0.85196335  0.66185705  0.41245759  1
  Na  Na30  1  0.01060087  0.99241313  0.49943579  1
  Na  Na31  1  0.50566928  0.00045076  0.50617981  1
  Na  Na32  1  0.00603125  0.01246896  0.00874850  1
  Na  Na33  1  0.50837333  0.01391743  0.00500452  1
  Na  Na34  1  0.33285984  0.33223288  0.84379760  1
  Na  Na35  1  0.83280075  0.33832773  0.84539278  1
  Na  Na36  1  0.33156468  0.32330592  0.33954475  1
  Na  Na37  1  0.83297997  0.33341631  0.33924544  1
  Na  Na38  1  0.16816642  0.66668265  0.16854294  1
  Na  Na39  1  0.65278501  0.64763096  0.17086045  1
  Na  Na40  1  0.15604724  0.66116485  0.67429549  1
  Na  Na41  1  0.66565474  0.66800991  0.67091042  1
  Nb  Nb42  1  0.50261846  0.00835387  0.35125172  1
  Nb  Nb43  1  0.00189508  0.99520538  0.85253869  1
  Nb  Nb44  1  0.33337659  0.32827280  0.68494439  1
  Nb  Nb45  1  0.83111081  0.32577773  0.69202250  1
  Nb  Nb46  1  0.33723348  0.34766587  0.18916253  1
  Nb  Nb47  1  0.83392141  0.33762500  0.18400740  1
  Nb  Nb48  1  0.15476335  0.65021715  0.02071613  1
  Nb  Nb49  1  0.65769893  0.64591783  0.01932944  1
  Nb  Nb50  1  0.16487097  0.68081766  0.51604528  1
  Nb  Nb51  1  0.65382199  0.65926904  0.52051774  1
  Nb  Nb52  1  0.16620324  0.66442696  0.31267703  1
  Nb  Nb53  1  0.66725017  0.66844904  0.81414786  1
  Zn  Zn54  1  0.01786482  0.03458116  0.34859136  1
  Zn  Zn55  1  0.51725848  0.00063193  0.85146989  1
  Zn  Zn56  1  0.00822582  0.00371365  0.65932725  1
  Zn  Zn57  1  0.52082471  0.01302768  0.65083721  1
  Zn  Zn58  1  0.02196976  0.02718180  0.15183820  1
  Zn  Zn59  1  0.50614745  0.99949281  0.15308874  1
  Zn  Zn60  1  0.33369934  0.33301323  0.98654479  1
  Zn  Zn61  1  0.83107605  0.34593192  0.97974773  1
  Zn  Zn62  1  0.33028873  0.31598329  0.47971265  1
  Zn  Zn63  1  0.82914539  0.34084396  0.48065500  1
  Zn  Zn64  1  0.65316246  0.64680749  0.31705141  1
  Zn  Zn65  1  0.15426711  0.65969753  0.81924895  1
  Si  Si66  1  0.14965265  0.99947512  0.24939038  1
  Si  Si67  1  0.65058027  0.99589459  0.24856844  1
  Si  Si68  1  0.35481338  0.71584186  0.24719011  1
  Si  Si69  1  0.99630516  0.28530937  0.25184813  1
  Si  Si70  1  0.49958613  0.29059795  0.24571031  1
  Si  Si71  1  0.14886249  0.30291331  0.74767726  1
  Si  Si72  1  0.64629005  0.29859895  0.74944414  1
  Si  Si73  1  0.00144519  0.70661962  0.74702450  1
  Si  Si74  1  0.49690922  0.70875729  0.75137099  1
  Si  Si75  1  0.85572713  0.99297228  0.74616797  1
  Si  Si76  1  0.47724798  0.32313244  0.58004854  1
  Si  Si77  1  0.18177970  0.03660617  0.58021821  1
  Si  Si78  1  0.69030229  0.04259456  0.57885893  1
  Si  Si79  1  0.47922732  0.62671730  0.07918920  1
  Si  Si80  1  0.97757912  0.63175483  0.08013852  1
  Si  Si81  1  0.18893482  0.33651930  0.07957524  1
  Si  Si82  1  0.68440630  0.33029328  0.07915479  1
  Si  Si83  1  0.81233198  0.67122973  0.91775446  1
  Si  Si84  1  0.01549327  0.36356933  0.91376635  1
  Si  Si85  1  0.51582923  0.36240216  0.91270595  1
  Si  Si86  1  0.17073588  0.96061786  0.91341976  1
  Si  Si87  1  0.66588950  0.95676880  0.91906350  1
  Si  Si88  1  0.31408615  0.95852188  0.41459340  1
  Si  Si89  1  0.16528961  0.37422921  0.41951385  1
  Si  Si90  1  0.66943096  0.38118491  0.41289772  1
  Si  Si91  1  0.01487117  0.66471839  0.41384779  1
  Si  Si92  1  0.51488405  0.66731330  0.41375720  1
  S  S93  1  0.85339577  0.70504128  0.24876970  1
  S  S94  1  0.35341323  0.00141973  0.74722238  1
  S  S95  1  0.98029263  0.33950288  0.58136454  1
  S  S96  1  0.33104624  0.62598103  0.58355195  1
  S  S97  1  0.83346858  0.62483117  0.58126388  1
  S  S98  1  0.33204651  0.03984367  0.08082363  1
  S  S99  1  0.83216214  0.03815365  0.08313227  1
  S  S100  1  0.31065218  0.67156189  0.91621293  1
  S  S101  1  0.81193201  0.95285299  0.41813973  1
  O  O102  1  0.11776554  0.05137596  0.30939365  1
  O  O103  1  0.60100917  0.03278977  0.30702624  1
  O  O104  1  0.41760936  0.80764189  0.30627161  1
  O  O105  1  0.90349282  0.77575078  0.30331893  1
  O  O106  1  0.48764648  0.17419391  0.30916190  1
  O  O107  1  0.97076009  0.17328677  0.31297061  1
  O  O108  1  0.09943629  0.16632493  0.80497794  1
  O  O109  1  0.61732868  0.18058510  0.80803902  1
  O  O110  1  0.47061308  0.77039591  0.81187690  1
  O  O111  1  0.98607139  0.79669095  0.80845644  1
  O  O112  1  0.40389148  0.03269430  0.80233498  1
  O  O113  1  0.91821292  0.02889114  0.80460227  1
  O  O114  1  0.39364918  0.98623739  0.69342120  1
  O  O115  1  0.89389534  0.97507643  0.68444012  1
  O  O116  1  0.09154469  0.23317674  0.68865714  1
  O  O117  1  0.59079438  0.23509891  0.68960502  1
  O  O118  1  0.02134774  0.82817771  0.69181053  1
  O  O119  1  0.51812678  0.82875254  0.69458983  1
  O  O120  1  0.38990660  0.81221567  0.18613912  1
  O  O121  1  0.89421021  0.80274682  0.19436722  1
  O  O122  1  0.01749588  0.20499590  0.19590229  1
  O  O123  1  0.51895937  0.19939054  0.19328707  1
  O  O124  1  0.08946670  0.94100695  0.19132163  1
  O  O125  1  0.59272294  0.95162360  0.19062211  1
  O  O126  1  0.42957532  0.35246778  0.63997131  1
  O  O127  1  0.93950297  0.35850348  0.63681469  1
  O  O128  1  0.24917897  0.13952726  0.63862982  1
  O  O129  1  0.75252418  0.14174943  0.63885645  1
  O  O130  1  0.32083325  0.51406509  0.63738504  1
  O  O131  1  0.82415411  0.51471214  0.63320195  1
  O  O132  1  0.43088666  0.50431724  0.13948246  1
  O  O133  1  0.93073052  0.50693914  0.14022198  1
  O  O134  1  0.31959077  0.12728253  0.13272728  1
  O  O135  1  0.82321373  0.13181252  0.13770427  1
  O  O136  1  0.25117974  0.36457043  0.13910448  1
  O  O137  1  0.75133736  0.35872729  0.13839145  1
  O  O138  1  0.22894143  0.30827548  0.02006615  1
  O  O139  1  0.72878393  0.30365776  0.02163670  1
  O  O140  1  0.42548697  0.53965464  0.02031319  1
  O  O141  1  0.92543691  0.54563109  0.02097403  1
  O  O142  1  0.34039542  0.12894697  0.02436081  1
  O  O143  1  0.84274657  0.13505463  0.02900865  1
  O  O144  1  0.22694860  0.14767524  0.52201047  1
  O  O145  1  0.73547849  0.15263981  0.52077871  1
  O  O146  1  0.34088876  0.54923142  0.52883922  1
  O  O147  1  0.84362668  0.55380650  0.52529757  1
  O  O148  1  0.42440942  0.30368247  0.52115893  1
  O  O149  1  0.93213085  0.32771750  0.52784739  1
  O  O150  1  0.26415639  0.68338247  0.97058516  1
  O  O151  1  0.76811325  0.70024296  0.97768782  1
  O  O152  1  0.08179955  0.46797509  0.97253007  1
  O  O153  1  0.58191758  0.46785166  0.97126843  1
  O  O154  1  0.15565340  0.83039868  0.97237216  1
  O  O155  1  0.65838517  0.83093710  0.97594876  1
  O  O156  1  0.26648626  0.83910681  0.47598566  1
  O  O157  1  0.76514973  0.84665320  0.47237248  1
  O  O158  1  0.15748526  0.48308442  0.47851863  1
  O  O159  1  0.65679711  0.48279883  0.47302032  1
  O  O160  1  0.08405865  0.69692688  0.47158740  1
  O  O161  1  0.58112014  0.69494912  0.47340058  1
  O  O162  1  0.06610513  0.64130212  0.35766564  1
  O  O163  1  0.55645779  0.63618398  0.35638403  1
  O  O164  1  0.24867960  0.84492443  0.36193362  1
  O  O165  1  0.76214492  0.87781232  0.36362532  1
  O  O166  1  0.17148156  0.49134567  0.36141087  1
  O  O167  1  0.68759510  0.49706400  0.35494860  1
  O  O168  1  0.05520230  0.47449162  0.85533660  1
  O  O169  1  0.56997916  0.49085368  0.85697249  1
  O  O170  1  0.18727222  0.88137568  0.85427670  1
  O  O171  1  0.67246342  0.85551311  0.85903610  1
  O  O172  1  0.26143819  0.65140599  0.86148569  1
  O  O173  1  0.74958296  0.65535816  0.86209936  1
  O  O174  1  0.00707261  0.83225168  0.41307723  1
  O  O175  1  0.51623181  0.84982803  0.41386593  1
  O  O176  1  0.40445772  0.96331215  0.41150591  1
  O  O177  1  0.89387175  0.95945294  0.41831085  1
  O  O178  1  0.07779165  0.19593723  0.42070095  1
  O  O179  1  0.57947640  0.19577860  0.41238469  1
  O  O180  1  0.01630740  0.18275032  0.91254784  1
  O  O181  1  0.50962848  0.18024997  0.91098313  1
  O  O182  1  0.07982104  0.96470747  0.91078985  1
  O  O183  1  0.57867024  0.96016082  0.92031985  1
  O  O184  1  0.39302145  0.82789765  0.91689028  1
  O  O185  1  0.90466603  0.84594344  0.90981902  1
  O  O186  1  0.48837446  0.15985893  0.58810173  1
  O  O187  1  0.98862801  0.18681034  0.58467308  1
  O  O188  1  0.09135124  0.02214447  0.58766847  1
  O  O189  1  0.59845987  0.02273117  0.58403994  1
  O  O190  1  0.39997091  0.79735431  0.59173261  1
  O  O191  1  0.90427275  0.80002554  0.58710366  1
  O  O192  1  0.49051576  0.81292089  0.08570148  1
  O  O193  1  0.98795016  0.81666160  0.08851732  1
  O  O194  1  0.40290290  0.00971616  0.08696076  1
  O  O195  1  0.90199922  0.00648046  0.09187142  1
  O  O196  1  0.09639452  0.17373596  0.08570497  1
  O  O197  1  0.59368188  0.16894643  0.08750091  1
  O  O198  1  0.34487779  0.16354597  0.74354424  1
  O  O199  1  0.84733387  0.17230128  0.74292605  1
  O  O200  1  0.24147933  0.30520666  0.74173061  1
  O  O201  1  0.74208751  0.31760297  0.73693813  1
  O  O202  1  0.41356758  0.51156780  0.73948387  1
  O  O203  1  0.91576062  0.51522976  0.73907655  1
  O  O204  1  0.34636915  0.52184114  0.24619515  1
  O  O205  1  0.84525276  0.52720427  0.24415998  1
  O  O206  1  0.41403032  0.31044813  0.24208027  1
  O  O207  1  0.91427077  0.31809526  0.24112982  1
  O  O208  1  0.24222812  0.16980587  0.23626937  1
  O  O209  1  0.74312974  0.17957331  0.24356152  1
  O  O210  1  0.32039903  0.52033542  0.91987139  1
  O  O211  1  0.82130658  0.50605984  0.91446932  1
  O  O212  1  0.42767093  0.36028612  0.91557852  1
  O  O213  1  0.92332180  0.33789298  0.92377982  1
  O  O214  1  0.24911337  0.15036517  0.92086447  1
  O  O215  1  0.75098532  0.13677064  0.91758741  1
  O  O216  1  0.32138173  0.13970589  0.41400388  1
  O  O217  1  0.82429620  0.12589810  0.42365349  1
  O  O218  1  0.25028103  0.36467849  0.41900898  1
  O  O219  1  0.74822167  0.34809247  0.41888378  1
  O  O220  1  0.42300730  0.50772706  0.42390970  1
  O  O221  1  0.92733835  0.48756405  0.42105508  1
  O  O222  1  0.18844031  0.52223809  0.07633498  1
  O  O223  1  0.68831572  0.51870501  0.07916940  1
  O  O224  1  0.07468568  0.64954585  0.07808162  1
  O  O225  1  0.57618837  0.64603968  0.07781759  1
  O  O226  1  0.25055223  0.86704733  0.07904200  1
  O  O227  1  0.75039819  0.87305140  0.08420731  1
  O  O228  1  0.18318949  0.85123902  0.57999085  1
  O  O229  1  0.68963170  0.85614781  0.57725112  1
  O  O230  1  0.24856974  0.62845987  0.58373408  1
  O  O231  1  0.75187727  0.63139965  0.58036717  1
  O  O232  1  0.06806704  0.49307251  0.58007825  1
  O  O233  1  0.57461307  0.50021670  0.57828557  1
  O  O234  1  0.15952626  0.82977908  0.25927316  1
  O  O235  1  0.67192874  0.84635002  0.25979661  1
  O  O236  1  0.25645770  0.66881471  0.25924104  1
  O  O237  1  0.76777407  0.67891884  0.25227970  1
  O  O238  1  0.08011030  0.47987217  0.25813295  1
  O  O239  1  0.58000422  0.48036517  0.25178085  1
  O  O240  1  0.17092438  0.49581290  0.75828393  1
  O  O241  1  0.65889280  0.48903905  0.75747918  1
  O  O242  1  0.08078479  0.67654260  0.75337492  1
  O  O243  1  0.57977721  0.67950785  0.75757149  1
  O  O244  1  0.26768929  0.85676740  0.75126575  1
  O  O245  1  0.75740244  0.84466416  0.75665755  1
