# generated using pymatgen
data_Na6Hf4Sc4Si5S7O48
_symmetry_space_group_name_H-M   'P 1'
_cell_length_a   17.98590461
_cell_length_b   8.96009690
_cell_length_c   23.13829443
_cell_angle_alpha   89.96324520
_cell_angle_beta   89.82871956
_cell_angle_gamma   119.89650452
_symmetry_Int_Tables_number   1
_chemical_formula_structural   Na6Hf4Sc4Si5S7O48
_chemical_formula_sum   'Na18 Hf12 Sc12 Si15 S21 O144'
_cell_volume   3232.62770486
_cell_formula_units_Z   3
loop_
 _symmetry_equiv_pos_site_id
 _symmetry_equiv_pos_as_xyz
  1  'x, y, z'
loop_
 _atom_site_type_symbol
 _atom_site_label
 _atom_site_symmetry_multiplicity
 _atom_site_fract_x
 _atom_site_fract_y
 _atom_site_fract_z
 _atom_site_occupancy
  Na  Na0  1  0.00013192  0.62720044  0.25719974  1
  Na  Na1  1  0.49668688  0.63098678  0.25118325  1
  Na  Na2  1  0.99697762  0.36730716  0.75013235  1
  Na  Na3  1  0.50152162  0.36288830  0.75492254  1
  Na  Na4  1  0.66425094  0.30555760  0.91767726  1
  Na  Na5  1  0.16505306  0.01919628  0.43053482  1
  Na  Na6  1  0.00192475  0.99544695  0.50672935  1
  Na  Na7  1  0.50776392  0.99506862  0.50388152  1
  Na  Na8  1  0.00863187  0.01724577  0.99618272  1
  Na  Na9  1  0.50337197  0.01483962  0.99879135  1
  Na  Na10  1  0.33040735  0.31924418  0.83769596  1
  Na  Na11  1  0.83004559  0.32999911  0.82030768  1
  Na  Na12  1  0.34223787  0.34801003  0.32645625  1
  Na  Na13  1  0.82542443  0.33563180  0.34112262  1
  Na  Na14  1  0.18918960  0.65570178  0.16683888  1
  Na  Na15  1  0.67450951  0.65280877  0.16234863  1
  Na  Na16  1  0.17658818  0.69989874  0.66644473  1
  Na  Na17  1  0.68606217  0.70095587  0.67530549  1
  Hf  Hf18  1  0.49879460  0.01210056  0.35188438  1
  Hf  Hf19  1  0.99895285  0.98372009  0.85113406  1
  Hf  Hf20  1  0.00050186  0.98818359  0.64936129  1
  Hf  Hf21  1  0.50625553  0.99946685  0.64416095  1
  Hf  Hf22  1  0.00115666  0.01216263  0.14100282  1
  Hf  Hf23  1  0.49967027  0.01290156  0.14812416  1
  Hf  Hf24  1  0.32823877  0.32383837  0.97774959  1
  Hf  Hf25  1  0.82933943  0.33513521  0.47892616  1
  Hf  Hf26  1  0.16410677  0.66518418  0.01809492  1
  Hf  Hf27  1  0.66561994  0.65696439  0.02175763  1
  Hf  Hf28  1  0.16486059  0.67459967  0.52361636  1
  Hf  Hf29  1  0.66358067  0.66006467  0.51961253  1
  Sc  Sc30  1  0.99749908  0.99247550  0.35671989  1
  Sc  Sc31  1  0.50297967  0.01148296  0.85363463  1
  Sc  Sc32  1  0.32382149  0.33249745  0.67926777  1
  Sc  Sc33  1  0.82281509  0.31330800  0.69226758  1
  Sc  Sc34  1  0.32989256  0.34453923  0.18838346  1
  Sc  Sc35  1  0.82234927  0.31586150  0.17899826  1
  Sc  Sc36  1  0.83018827  0.31882762  0.98615274  1
  Sc  Sc37  1  0.33266715  0.34601984  0.48827863  1
  Sc  Sc38  1  0.16999173  0.66403190  0.31429910  1
  Sc  Sc39  1  0.66644085  0.64533115  0.31414370  1
  Sc  Sc40  1  0.16791981  0.68904642  0.81427484  1
  Sc  Sc41  1  0.66709338  0.66206483  0.81043007  1
  Si  Si42  1  0.35307106  0.71239987  0.25091043  1
  Si  Si43  1  0.49977351  0.30068176  0.24904203  1
  Si  Si44  1  0.64419494  0.29296679  0.75178230  1
  Si  Si45  1  0.00241448  0.70053340  0.74857792  1
  Si  Si46  1  0.85430240  0.99587498  0.75123988  1
  Si  Si47  1  0.18261876  0.04418426  0.58038400  1
  Si  Si48  1  0.69072957  0.04032655  0.58328476  1
  Si  Si49  1  0.33295222  0.63343847  0.58356037  1
  Si  Si50  1  0.83012675  0.03499387  0.08321327  1
  Si  Si51  1  0.19066661  0.34238352  0.08408895  1
  Si  Si52  1  0.68253665  0.32393973  0.08049094  1
  Si  Si53  1  0.51992715  0.37644325  0.91363681  1
  Si  Si54  1  0.16231608  0.96012436  0.91794923  1
  Si  Si55  1  0.66338294  0.36491633  0.41725960  1
  Si  Si56  1  0.02139001  0.66124473  0.41160677  1
  S  S57  1  0.14268636  0.99817215  0.25101683  1
  S  S58  1  0.64628877  0.00441490  0.25155491  1
  S  S59  1  0.85742938  0.71200986  0.24950738  1
  S  S60  1  0.99860005  0.28958681  0.25048447  1
  S  S61  1  0.14682583  0.28882289  0.75171594  1
  S  S62  1  0.49629737  0.70444164  0.75056652  1
  S  S63  1  0.35568335  0.00132392  0.74880422  1
  S  S64  1  0.48021989  0.33369414  0.58472176  1
  S  S65  1  0.97734914  0.33012650  0.58272244  1
  S  S66  1  0.83300913  0.62641682  0.58236686  1
  S  S67  1  0.47800867  0.62553698  0.08347046  1
  S  S68  1  0.98135259  0.62647866  0.08618844  1
  S  S69  1  0.33176155  0.03985734  0.08326395  1
  S  S70  1  0.31134374  0.66612665  0.91641673  1
  S  S71  1  0.81349168  0.66793793  0.91784503  1
  S  S72  1  0.01956875  0.37541988  0.91541272  1
  S  S73  1  0.66747344  0.95809794  0.91648735  1
  S  S74  1  0.31308345  0.95829784  0.41716430  1
  S  S75  1  0.81086811  0.95587324  0.41601540  1
  S  S76  1  0.16799984  0.37296931  0.41573508  1
  S  S77  1  0.51954072  0.66336823  0.41504565  1
  O  O78  1  0.10277459  0.01812799  0.30505876  1
  O  O79  1  0.60322848  0.02316430  0.30387326  1
  O  O80  1  0.41537285  0.80490890  0.30715984  1
  O  O81  1  0.90957237  0.79863341  0.30168588  1
  O  O82  1  0.49204355  0.18458854  0.30624995  1
  O  O83  1  0.99070097  0.18822762  0.30272353  1
  O  O84  1  0.10379399  0.18336826  0.80408957  1
  O  O85  1  0.59978692  0.18492274  0.81187282  1
  O  O86  1  0.48438467  0.78468262  0.80287180  1
  O  O87  1  0.99462124  0.80046240  0.80602886  1
  O  O88  1  0.40696535  0.01809205  0.80115644  1
  O  O89  1  0.91697682  0.02353557  0.80724043  1
  O  O90  1  0.39640611  0.98238246  0.69601855  1
  O  O91  1  0.90531451  0.98017092  0.69395511  1
  O  O92  1  0.09392233  0.20599914  0.69921069  1
  O  O93  1  0.57807443  0.18574865  0.69873326  1
  O  O94  1  0.01807141  0.82532548  0.69238813  1
  O  O95  1  0.50075754  0.80401975  0.69772665  1
  O  O96  1  0.40376184  0.82628424  0.19343643  1
  O  O97  1  0.90214886  0.81423006  0.19735923  1
  O  O98  1  0.00466037  0.19931342  0.19799283  1
  O  O99  1  0.51460521  0.20784883  0.19257978  1
  O  O100  1  0.08582424  0.97749534  0.20114226  1
  O  O101  1  0.59343704  0.98181540  0.19922208  1
  O  O102  1  0.44291805  0.35836498  0.63825124  1
  O  O103  1  0.94432383  0.36192624  0.63653346  1
  O  O104  1  0.24297297  0.13523311  0.63616344  1
  O  O105  1  0.74752176  0.12439326  0.63984865  1
  O  O106  1  0.31959597  0.51529043  0.64047029  1
  O  O107  1  0.82150543  0.52591769  0.63440218  1
  O  O108  1  0.44372057  0.52639199  0.13779151  1
  O  O109  1  0.94390240  0.52665719  0.14011007  1
  O  O110  1  0.32038389  0.11745042  0.13537525  1
  O  O111  1  0.82016185  0.12564355  0.14137869  1
  O  O112  1  0.24590108  0.36706336  0.14177687  1
  O  O113  1  0.74226612  0.35409460  0.13732182  1
  O  O114  1  0.23675393  0.31601195  0.02771354  1
  O  O115  1  0.72844051  0.30958161  0.02120177  1
  O  O116  1  0.42345327  0.53493777  0.03332160  1
  O  O117  1  0.92773645  0.54737208  0.03521398  1
  O  O118  1  0.34377810  0.14538461  0.03068055  1
  O  O119  1  0.85127998  0.15883548  0.02705196  1
  O  O120  1  0.22745444  0.14632746  0.51981872  1
  O  O121  1  0.73748749  0.15903857  0.52605677  1
  O  O122  1  0.35170011  0.54802784  0.52664771  1
  O  O123  1  0.84524174  0.54543508  0.52948420  1
  O  O124  1  0.42770902  0.31347862  0.53334168  1
  O  O125  1  0.92391395  0.31391777  0.53180778  1
  O  O126  1  0.26595852  0.68309559  0.96836779  1
  O  O127  1  0.77335779  0.69138204  0.97098239  1
  O  O128  1  0.07462155  0.46564595  0.96735752  1
  O  O129  1  0.58723255  0.47870142  0.96679166  1
  O  O130  1  0.15425977  0.84203942  0.97458794  1
  O  O131  1  0.66282634  0.86033829  0.96943278  1
  O  O132  1  0.27239889  0.85502420  0.47002031  1
  O  O133  1  0.76762654  0.84855034  0.46757323  1
  O  O134  1  0.15872699  0.45614992  0.46774419  1
  O  O135  1  0.65449147  0.46705700  0.47298884  1
  O  O136  1  0.09006669  0.70085484  0.46383898  1
  O  O137  1  0.57374797  0.68147020  0.46653732  1
  O  O138  1  0.06203230  0.64199157  0.35039256  1
  O  O139  1  0.56234210  0.65252991  0.36141599  1
  O  O140  1  0.25851912  0.87227327  0.36587198  1
  O  O141  1  0.76054322  0.88028030  0.36328603  1
  O  O142  1  0.17758142  0.47478622  0.36286335  1
  O  O143  1  0.67665338  0.48064490  0.35932732  1
  O  O144  1  0.06310235  0.47250312  0.86221482  1
  O  O145  1  0.56021962  0.47984418  0.85349911  1
  O  O146  1  0.17510857  0.86959983  0.86078051  1
  O  O147  1  0.67658883  0.87639394  0.86428019  1
  O  O148  1  0.26021896  0.64002346  0.86393863  1
  O  O149  1  0.75932604  0.64266357  0.86684318  1
  O  O150  1  0.01461460  0.84114146  0.40873049  1
  O  O151  1  0.51047500  0.81891309  0.41341818  1
  O  O152  1  0.39823033  0.97141914  0.41182989  1
  O  O153  1  0.89747452  0.97213427  0.41204546  1
  O  O154  1  0.08931304  0.19782404  0.41088183  1
  O  O155  1  0.57871505  0.17286886  0.41345133  1
  O  O156  1  0.01069853  0.20198176  0.91424620  1
  O  O157  1  0.51184355  0.18364018  0.91349916  1
  O  O158  1  0.07788739  0.98284860  0.91510257  1
  O  O159  1  0.58769504  0.97194873  0.91500808  1
  O  O160  1  0.39668346  0.82095054  0.91360625  1
  O  O161  1  0.89918248  0.82535182  0.91285978  1
  O  O162  1  0.49099632  0.18057379  0.58865154  1
  O  O163  1  0.98588674  0.17412961  0.58576624  1
  O  O164  1  0.08833819  0.02900049  0.58574147  1
  O  O165  1  0.59457904  0.02093569  0.58878576  1
  O  O166  1  0.41363531  0.82787989  0.59169879  1
  O  O167  1  0.91013140  0.80235501  0.58549093  1
  O  O168  1  0.48635114  0.79812766  0.08770431  1
  O  O169  1  0.99396037  0.80365743  0.09287573  1
  O  O170  1  0.40908417  0.01854350  0.08658824  1
  O  O171  1  0.91320888  0.00433315  0.09176926  1
  O  O172  1  0.09429195  0.16819002  0.09084015  1
  O  O173  1  0.58820451  0.14975811  0.08674679  1
  O  O174  1  0.35066757  0.16292717  0.74570798  1
  O  O175  1  0.85196071  0.17439482  0.74716213  1
  O  O176  1  0.23228440  0.30399879  0.74789068  1
  O  O177  1  0.73805308  0.31499415  0.74653183  1
  O  O178  1  0.42242940  0.52445025  0.74599928  1
  O  O179  1  0.91880936  0.51412390  0.74272080  1
  O  O180  1  0.34665784  0.52361155  0.24711554  1
  O  O181  1  0.85210303  0.54051521  0.24665145  1
  O  O182  1  0.41447199  0.31788379  0.24423824  1
  O  O183  1  0.92338470  0.31642347  0.24668660  1
  O  O184  1  0.22867166  0.14780298  0.24531589  1
  O  O185  1  0.73215744  0.16128929  0.24794375  1
  O  O186  1  0.32159655  0.51220820  0.92374974  1
  O  O187  1  0.82311935  0.51376972  0.92314808  1
  O  O188  1  0.42648622  0.35898317  0.92626901  1
  O  O189  1  0.93616577  0.36724382  0.92136917  1
  O  O190  1  0.24862742  0.15057508  0.92317653  1
  O  O191  1  0.74263823  0.13824437  0.91961100  1
  O  O192  1  0.32193005  0.13095075  0.42099680  1
  O  O193  1  0.82331492  0.13179538  0.42295575  1
  O  O194  1  0.24321110  0.34604691  0.41845008  1
  O  O195  1  0.74990365  0.34776061  0.42265872  1
  O  O196  1  0.43501047  0.50459785  0.41991008  1
  O  O197  1  0.92792930  0.49431525  0.42338806  1
  O  O198  1  0.17520848  0.50715639  0.07561342  1
  O  O199  1  0.66901304  0.49263702  0.07700418  1
  O  O200  1  0.06828314  0.64638327  0.07879899  1
  O  O201  1  0.56535753  0.64824815  0.07493727  1
  O  O202  1  0.25513662  0.86454928  0.07570424  1
  O  O203  1  0.74473162  0.84825103  0.07533365  1
  O  O204  1  0.16830767  0.84676734  0.57685648  1
  O  O205  1  0.67548220  0.84533045  0.57210951  1
  O  O206  1  0.24527334  0.64282053  0.57338716  1
  O  O207  1  0.75621964  0.64740826  0.57414284  1
  O  O208  1  0.06531433  0.48191899  0.57276269  1
  O  O209  1  0.56769657  0.48895103  0.57745152  1
  O  O210  1  0.14694457  0.83620378  0.25321857  1
  O  O211  1  0.65327596  0.84793927  0.25673941  1
  O  O212  1  0.25847613  0.69479478  0.25619952  1
  O  O213  1  0.77212576  0.69662517  0.25280029  1
  O  O214  1  0.07812879  0.46221279  0.25146294  1
  O  O215  1  0.58297617  0.49731936  0.25406199  1
  O  O216  1  0.15302228  0.45865847  0.75687271  1
  O  O217  1  0.64724151  0.47906981  0.75221419  1
  O  O218  1  0.08669019  0.67391443  0.75369446  1
  O  O219  1  0.57649491  0.69663647  0.75220753  1
  O  O220  1  0.26904697  0.84773191  0.75324842  1
  O  O221  1  0.76014132  0.82920404  0.75748550  1
