# generated using pymatgen
data_MgFe2(SO5)2
_symmetry_space_group_name_H-M   'P 1'
_cell_length_a   5.58525210
_cell_length_b   5.33190829
_cell_length_c   7.63364753
_cell_angle_alpha   111.57760182
_cell_angle_beta   113.63290727
_cell_angle_gamma   94.85217355
_symmetry_Int_Tables_number   1
_chemical_formula_structural   MgFe2(SO5)2
_chemical_formula_sum   'Mg1 Fe2 S2 O10'
_cell_volume   186.34938781
_cell_formula_units_Z   1
loop_
 _symmetry_equiv_pos_site_id
 _symmetry_equiv_pos_as_xyz
  1  'x, y, z'
loop_
 _atom_site_type_symbol
 _atom_site_label
 _atom_site_symmetry_multiplicity
 _atom_site_fract_x
 _atom_site_fract_y
 _atom_site_fract_z
 _atom_site_occupancy
  Mg  Mg0  1  0.60026900  0.47828100  0.70919400  1
  Fe  Fe1  1  0.01455300  0.51482200  0.48943400  1
  Fe  Fe2  1  0.48691500  0.00298800  0.01639700  1
  S  S3  1  0.13595600  0.91042800  0.25360500  1
  S  S4  1  0.87901000  0.08802700  0.75978500  1
  O  O5  1  0.68968200  0.33113700  0.25444700  1
  O  O6  1  0.33508300  0.66845800  0.75750100  1
  O  O7  1  0.85300900  0.83114500  0.07878900  1
  O  O8  1  0.23021100  0.22297700  0.39829200  1
  O  O9  1  0.16513700  0.18083900  0.92188400  1
  O  O10  1  0.79115300  0.77201200  0.64213000  1
  O  O11  1  0.15480900  0.77021500  0.39070500  1
  O  O12  1  0.31897700  0.83420000  0.15976500  1
  O  O13  1  0.83853500  0.21882900  0.61037500  1
  O  O14  1  0.69420000  0.18814100  0.85234000  1
