# generated using pymatgen
data_NbBi4ClO8
_symmetry_space_group_name_H-M   'P 1'
_cell_length_a   5.50261782
_cell_length_b   5.55825167
_cell_length_c   28.88222052
_cell_angle_alpha   90.00000000
_cell_angle_beta   90.00000000
_cell_angle_gamma   90.00000000
_symmetry_Int_Tables_number   1
_chemical_formula_structural   NbBi4ClO8
_chemical_formula_sum   'Nb4 Bi16 Cl4 O32'
_cell_volume   883.36082823
_cell_formula_units_Z   4
loop_
 _symmetry_equiv_pos_site_id
 _symmetry_equiv_pos_as_xyz
  1  'x, y, z'
loop_
 _atom_site_type_symbol
 _atom_site_label
 _atom_site_symmetry_multiplicity
 _atom_site_fract_x
 _atom_site_fract_y
 _atom_site_fract_z
 _atom_site_occupancy
  Nb  Nb0  1  0.00000000  0.98551008  0.75000000  1
  Nb  Nb1  1  0.50000000  0.48551008  0.75000000  1
  Nb  Nb2  1  0.00000000  0.01448992  0.25000000  1
  Nb  Nb3  1  0.50000000  0.51448992  0.25000000  1
  Bi  Bi4  1  0.49145888  0.49422308  0.06794094  1
  Bi  Bi5  1  0.47998578  0.04928683  0.84334281  1
  Bi  Bi6  1  0.97998578  0.54928683  0.65665719  1
  Bi  Bi7  1  0.47998578  0.95071317  0.34334281  1
  Bi  Bi8  1  0.97998578  0.45071317  0.15665719  1
  Bi  Bi9  1  0.50854112  0.50577692  0.93205906  1
  Bi  Bi10  1  0.00854112  0.00577692  0.56794094  1
  Bi  Bi11  1  0.50854112  0.49422308  0.43205906  1
  Bi  Bi12  1  0.02001422  0.45071317  0.34334281  1
  Bi  Bi13  1  0.52001422  0.04928683  0.65665719  1
  Bi  Bi14  1  0.02001422  0.54928683  0.84334281  1
  Bi  Bi15  1  0.52001422  0.95071317  0.15665719  1
  Bi  Bi16  1  0.99145888  0.00577692  0.93205906  1
  Bi  Bi17  1  0.49145888  0.50577692  0.56794094  1
  Bi  Bi18  1  0.99145888  0.99422308  0.43205906  1
  Bi  Bi19  1  0.00854112  0.99422308  0.06794094  1
  Cl  Cl20  1  0.50000000  0.00000000  0.50000000  1
  Cl  Cl21  1  0.00000000  0.50000000  0.50000000  1
  Cl  Cl22  1  0.50000000  0.00000000  -0.00000000  1
  Cl  Cl23  1  0.00000000  0.50000000  -0.00000000  1
  O  O24  1  0.24649206  0.30367619  0.23301194  1
  O  O25  1  0.74649206  0.19632381  0.76698806  1
  O  O26  1  0.24649206  0.69632381  0.73301194  1
  O  O27  1  0.74649206  0.80367619  0.26698806  1
  O  O28  1  0.75350794  0.30367619  0.26698806  1
  O  O29  1  0.25350794  0.19632381  0.73301194  1
  O  O30  1  0.75350794  0.69632381  0.76698806  1
  O  O31  1  0.25350794  0.80367619  0.23301194  1
  O  O32  1  0.39571822  0.57903623  0.31529663  1
  O  O33  1  0.89571822  0.92096377  0.68470337  1
  O  O34  1  0.39571822  0.42096377  0.81529663  1
  O  O35  1  0.89571822  0.07903623  0.18470337  1
  O  O36  1  0.60428178  0.57903623  0.18470337  1
  O  O37  1  0.10428178  0.92096377  0.81529663  1
  O  O38  1  0.60428178  0.42096377  0.68470337  1
  O  O39  1  0.10428178  0.07903623  0.31529663  1
  O  O40  1  0.75027581  0.25698794  0.10464771  1
  O  O41  1  0.25027581  0.24301206  0.89535229  1
  O  O42  1  0.75027581  0.74301206  0.60464771  1
  O  O43  1  0.25027581  0.75698794  0.39535229  1
  O  O44  1  0.24544597  0.24598357  0.10602171  1
  O  O45  1  0.74544597  0.25401643  0.89397829  1
  O  O46  1  0.24544597  0.75401643  0.60602171  1
  O  O47  1  0.74544597  0.74598357  0.39397829  1
  O  O48  1  0.75455403  0.24598357  0.39397829  1
  O  O49  1  0.25455403  0.25401643  0.60602171  1
  O  O50  1  0.75455403  0.75401643  0.89397829  1
  O  O51  1  0.25455403  0.74598357  0.10602171  1
  O  O52  1  0.24972419  0.25698794  0.39535229  1
  O  O53  1  0.74972419  0.24301206  0.60464771  1
  O  O54  1  0.24972419  0.74301206  0.89535229  1
  O  O55  1  0.74972419  0.75698794  0.10464771  1
