# generated using pymatgen
data_Na2ZnGaP(SO6)2
_symmetry_space_group_name_H-M   'P 1'
_cell_length_a   8.74653869
_cell_length_b   8.72709179
_cell_length_c   21.98320859
_cell_angle_alpha   90.37064481
_cell_angle_beta   90.00000000
_cell_angle_gamma   120.07374025
_symmetry_Int_Tables_number   1
_chemical_formula_structural   Na2ZnGaP(SO6)2
_chemical_formula_sum   'Na12 Zn6 Ga6 P6 S12 O72'
_cell_volume   1452.08539934
_cell_formula_units_Z   6
loop_
 _symmetry_equiv_pos_site_id
 _symmetry_equiv_pos_as_xyz
  1  'x, y, z'
loop_
 _atom_site_type_symbol
 _atom_site_label
 _atom_site_symmetry_multiplicity
 _atom_site_fract_x
 _atom_site_fract_y
 _atom_site_fract_z
 _atom_site_occupancy
  Na  Na0  1  0.99813514  0.63652561  0.24446212  1
  Na  Na1  1  0.63839047  0.63652561  0.74446212  1
  Na  Na2  1  0.66034241  0.96213467  0.58086803  1
  Na  Na3  1  0.30179326  0.96213467  0.08086803  1
  Na  Na4  1  0.69504139  0.02743611  0.91155077  1
  Na  Na5  1  0.33239372  0.02743611  0.41155077  1
  Na  Na6  1  0.98622270  0.99254796  0.49723632  1
  Na  Na7  1  0.00632526  0.99254796  0.99723632  1
  Na  Na8  1  0.66093721  0.31974947  0.83053466  1
  Na  Na9  1  0.65881326  0.31974947  0.33053466  1
  Na  Na10  1  0.33663795  0.65674368  0.16404011  1
  Na  Na11  1  0.32010473  0.65674368  0.66404011  1
  Zn  Zn12  1  0.99520282  0.00546126  0.34991702  1
  Zn  Zn13  1  0.01025844  0.00546126  0.84991702  1
  Zn  Zn14  1  0.66730023  0.32694480  0.68272112  1
  Zn  Zn15  1  0.65964558  0.32694480  0.18272112  1
  Zn  Zn16  1  0.31704265  0.66488519  0.01629509  1
  Zn  Zn17  1  0.34784155  0.66488519  0.51629509  1
  Ga  Ga18  1  0.99109693  0.98883384  0.65083794  1
  Ga  Ga19  1  0.99773691  0.98883384  0.15083794  1
  Ga  Ga20  1  0.66607141  0.34188430  0.98379677  1
  Ga  Ga21  1  0.67581389  0.34188430  0.48379677  1
  Ga  Ga22  1  0.34775629  0.68643334  0.31717771  1
  Ga  Ga23  1  0.33867604  0.68643334  0.81717771  1
  P  P24  1  0.29720047  -0.00016976  0.25224385  1
  P  P25  1  0.70262977  -0.00016976  0.75224385  1
  P  P26  1  0.67163083  0.62579129  0.58627537  1
  P  P27  1  0.95416146  0.62579129  0.08627537  1
  P  P28  1  0.33725455  0.97184445  0.92059992  1
  P  P29  1  0.63458891  0.97184445  0.42059992  1
  S  S30  1  0.70012329  0.70755018  0.25079988  1
  S  S31  1  0.00688695  0.29590302  0.24987606  1
  S  S32  1  0.28901607  0.29590302  0.74987606  1
  S  S33  1  0.00742689  0.70755018  0.75079988  1
  S  S34  1  0.96445780  0.33340541  0.58389069  1
  S  S35  1  0.36237620  0.03906675  0.58281914  1
  S  S36  1  0.67669155  0.03906675  0.08281914  1
  S  S37  1  0.36894860  0.33340541  0.08389069  1
  S  S38  1  0.62202384  0.65877731  0.91671354  1
  S  S39  1  0.03984293  0.37759450  0.91586478  1
  S  S40  1  0.33775057  0.37759450  0.41586478  1
  S  S41  1  0.03675248  0.65877731  0.41671354  1
  O  O42  1  0.21210351  0.01923821  0.31032562  1
  O  O43  1  0.81067392  0.78862826  0.30474896  1
  O  O44  1  0.98065684  0.19359055  0.30481484  1
  O  O45  1  0.21293371  0.19359055  0.80481484  1
  O  O46  1  0.97795434  0.78862826  0.80474896  1
  O  O47  1  0.80713469  0.01923821  0.81032562  1
  O  O48  1  0.78626019  0.96122363  0.69444516  1
  O  O49  1  0.18095487  0.20874219  0.69409495  1
  O  O50  1  0.03881086  0.81723167  0.69493409  1
  O  O51  1  0.77842080  0.81723167  0.19493409  1
  O  O52  1  0.02778732  0.20874219  0.19409495  1
  O  O53  1  0.17496344  0.96122363  0.19444516  1
  O  O54  1  0.88606409  0.35798384  0.63912490  1
  O  O55  1  0.47991482  0.12083654  0.63541356  1
  O  O56  1  0.65143081  0.52625261  0.64508961  1
  O  O57  1  0.87482279  0.52625261  0.14508961  1
  O  O58  1  0.64092273  0.12083654  0.13541356  1
  O  O59  1  0.47192075  0.35798384  0.13912490  1
  O  O60  1  0.44822840  0.29288680  0.02927898  1
  O  O61  1  0.83817126  0.53530251  0.02903002  1
  O  O62  1  0.70075890  0.14237907  0.02552243  1
  O  O63  1  0.44162118  0.14237907  0.52552243  1
  O  O64  1  0.69713225  0.53530251  0.52903002  1
  O  O65  1  0.84465940  0.29288680  0.52927898  1
  O  O66  1  0.53516022  0.68462930  0.96946922  1
  O  O67  1  0.14235789  0.45274037  0.97134024  1
  O  O68  1  0.31416481  0.86985245  0.97928664  1
  O  O69  1  0.55568664  0.86985245  0.47928664  1
  O  O70  1  0.31038148  0.45274037  0.47134024  1
  O  O71  1  0.14946808  0.68462930  0.46946922  1
  O  O72  1  0.11356134  0.63171814  0.35866413  1
  O  O73  1  0.50468355  0.88484672  0.36502794  1
  O  O74  1  0.35885406  0.48540113  0.36067677  1
  O  O75  1  0.12654607  0.48540113  0.86067677  1
  O  O76  1  0.38016216  0.88484672  0.86502794  1
  O  O77  1  0.51815579  0.63171814  0.85866413  1
  O  O78  1  0.02017945  0.81937633  0.41221198  1
  O  O79  1  0.81622808  0.99278883  0.41137800  1
  O  O80  1  0.18584360  0.19415139  0.41092838  1
  O  O81  1  0.00830779  0.19415139  0.91092838  1
  O  O82  1  0.17656075  0.99278883  0.91137800  1
  O  O83  1  0.79919688  0.81937633  0.91221198  1
  O  O84  1  0.97656288  0.16674688  0.58831248  1
  O  O85  1  0.18859234  0.03023171  0.58989219  1
  O  O86  1  0.84133518  0.81778416  0.58837215  1
  O  O87  1  0.97644897  0.81778416  0.08837215  1
  O  O88  1  0.84163937  0.03023171  0.08989219  1
  O  O89  1  0.19018400  0.16674688  0.08831248  1
  O  O90  1  0.67825724  0.15974426  0.74474205  1
  O  O91  1  0.47119707  0.32522295  0.74476590  1
  O  O92  1  0.84778488  0.53090376  0.74456218  1
  O  O93  1  0.68311988  0.53090376  0.24456218  1
  O  O94  1  0.85402688  0.32522295  0.24476590  1
  O  O95  1  0.48148802  0.15974426  0.24474205  1
  O  O96  1  0.63963987  0.49764468  0.92112074  1
  O  O97  1  0.85990461  0.36179516  0.91940596  1
  O  O98  1  0.51563460  0.15630035  0.92496423  1
  O  O99  1  0.64066675  0.15630035  0.42496423  1
  O  O100  1  0.50189155  0.36179516  0.41940596  1
  O  O101  1  0.85800580  0.49764468  0.42112074  1
  O  O102  1  0.35051154  0.48936615  0.07547723  1
  O  O103  1  0.14346959  0.65506464  0.08118732  1
  O  O104  1  0.52071153  0.85845565  0.07754126  1
  O  O105  1  0.33774311  0.85845565  0.57754126  1
  O  O106  1  0.51159405  0.65506464  0.58118732  1
  O  O107  1  0.13885360  0.48936615  0.57547723  1
  O  O108  1  0.30371909  0.82122511  0.25553137  1
  O  O109  1  0.52110504  0.68899895  0.25606269  1
  O  O110  1  0.17117243  0.47607170  0.25373492  1
  O  O111  1  0.30489827  0.47607170  0.75373492  1
  O  O112  1  0.16789291  0.68899895  0.75606269  1
  O  O113  1  0.51750502  0.82122511  0.75553137  1
