# generated using pymatgen
data_Na6Sc4Ta4Si7S5O48
_symmetry_space_group_name_H-M   'P 1'
_cell_length_a   17.93549566
_cell_length_b   8.93653651
_cell_length_c   22.94443856
_cell_angle_alpha   90.06002290
_cell_angle_beta   90.06361171
_cell_angle_gamma   119.91294382
_symmetry_Int_Tables_number   1
_chemical_formula_structural   Na6Sc4Ta4Si7S5O48
_chemical_formula_sum   'Na18 Sc12 Ta12 Si21 S15 O144'
_cell_volume   3187.64526919
_cell_formula_units_Z   3
loop_
 _symmetry_equiv_pos_site_id
 _symmetry_equiv_pos_as_xyz
  1  'x, y, z'
loop_
 _atom_site_type_symbol
 _atom_site_label
 _atom_site_symmetry_multiplicity
 _atom_site_fract_x
 _atom_site_fract_y
 _atom_site_fract_z
 _atom_site_occupancy
  Na  Na0  1  0.00036123  0.61777558  0.25130724  1
  Na  Na1  1  0.50060017  0.64070978  0.25697794  1
  Na  Na2  1  0.99964668  0.36182877  0.75177275  1
  Na  Na3  1  0.50065173  0.38306614  0.74910175  1
  Na  Na4  1  0.33253793  0.97508637  0.58040637  1
  Na  Na5  1  0.83163965  0.68873782  0.08249171  1
  Na  Na6  1  0.00041261  0.98568413  0.50102301  1
  Na  Na7  1  0.50198782  0.00849107  0.49807451  1
  Na  Na8  1  0.99718388  0.99351688  0.00059093  1
  Na  Na9  1  0.50187247  0.01712622  0.00263095  1
  Na  Na10  1  0.33092141  0.35040441  0.82574359  1
  Na  Na11  1  0.83074394  0.33147730  0.83361750  1
  Na  Na12  1  0.33221695  0.33222732  0.33531443  1
  Na  Na13  1  0.82750857  0.31080228  0.32824186  1
  Na  Na14  1  0.16990481  0.66045378  0.17403260  1
  Na  Na15  1  0.66849116  0.66894661  0.16859752  1
  Na  Na16  1  0.16801061  0.66929527  0.66431795  1
  Na  Na17  1  0.66966140  0.67931738  0.66836673  1
  Sc  Sc18  1  0.50462498  0.99477714  0.64493352  1
  Sc  Sc19  1  0.00263478  0.01079381  0.14736338  1
  Sc  Sc20  1  0.33285105  0.33819639  0.68667364  1
  Sc  Sc21  1  0.82699888  0.33066686  0.68513185  1
  Sc  Sc22  1  0.32834712  0.32423880  0.18794780  1
  Sc  Sc23  1  0.83216744  0.32715643  0.18811420  1
  Sc  Sc24  1  0.66808545  0.64752334  0.01484675  1
  Sc  Sc25  1  0.16686390  0.68709955  0.51454785  1
  Sc  Sc26  1  0.16986668  0.66720590  0.31386030  1
  Sc  Sc27  1  0.66796693  0.67939199  0.31940912  1
  Sc  Sc28  1  0.16637027  0.64510090  0.81548835  1
  Sc  Sc29  1  0.66922929  0.67119065  0.81318315  1
  Ta  Ta30  1  0.99377870  0.00519228  0.35694857  1
  Ta  Ta31  1  0.50148381  0.98519418  0.35833123  1
  Ta  Ta32  1  0.99619492  0.01424493  0.85411297  1
  Ta  Ta33  1  0.49489979  0.98360532  0.85624121  1
  Ta  Ta34  1  0.99861985  0.00246763  0.64411318  1
  Ta  Ta35  1  0.49923081  0.99856231  0.14657109  1
  Ta  Ta36  1  0.34067711  0.33110831  0.97729443  1
  Ta  Ta37  1  0.83422439  0.34958954  0.98109862  1
  Ta  Ta38  1  0.33493735  0.31783956  0.48108746  1
  Ta  Ta39  1  0.83534039  0.35128180  0.47389325  1
  Ta  Ta40  1  0.16738897  0.66427562  0.02152566  1
  Ta  Ta41  1  0.66576080  0.65345867  0.51792896  1
  Si  Si42  1  0.64664952  0.00104730  0.25013495  1
  Si  Si43  1  0.35362846  0.70949319  0.24965599  1
  Si  Si44  1  0.00134764  0.29679247  0.24874455  1
  Si  Si45  1  0.14648676  0.28648311  0.74970491  1
  Si  Si46  1  0.50131763  0.70586879  0.74837528  1
  Si  Si47  1  0.85132522  0.99880800  0.74757124  1
  Si  Si48  1  0.48194880  0.33613170  0.58743498  1
  Si  Si49  1  0.18808741  0.04378659  0.58565821  1
  Si  Si50  1  0.83169797  0.62283106  0.58498348  1
  Si  Si51  1  0.98104909  0.62901056  0.08656719  1
  Si  Si52  1  0.33299064  0.04186887  0.08522961  1
  Si  Si53  1  0.68743737  0.33105634  0.08562697  1
  Si  Si54  1  0.30950396  0.66100856  0.91798230  1
  Si  Si55  1  0.81326770  0.66990307  0.91573726  1
  Si  Si56  1  0.01952992  0.37884345  0.91669558  1
  Si  Si57  1  0.52496418  0.37615579  0.91265173  1
  Si  Si58  1  0.31196741  0.95346735  0.41557303  1
  Si  Si59  1  0.80863712  0.95746660  0.41895885  1
  Si  Si60  1  0.66467804  0.37694532  0.41284288  1
  Si  Si61  1  0.02456288  0.67216948  0.41252878  1
  Si  Si62  1  0.51980578  0.65793827  0.41742721  1
  S  S63  1  0.14336134  0.00204375  0.25097945  1
  S  S64  1  0.85509519  0.71482594  0.25006564  1
  S  S65  1  0.50034345  0.28525496  0.24949877  1
  S  S66  1  0.64323817  0.28395748  0.75122375  1
  S  S67  1  0.00079901  0.71761101  0.74980658  1
  S  S68  1  0.35504039  0.99564328  0.75067546  1
  S  S69  1  0.97823206  0.33422019  0.58383381  1
  S  S70  1  0.69037999  0.04350506  0.58128551  1
  S  S71  1  0.33153512  0.62114540  0.58218174  1
  S  S72  1  0.47793263  0.62247051  0.08361958  1
  S  S73  1  0.83172607  0.04255213  0.08201309  1
  S  S74  1  0.18995546  0.33407282  0.08137431  1
  S  S75  1  0.16708836  0.95663870  0.91766993  1
  S  S76  1  0.66710556  0.96120424  0.91695860  1
  S  S77  1  0.16721261  0.37276184  0.41710923  1
  O  O78  1  0.09976886  0.02155875  0.30303299  1
  O  O79  1  0.59382144  0.01839012  0.30662303  1
  O  O80  1  0.41860558  0.80830852  0.30544611  1
  O  O81  1  0.91189899  0.80666644  0.30251703  1
  O  O82  1  0.48777476  0.18053179  0.30131045  1
  O  O83  1  0.99296136  0.16920585  0.30609724  1
  O  O84  1  0.09388123  0.16482731  0.80730083  1
  O  O85  1  0.59898506  0.17679552  0.80361489  1
  O  O86  1  0.49266514  0.81574929  0.80651571  1
  O  O87  1  0.98911301  0.79917276  0.80258471  1
  O  O88  1  0.41191377  0.01683855  0.80333897  1
  O  O89  1  0.91645835  0.02885979  0.80599335  1
  O  O90  1  0.39439316  0.97371745  0.69745060  1
  O  O91  1  0.90575254  0.98054938  0.69239432  1
  O  O92  1  0.08046434  0.18400217  0.69424457  1
  O  O93  1  0.59128182  0.20548710  0.69812307  1
  O  O94  1  0.01027860  0.82091283  0.69647151  1
  O  O95  1  0.51104940  0.82856547  0.69349178  1
  O  O96  1  0.40523113  0.83187137  0.19153077  1
  O  O97  1  0.89658454  0.81486021  0.19648993  1
  O  O98  1  0.01164179  0.19563505  0.19283902  1
  O  O99  1  0.50903522  0.19871815  0.19517175  1
  O  O100  1  0.09182945  0.97788557  0.19743594  1
  O  O101  1  0.58097492  0.97852036  0.19337867  1
  O  O102  1  0.44119692  0.36483047  0.64597226  1
  O  O103  1  0.93939887  0.35508319  0.63801679  1
  O  O104  1  0.25145940  0.13286859  0.64013196  1
  O  O105  1  0.74036342  0.11932371  0.63562782  1
  O  O106  1  0.32157030  0.52201208  0.63551166  1
  O  O107  1  0.81832546  0.50521660  0.64169345  1
  O  O108  1  0.43771490  0.52010449  0.13598913  1
  O  O109  1  0.94358166  0.51850411  0.14485521  1
  O  O110  1  0.31705366  0.13202535  0.14054068  1
  O  O111  1  0.82202399  0.12218175  0.13498180  1
  O  O112  1  0.24043500  0.36383048  0.13474588  1
  O  O113  1  0.75259104  0.37195232  0.13903639  1
  O  O114  1  0.23387140  0.31553299  0.02963192  1
  O  O115  1  0.73486745  0.30372093  0.02646932  1
  O  O116  1  0.42215287  0.53499198  0.03063432  1
  O  O117  1  0.91556790  0.52352678  0.02947226  1
  O  O118  1  0.34394854  0.16655095  0.02778463  1
  O  O119  1  0.84385726  0.14949354  0.02935884  1
  O  O120  1  0.23432582  0.16560140  0.52700948  1
  O  O121  1  0.73470478  0.15385237  0.53061968  1
  O  O122  1  0.34355873  0.53821372  0.52988849  1
  O  O123  1  0.84577449  0.52442292  0.52856362  1
  O  O124  1  0.41549785  0.30706054  0.53041182  1
  O  O125  1  0.92395969  0.30760590  0.53243577  1
  O  O126  1  0.26492692  0.69715438  0.97417607  1
  O  O127  1  0.77951076  0.70784811  0.97659274  1
  O  O128  1  0.08521264  0.48034672  0.97147197  1
  O  O129  1  0.57710740  0.45526100  0.97210810  1
  O  O130  1  0.15544928  0.84959007  0.97011704  1
  O  O131  1  0.64949931  0.85567407  0.96948821  1
  O  O132  1  0.27749781  0.84990945  0.47680706  1
  O  O133  1  0.76519875  0.83214418  0.47493149  1
  O  O134  1  0.14973627  0.44359434  0.46952213  1
  O  O135  1  0.65205493  0.46639467  0.47249665  1
  O  O136  1  0.07833825  0.70302169  0.47178728  1
  O  O137  1  0.58407226  0.69069549  0.47272602  1
  O  O138  1  0.05886101  0.63141763  0.35381316  1
  O  O139  1  0.55398099  0.62280121  0.35682137  1
  O  O140  1  0.25107308  0.87099815  0.36027517  1
  O  O141  1  0.75590495  0.88705183  0.35960726  1
  O  O142  1  0.18023542  0.47416439  0.36448859  1
  O  O143  1  0.68592473  0.49700837  0.35725769  1
  O  O144  1  0.05614167  0.48721041  0.85704695  1
  O  O145  1  0.55752150  0.48545355  0.85410478  1
  O  O146  1  0.18413600  0.88596884  0.86508237  1
  O  O147  1  0.67999207  0.88544138  0.86446693  1
  O  O148  1  0.25474427  0.63023774  0.85977205  1
  O  O149  1  0.75322801  0.63568971  0.86036959  1
  O  O150  1  0.00990206  0.84048991  0.40297718  1
  O  O151  1  0.51141833  0.83440404  0.41254506  1
  O  O152  1  0.40966735  0.98654833  0.40449211  1
  O  O153  1  0.90756678  0.98144437  0.40961588  1
  O  O154  1  0.08937711  0.19184748  0.40879037  1
  O  O155  1  0.58033044  0.18552184  0.40772531  1
  O  O156  1  0.01374586  0.18668348  0.91117998  1
  O  O157  1  0.50881767  0.17814930  0.90396894  1
  O  O158  1  0.09022568  0.97567281  0.91252341  1
  O  O159  1  0.58954953  0.98734308  0.90874317  1
  O  O160  1  0.40784482  0.83132327  0.90945324  1
  O  O161  1  0.91371137  0.83133981  0.90494590  1
  O  O162  1  0.48437630  0.15534370  0.58768014  1
  O  O163  1  0.98458049  0.17056587  0.58866056  1
  O  O164  1  0.09178518  0.02564706  0.59268715  1
  O  O165  1  0.60425490  0.02898059  0.58534652  1
  O  O166  1  0.40861935  0.79885599  0.58635996  1
  O  O167  1  0.91928337  0.81465269  0.59187119  1
  O  O168  1  0.48231653  0.79452463  0.08673734  1
  O  O169  1  0.98480834  0.81529192  0.08597115  1
  O  O170  1  0.41885544  0.02278952  0.09011481  1
  O  O171  1  0.90886589  0.01901347  0.08568482  1
  O  O172  1  0.10358604  0.18113281  0.08467074  1
  O  O173  1  0.59131853  0.15699809  0.09141215  1
  O  O174  1  0.35252592  0.15783709  0.74998682  1
  O  O175  1  0.85379882  0.18383404  0.74428733  1
  O  O176  1  0.23892320  0.30341958  0.74681814  1
  O  O177  1  0.72898027  0.29773266  0.74789301  1
  O  O178  1  0.41543868  0.51697422  0.74957138  1
  O  O179  1  0.92461617  0.54145179  0.74456770  1
  O  O180  1  0.35387264  0.52584048  0.24284317  1
  O  O181  1  0.85241831  0.54729506  0.24888375  1
  O  O182  1  0.42342381  0.30758746  0.24288085  1
  O  O183  1  0.91538405  0.31376218  0.24906497  1
  O  O184  1  0.22933943  0.16021558  0.24719868  1
  O  O185  1  0.73849039  0.17219582  0.24525566  1
  O  O186  1  0.32252964  0.49481190  0.93190345  1
  O  O187  1  0.82377757  0.49436008  0.92500397  1
  O  O188  1  0.42442627  0.34676059  0.92631575  1
  O  O189  1  0.92174819  0.33975823  0.92973571  1
  O  O190  1  0.24403372  0.13520209  0.92764043  1
  O  O191  1  0.74360561  0.13617873  0.92402533  1
  O  O192  1  0.32305283  0.15110264  0.42530839  1
  O  O193  1  0.82645482  0.15186863  0.43332761  1
  O  O194  1  0.24353958  0.35047750  0.42418497  1
  O  O195  1  0.74798402  0.34908308  0.42786850  1
  O  O196  1  0.42128495  0.49985919  0.43059696  1
  O  O197  1  0.92576006  0.50361977  0.42547113  1
  O  O198  1  0.18037266  0.49245206  0.07477377  1
  O  O199  1  0.67954150  0.50538267  0.07799934  1
  O  O200  1  0.07574583  0.64890769  0.07013900  1
  O  O201  1  0.56431138  0.64746759  0.07586006  1
  O  O202  1  0.24855668  0.85164531  0.07177383  1
  O  O203  1  0.75453060  0.86824189  0.07641800  1
  O  O204  1  0.17973863  0.85340095  0.57895253  1
  O  O205  1  0.68039711  0.86951934  0.57563107  1
  O  O206  1  0.25443698  0.64122321  0.57709479  1
  O  O207  1  0.74891872  0.64911644  0.57492827  1
  O  O208  1  0.06595932  0.48127015  0.57796563  1
  O  O209  1  0.57557200  0.50759810  0.57465097  1
  O  O210  1  0.15130978  0.84635897  0.25484112  1
  O  O211  1  0.64548572  0.81713970  0.25073944  1
  O  O212  1  0.26107535  0.69278241  0.25285316  1
  O  O213  1  0.77019633  0.69768518  0.25531958  1
  O  O214  1  0.08532947  0.48672386  0.25326457  1
  O  O215  1  0.57748017  0.45771541  0.25116884  1
  O  O216  1  0.14546419  0.47002859  0.75253371  1
  O  O217  1  0.65106981  0.45545751  0.75603232  1
  O  O218  1  0.07893097  0.70107833  0.75387363  1
  O  O219  1  0.58535845  0.68437404  0.75388468  1
  O  O220  1  0.26885177  0.84515117  0.75831406  1
  O  O221  1  0.76047653  0.82884642  0.75311541  1
