# generated using pymatgen
data_Na6Mg3SnP4(SO12)2
_symmetry_space_group_name_H-M   'P 1'
_cell_length_a   8.94359745
_cell_length_b   8.91874937
_cell_length_c   22.20594830
_cell_angle_alpha   90.14346754
_cell_angle_beta   89.80934795
_cell_angle_gamma   120.15816789
_symmetry_Int_Tables_number   1
_chemical_formula_structural   Na6Mg3SnP4(SO12)2
_chemical_formula_sum   'Na18 Mg9 Sn3 P12 S6 O72'
_cell_volume   1531.50762928
_cell_formula_units_Z   3
loop_
 _symmetry_equiv_pos_site_id
 _symmetry_equiv_pos_as_xyz
  1  'x, y, z'
loop_
 _atom_site_type_symbol
 _atom_site_label
 _atom_site_symmetry_multiplicity
 _atom_site_fract_x
 _atom_site_fract_y
 _atom_site_fract_z
 _atom_site_occupancy
  Na  Na0  1  0.36433220  0.36481716  0.25290779  1
  Na  Na1  1  0.63750750  0.63528923  0.74713167  1
  Na  Na2  1  0.99490246  0.35022478  0.74936941  1
  Na  Na3  1  0.29711261  0.34021147  0.58417456  1
  Na  Na4  1  0.02783061  0.69358222  0.58023481  1
  Na  Na5  1  0.67301996  0.96305476  0.58218036  1
  Na  Na6  1  0.29095883  0.96316215  0.08095565  1
  Na  Na7  1  0.66600484  0.69316534  0.08223684  1
  Na  Na8  1  0.04225050  0.34135047  0.08343690  1
  Na  Na9  1  0.32490994  0.29683577  0.91261777  1
  Na  Na10  1  0.97699929  0.30431584  0.41312586  1
  Na  Na11  1  0.69747558  0.67545982  0.41337542  1
  Na  Na12  1  0.00341104  0.99961845  0.49409812  1
  Na  Na13  1  0.99560088  0.98884640  0.99268093  1
  Na  Na14  1  0.65814474  0.31393928  0.83107065  1
  Na  Na15  1  0.66639437  0.32204667  0.33114243  1
  Na  Na16  1  0.32554876  0.66954774  0.17053245  1
  Na  Na17  1  0.33812568  0.66820446  0.66591284  1
  Mg  Mg18  1  0.00530745  0.99780671  0.35264818  1
  Mg  Mg19  1  0.99648982  0.00262719  0.85260343  1
  Mg  Mg20  1  0.99315137  0.00523997  0.65278209  1
  Mg  Mg21  1  0.00446096  0.99626395  0.15196252  1
  Mg  Mg22  1  0.66043509  0.32751274  0.68607687  1
  Mg  Mg23  1  0.67370569  0.34038311  0.18526933  1
  Mg  Mg24  1  0.32999022  0.66461194  0.01446197  1
  Mg  Mg25  1  0.33196917  0.66336876  0.51192017  1
  Mg  Mg26  1  0.33315067  0.67518168  0.32040169  1
  Sn  Sn27  1  0.67081005  0.33909208  0.98009492  1
  Sn  Sn28  1  0.66733962  0.33312938  0.48084719  1
  Sn  Sn29  1  0.33803167  0.67307660  0.81952996  1
  P  P30  1  0.29599699  0.29404243  0.75124077  1
  P  P31  1  0.70410832  0.00020446  0.75011135  1
  P  P32  1  0.96235221  0.33485485  0.58549385  1
  P  P33  1  0.66709405  0.62869683  0.58566936  1
  P  P34  1  0.96130297  0.62667037  0.08526075  1
  P  P35  1  0.37234295  0.33370022  0.08553143  1
  P  P36  1  0.63320341  0.67216916  0.91930525  1
  P  P37  1  0.03701254  0.37056047  0.91799831  1
  P  P38  1  0.33128579  0.96197525  0.92021465  1
  P  P39  1  0.62657994  0.96007355  0.41773528  1
  P  P40  1  0.33213453  0.36991711  0.41627424  1
  P  P41  1  0.04259891  0.67088944  0.41816451  1
  S  S42  1  0.29570950  0.99841455  0.24905337  1
  S  S43  1  0.70389776  0.70603626  0.24975702  1
  S  S44  1  0.99825687  0.29359302  0.24972776  1
  S  S45  1  0.00316985  0.71036165  0.74964759  1
  S  S46  1  0.37173802  0.03849685  0.58501248  1
  S  S47  1  0.66699988  0.04122341  0.08522117  1
  O  O48  1  0.20968004  0.02780974  0.30065070  1
  O  O49  1  0.80820397  0.78999637  0.30358876  1
  O  O50  1  0.97859800  0.18931399  0.30384863  1
  O  O51  1  0.21095627  0.18980588  0.80775717  1
  O  O52  1  0.97962555  0.79336063  0.80220716  1
  O  O53  1  0.81939931  0.02503661  0.80360904  1
  O  O54  1  0.77211554  0.95882376  0.69164608  1
  O  O55  1  0.18616964  0.21784244  0.69373411  1
  O  O56  1  0.02908500  0.80924240  0.69364658  1
  O  O57  1  0.78599672  0.80776582  0.19452190  1
  O  O58  1  0.02371414  0.21112258  0.19476880  1
  O  O59  1  0.19640578  0.97667610  0.19264164  1
  O  O60  1  0.87407345  0.36248877  0.63976027  1
  O  O61  1  0.48445451  0.12239619  0.63629162  1
  O  O62  1  0.63650950  0.51089847  0.63951203  1
  O  O63  1  0.87461795  0.50341865  0.13737058  1
  O  O64  1  0.63713359  0.12418291  0.13681161  1
  O  O65  1  0.48771827  0.36126966  0.13976471  1
  O  O66  1  0.45104067  0.29402851  0.02740257  1
  O  O67  1  0.84396537  0.54921869  0.02726126  1
  O  O68  1  0.70372368  0.15087670  0.02940510  1
  O  O69  1  0.44532814  0.14897551  0.52916905  1
  O  O70  1  0.69910864  0.54679020  0.52681251  1
  O  O71  1  0.84443824  0.29577865  0.52754259  1
  O  O72  1  0.54528539  0.68981021  0.97531279  1
  O  O73  1  0.14755108  0.45668416  0.97330870  1
  O  O74  1  0.31392529  0.85939372  0.97673237  1
  O  O75  1  0.55143153  0.85817958  0.47647159  1
  O  O76  1  0.30582848  0.44955344  0.47407651  1
  O  O77  1  0.13864504  0.69172752  0.47751610  1
  O  O78  1  0.12238792  0.63004178  0.36455158  1
  O  O79  1  0.51548658  0.87700454  0.36302583  1
  O  O80  1  0.37001862  0.48466949  0.36013850  1
  O  O81  1  0.11523656  0.48348252  0.85899039  1
  O  O82  1  0.36702361  0.88370860  0.86226890  1
  O  O83  1  0.51436456  0.62832196  0.86115006  1
  O  O84  1  0.00713627  0.82175607  0.41089787  1
  O  O85  1  0.81190558  0.98586808  0.41119036  1
  O  O86  1  0.16995853  0.19060350  0.40946719  1
  O  O87  1  0.02445834  0.19479326  0.91092899  1
  O  O88  1  0.17679798  0.98843666  0.91227783  1
  O  O89  1  0.81147791  0.82629927  0.91050685  1
  O  O90  1  0.98269092  0.17233824  0.58845341  1
  O  O91  1  0.19797949  0.01920000  0.59074813  1
  O  O92  1  0.83486831  0.80816014  0.58903674  1
  O  O93  1  0.97559594  0.80725117  0.09035135  1
  O  O94  1  0.82205419  0.02205922  0.09092027  1
  O  O95  1  0.18840071  0.17143516  0.08960261  1
  O  O96  1  0.68847301  0.16384279  0.74385122  1
  O  O97  1  0.48323360  0.33069461  0.74551502  1
  O  O98  1  0.84769128  0.53270224  0.74496522  1
  O  O99  1  0.68212854  0.52789303  0.24572440  1
  O  O100  1  0.84370550  0.31160239  0.24427891  1
  O  O101  1  0.46966688  0.16061628  0.24400999  1
  O  O102  1  0.63616685  0.49526372  0.92089099  1
  O  O103  1  0.85370793  0.35289123  0.92118252  1
  O  O104  1  0.49903152  0.14989104  0.92207168  1
  O  O105  1  0.65335571  0.15077069  0.42179693  1
  O  O106  1  0.50326144  0.35794431  0.42215151  1
  O  O107  1  0.85297464  0.49813563  0.42119982  1
  O  O108  1  0.35773853  0.49851620  0.07832261  1
  O  O109  1  0.14402883  0.64993019  0.07787025  1
  O  O110  1  0.51155708  0.86722319  0.07804564  1
  O  O111  1  0.35528357  0.86589551  0.57769918  1
  O  O112  1  0.50636394  0.64943252  0.57885515  1
  O  O113  1  0.14214471  0.49974166  0.57832177  1
  O  O114  1  0.31386027  0.84421201  0.25514902  1
  O  O115  1  0.52661506  0.68252787  0.25362479  1
  O  O116  1  0.16004105  0.46709057  0.25401838  1
  O  O117  1  0.30868126  0.48280359  0.75533718  1
  O  O118  1  0.15828341  0.68437546  0.75435321  1
  O  O119  1  0.51827949  0.82895875  0.75591230  1
