# generated using pymatgen
data_Na3Sc2In2P3(SO8)3
_symmetry_space_group_name_H-M   'P 1'
_cell_length_a   8.92974228
_cell_length_b   8.93754104
_cell_length_c   23.21125384
_cell_angle_alpha   89.46200179
_cell_angle_beta   90.42528379
_cell_angle_gamma   120.16385794
_symmetry_Int_Tables_number   1
_chemical_formula_structural   Na3Sc2In2P3(SO8)3
_chemical_formula_sum   'Na9 Sc6 In6 P9 S9 O72'
_cell_volume   1601.56837277
_cell_formula_units_Z   3
loop_
 _symmetry_equiv_pos_site_id
 _symmetry_equiv_pos_as_xyz
  1  'x, y, z'
loop_
 _atom_site_type_symbol
 _atom_site_label
 _atom_site_symmetry_multiplicity
 _atom_site_fract_x
 _atom_site_fract_y
 _atom_site_fract_z
 _atom_site_occupancy
  Na  Na0  1  0.36005247  0.36023704  0.25116741  1
  Na  Na1  1  0.69197366  0.02509258  0.91672236  1
  Na  Na2  1  0.97462127  0.30639063  0.41674396  1
  Na  Na3  1  0.00431636  0.99833086  0.50003840  1
  Na  Na4  1  0.00124509  0.99411309  0.00058540  1
  Na  Na5  1  0.66195821  0.33484865  0.83309483  1
  Na  Na6  1  0.66635323  0.33371845  0.33320071  1
  Na  Na7  1  0.33261871  0.67725465  0.16634087  1
  Na  Na8  1  0.33335381  0.66680560  0.66667151  1
  Sc  Sc9  1  0.01373922  0.00211000  0.35087287  1
  Sc  Sc10  1  0.99972983  0.00498939  0.14882318  1
  Sc  Sc11  1  0.67092710  0.31687423  0.18491135  1
  Sc  Sc12  1  0.66048578  0.33207528  0.98172851  1
  Sc  Sc13  1  0.66855380  0.33952021  0.48123534  1
  Sc  Sc14  1  0.31999676  0.66457057  0.31498934  1
  In  In15  1  0.99919639  0.99345130  0.85036732  1
  In  In16  1  0.99357072  0.00575668  0.64851250  1
  In  In17  1  0.67305421  0.32725601  0.68399564  1
  In  In18  1  0.34221946  0.67842962  0.01796403  1
  In  In19  1  0.32273856  0.65748627  0.51686424  1
  In  In20  1  0.34522012  0.67678843  0.81634604  1
  P  P21  1  0.29066320  0.99840252  0.24872933  1
  P  P22  1  0.99878505  0.28962149  0.25082112  1
  P  P23  1  0.70595441  0.00000802  0.75069958  1
  P  P24  1  0.95990709  0.33384199  0.58224436  1
  P  P25  1  0.66880397  0.04115513  0.08250994  1
  P  P26  1  0.62640091  0.66260512  0.91705908  1
  P  P27  1  0.33073220  0.96120150  0.91679540  1
  P  P28  1  0.33648538  0.37489976  0.41543673  1
  P  P29  1  0.04000368  0.66947441  0.41676733  1
  S  S30  1  0.70867098  0.70852685  0.24988751  1
  S  S31  1  0.29570811  0.29551945  0.74980469  1
  S  S32  1  0.00022057  0.70542107  0.74904620  1
  S  S33  1  0.37307730  0.03978907  0.58294661  1
  S  S34  1  0.66624845  0.62493911  0.58345720  1
  S  S35  1  0.95707703  0.62420728  0.08347852  1
  S  S36  1  0.37478709  0.33356708  0.08416271  1
  S  S37  1  0.04121133  0.37559325  0.91698352  1
  S  S38  1  0.62530573  0.95764345  0.41666936  1
  O  O39  1  0.20956909  0.03236431  0.30242439  1
  O  O40  1  0.81514747  0.78790849  0.30185088  1
  O  O41  1  0.97061787  0.18117321  0.30612931  1
  O  O42  1  0.21930362  0.18831704  0.80232006  1
  O  O43  1  0.97243856  0.78105583  0.80156434  1
  O  O44  1  0.81442691  0.03171085  0.80668871  1
  O  O45  1  0.78642019  0.96818474  0.69713711  1
  O  O46  1  0.19048402  0.21697139  0.69725738  1
  O  O47  1  0.03057902  0.81399943  0.69681375  1
  O  O48  1  0.78877072  0.81553934  0.19788598  1
  O  O49  1  0.03148579  0.20570069  0.19795190  1
  O  O50  1  0.17689362  0.97205100  0.19550491  1
  O  O51  1  0.88133081  0.36482366  0.63639768  1
  O  O52  1  0.47535573  0.11592005  0.63618965  1
  O  O53  1  0.63656602  0.51962725  0.63642388  1
  O  O54  1  0.87449018  0.51760659  0.13559788  1
  O  O55  1  0.64232455  0.12970031  0.13543425  1
  O  O56  1  0.48035089  0.36020103  0.13684779  1
  O  O57  1  0.45702920  0.30957378  0.03250474  1
  O  O58  1  0.85108121  0.54391272  0.03125456  1
  O  O59  1  0.69396462  0.15101450  0.02747530  1
  O  O60  1  0.45549795  0.14928008  0.53146128  1
  O  O61  1  0.68969152  0.54187879  0.53195203  1
  O  O62  1  0.84814206  0.30799128  0.52753988  1
  O  O63  1  0.54916185  0.70169235  0.97028298  1
  O  O64  1  0.14732782  0.45169839  0.96926785  1
  O  O65  1  0.29588877  0.84883630  0.97104210  1
  O  O66  1  0.55084634  0.85379804  0.46973793  1
  O  O67  1  0.29736522  0.45039361  0.46908192  1
  O  O68  1  0.15092216  0.70455749  0.47116116  1
  O  O69  1  0.12331858  0.63322434  0.36417479  1
  O  O70  1  0.51682007  0.87721977  0.36516915  1
  O  O71  1  0.36356420  0.48555904  0.36050799  1
  O  O72  1  0.11633413  0.48013908  0.86408451  1
  O  O73  1  0.37082428  0.88667572  0.86309868  1
  O  O74  1  0.51586196  0.62775165  0.86230549  1
  O  O75  1  0.01498847  0.82586766  0.40815003  1
  O  O76  1  0.80218156  0.98226835  0.40988574  1
  O  O77  1  0.16683720  0.19521950  0.40897594  1
  O  O78  1  0.01791873  0.19809219  0.91161601  1
  O  O79  1  0.17167429  0.98468601  0.91035010  1
  O  O80  1  0.80535579  0.83411301  0.91145454  1
  O  O81  1  0.97633710  0.16848500  0.58625284  1
  O  O82  1  0.19802685  0.02162230  0.58848054  1
  O  O83  1  0.82693297  0.79761574  0.58784437  1
  O  O84  1  0.97637386  0.79860552  0.08964089  1
  O  O85  1  0.83160882  0.02365612  0.09062962  1
  O  O86  1  0.20113759  0.17535371  0.08949029  1
  O  O87  1  0.68781075  0.16380845  0.74605941  1
  O  O88  1  0.47048360  0.31448198  0.74375746  1
  O  O89  1  0.84041974  0.53296862  0.74397912  1
  O  O90  1  0.68463671  0.53137629  0.24299751  1
  O  O91  1  0.84057688  0.31417001  0.24319528  1
  O  O92  1  0.46982154  0.16954416  0.24247210  1
  O  O93  1  0.64935349  0.50435135  0.92520901  1
  O  O94  1  0.86447840  0.35296161  0.92324953  1
  O  O95  1  0.50083579  0.13980394  0.92436236  1
  O  O96  1  0.64661813  0.13473557  0.42270086  1
  O  O97  1  0.49585470  0.35278881  0.42381096  1
  O  O98  1  0.86134380  0.49817182  0.42340111  1
  O  O99  1  0.35428173  0.48843403  0.07785197  1
  O  O100  1  0.13101904  0.63895208  0.07836127  1
  O  O101  1  0.50295189  0.85949465  0.08020898  1
  O  O102  1  0.35859099  0.86722254  0.57741035  1
  O  O103  1  0.51248829  0.64678856  0.57714713  1
  O  O104  1  0.14284421  0.49723355  0.57891664  1
  O  O105  1  0.31478093  0.84067172  0.25717229  1
  O  O106  1  0.53193690  0.68654784  0.25615501  1
  O  O107  1  0.16827996  0.46985844  0.25640240  1
  O  O108  1  0.30818118  0.46708116  0.75541246  1
  O  O109  1  0.15511217  0.68545497  0.75532644  1
  O  O110  1  0.52372769  0.83557851  0.75380625  1
