# generated using pymatgen
data_Na2Te2O7
_symmetry_space_group_name_H-M   'P 1'
_cell_length_a   7.24116598
_cell_length_b   7.24112831
_cell_length_c   7.24121178
_cell_angle_alpha   120.08242203
_cell_angle_beta   118.12626179
_cell_angle_gamma   91.56782739
_symmetry_Int_Tables_number   1
_chemical_formula_structural   Na2Te2O7
_chemical_formula_sum   'Na4 Te4 O14'
_cell_volume   271.90514568
_cell_formula_units_Z   2
loop_
 _symmetry_equiv_pos_site_id
 _symmetry_equiv_pos_as_xyz
  1  'x, y, z'
loop_
 _atom_site_type_symbol
 _atom_site_label
 _atom_site_symmetry_multiplicity
 _atom_site_fract_x
 _atom_site_fract_y
 _atom_site_fract_z
 _atom_site_occupancy
  Na  Na0  1  0.50000008  -0.00000011  0.50000022  1
  Na  Na1  1  -0.00000020  0.49999994  0.49999981  1
  Na  Na2  1  0.50000009  -0.00000018  -0.00000036  1
  Na  Na3  1  0.50000008  0.50000038  0.50000025  1
  Te  Te4  1  -0.00001462  -0.00000375  -0.00001089  1
  Te  Te5  1  0.50000063  0.49999977  0.00000084  1
  Te  Te6  1  -0.00000043  0.00000009  0.50000028  1
  Te  Te7  1  -0.00000051  0.49999929  -0.00000064  1
  O  O8  1  0.05185057  0.91379330  0.72434110  1
  O  O9  1  0.94814835  0.67248974  0.86194195  1
  O  O10  1  0.31054950  0.58621087  0.13805933  1
  O  O11  1  0.68945051  0.82751006  0.27565921  1
  O  O12  1  0.94815008  0.08620679  0.27565888  1
  O  O13  1  0.05185224  0.32751081  0.13805857  1
  O  O14  1  0.68945030  0.41378926  0.86194062  1
  O  O15  1  0.31054936  0.17248991  0.72434060  1
  O  O16  1  0.09057706  0.75000072  0.34057744  1
  O  O17  1  0.90942278  0.24999933  0.65942247  1
  O  O18  1  0.69936785  0.91833125  0.78102839  1
  O  O19  1  0.30064715  0.08167257  0.21898296  1
  O  O20  1  0.36268902  0.58166414  0.78102668  1
  O  O21  1  0.63731011  0.41833585  0.21897230  1
