# generated using pymatgen
data_Na6Y3NbSi4(SO12)2
_symmetry_space_group_name_H-M   'P 1'
_cell_length_a   9.35646715
_cell_length_b   9.38080497
_cell_length_c   23.18370141
_cell_angle_alpha   89.81435986
_cell_angle_beta   90.54798050
_cell_angle_gamma   120.07890023
_symmetry_Int_Tables_number   1
_chemical_formula_structural   Na6Y3NbSi4(SO12)2
_chemical_formula_sum   'Na18 Y9 Nb3 Si12 S6 O72'
_cell_volume   1760.75533234
_cell_formula_units_Z   3
loop_
 _symmetry_equiv_pos_site_id
 _symmetry_equiv_pos_as_xyz
  1  'x, y, z'
loop_
 _atom_site_type_symbol
 _atom_site_label
 _atom_site_symmetry_multiplicity
 _atom_site_fract_x
 _atom_site_fract_y
 _atom_site_fract_z
 _atom_site_occupancy
  Na  Na0  1  0.62070577  0.99915217  0.25297129  1
  Na  Na1  1  0.64129150  0.62986713  0.75406036  1
  Na  Na2  1  0.00792714  0.36799155  0.74312213  1
  Na  Na3  1  0.29787761  0.34883758  0.58313509  1
  Na  Na4  1  0.01722509  0.68322685  0.59019297  1
  Na  Na5  1  0.67808211  0.95905928  0.57237243  1
  Na  Na6  1  0.30023562  0.95056642  0.08709069  1
  Na  Na7  1  0.67041375  0.71337405  0.07276148  1
  Na  Na8  1  0.02396558  0.34003965  0.07971310  1
  Na  Na9  1  0.97708341  0.68360105  0.91417890  1
  Na  Na10  1  0.32589961  0.29270652  0.91136928  1
  Na  Na11  1  0.67725892  0.67419769  0.41625326  1
  Na  Na12  1  0.99636699  0.02919649  0.49450844  1
  Na  Na13  1  0.97402911  0.99092430  0.99319107  1
  Na  Na14  1  0.64939231  0.32635904  0.83001541  1
  Na  Na15  1  0.62274604  0.30247782  0.33295452  1
  Na  Na16  1  0.31354034  0.68391442  0.16916013  1
  Na  Na17  1  0.32357524  0.65308509  0.66796676  1
  Y  Y18  1  0.02354622  0.01578782  0.35240179  1
  Y  Y19  1  0.00183553  0.99782522  0.85017134  1
  Y  Y20  1  0.00820362  0.00267653  0.65128218  1
  Y  Y21  1  0.00557141  0.99073672  0.14802232  1
  Y  Y22  1  0.66636900  0.34127690  0.68579148  1
  Y  Y23  1  0.66253828  0.32993075  0.18552647  1
  Y  Y24  1  0.33598884  0.67451601  0.01494023  1
  Y  Y25  1  0.33528562  0.65968334  0.51357465  1
  Y  Y26  1  0.33735366  0.67354238  0.32008828  1
  Nb  Nb27  1  0.68342601  0.33201234  0.97446767  1
  Nb  Nb28  1  0.67374555  0.33439010  0.47992128  1
  Nb  Nb29  1  0.32325906  0.66111214  0.82165570  1
  Si  Si30  1  0.30528067  0.99533545  0.24744324  1
  Si  Si31  1  0.30351655  0.31168692  0.75312349  1
  Si  Si32  1  0.00825272  0.69873694  0.75085885  1
  Si  Si33  1  0.96156504  0.33350618  0.58515510  1
  Si  Si34  1  0.66929466  0.63119392  0.58203055  1
  Si  Si35  1  0.95679956  0.62429544  0.08108433  1
  Si  Si36  1  0.67038157  0.04310398  0.08285951  1
  Si  Si37  1  0.62825401  0.65986939  0.91986376  1
  Si  Si38  1  0.03713054  0.36721832  0.92005313  1
  Si  Si39  1  0.34159258  0.96731205  0.91835686  1
  Si  Si40  1  0.63980706  0.97281739  0.41876843  1
  Si  Si41  1  0.34147888  0.36623268  0.42115619  1
  S  S42  1  0.70067497  0.70421172  0.25126279  1
  S  S43  1  0.00216435  0.29819465  0.24826736  1
  S  S44  1  0.69259598  0.98988709  0.74954391  1
  S  S45  1  0.37798993  0.04618467  0.58017250  1
  S  S46  1  0.37420734  0.33214056  0.07984402  1
  S  S47  1  0.02304210  0.65828399  0.41910235  1
  O  O48  1  0.19876327  0.00437178  0.30043224  1
  O  O49  1  0.79824549  0.78647885  0.30331258  1
  O  O50  1  0.97939013  0.19014140  0.29814827  1
  O  O51  1  0.21011488  0.20456509  0.80898931  1
  O  O52  1  0.96627815  0.78017397  0.80464407  1
  O  O53  1  0.80175787  0.01947133  0.79964140  1
  O  O54  1  0.76885651  0.96556647  0.69656069  1
  O  O55  1  0.18950260  0.23582690  0.69406527  1
  O  O56  1  0.03274023  0.80207083  0.69085850  1
  O  O57  1  0.78242749  0.80557902  0.19857490  1
  O  O58  1  0.01676477  0.22049398  0.19413697  1
  O  O59  1  0.21206746  0.98665378  0.18513266  1
  O  O60  1  0.87731533  0.34659900  0.64400217  1
  O  O61  1  0.47661816  0.11614248  0.63312088  1
  O  O62  1  0.63798660  0.52041176  0.63946650  1
  O  O63  1  0.86135247  0.51143597  0.13538287  1
  O  O64  1  0.64004306  0.12287761  0.13976248  1
  O  O65  1  0.47374705  0.35355215  0.13220094  1
  O  O66  1  0.45448587  0.31235060  0.02774783  1
  O  O67  1  0.83773526  0.52081161  0.02181004  1
  O  O68  1  0.68156244  0.16949014  0.02646968  1
  O  O69  1  0.46542034  0.15065322  0.52927355  1
  O  O70  1  0.68274931  0.51919752  0.52716622  1
  O  O71  1  0.83307668  0.32004416  0.53071621  1
  O  O72  1  0.55227051  0.67964823  0.97909221  1
  O  O73  1  0.13866797  0.44563215  0.97832871  1
  O  O74  1  0.30367491  0.86179304  0.97665474  1
  O  O75  1  0.55075317  0.86439799  0.47620417  1
  O  O76  1  0.31980443  0.44426648  0.48075147  1
  O  O77  1  0.11811773  0.68311162  0.47298251  1
  O  O78  1  0.10466782  0.63424212  0.36921593  1
  O  O79  1  0.52629320  0.89654914  0.36075740  1
  O  O80  1  0.38412193  0.49601904  0.36812476  1
  O  O81  1  0.13722457  0.49951730  0.86463773  1
  O  O82  1  0.36068646  0.85630376  0.86457691  1
  O  O83  1  0.49895821  0.63717354  0.86411943  1
  O  O84  1  0.99031103  0.79535182  0.41206826  1
  O  O85  1  0.81513925  0.97653152  0.41330399  1
  O  O86  1  0.18786875  0.18089700  0.41606435  1
  O  O87  1  0.01446976  0.18920747  0.91039683  1
  O  O88  1  0.18495867  0.99388627  0.90894003  1
  O  O89  1  0.81583758  0.80717035  0.91162285  1
  O  O90  1  0.97671332  0.16648565  0.58237780  1
  O  O91  1  0.21598766  0.04035734  0.58340479  1
  O  O92  1  0.84302994  0.80881878  0.58292904  1
  O  O93  1  0.96593739  0.80464188  0.08037209  1
  O  O94  1  0.84583971  0.04324155  0.08184761  1
  O  O95  1  0.20691154  0.18193827  0.08378202  1
  O  O96  1  0.67109493  0.13500612  0.74407787  1
  O  O97  1  0.49172923  0.34371487  0.75055956  1
  O  O98  1  0.85429160  0.50645465  0.74840589  1
  O  O99  1  0.68116781  0.53813435  0.24690655  1
  O  O100  1  0.84984247  0.31117441  0.24632945  1
  O  O101  1  0.49343915  0.15867908  0.25135690  1
  O  O102  1  0.62914406  0.47952900  0.92312620  1
  O  O103  1  0.85734177  0.36747415  0.92095426  1
  O  O104  1  0.51011231  0.15250233  0.92284618  1
  O  O105  1  0.66112503  0.16119000  0.43068356  1
  O  O106  1  0.51705909  0.35497094  0.42851709  1
  O  O107  1  0.85485345  0.50341764  0.42334108  1
  O  O108  1  0.35368454  0.47926280  0.07746327  1
  O  O109  1  0.14009082  0.64275922  0.07977304  1
  O  O110  1  0.51254054  0.85648596  0.07901014  1
  O  O111  1  0.34912898  0.87642372  0.57423739  1
  O  O112  1  0.51050328  0.66097241  0.57891795  1
  O  O113  1  0.13951172  0.50517168  0.57958785  1
  O  O114  1  0.32937368  0.83192018  0.25032908  1
  O  O115  1  0.53584153  0.69278353  0.25314079  1
  O  O116  1  0.15039387  0.46276472  0.25435655  1
  O  O117  1  0.32192291  0.50138632  0.76131378  1
  O  O118  1  0.17846996  0.68308123  0.76233478  1
  O  O119  1  0.53072386  0.83501909  0.75645089  1
