# generated using pymatgen
data_ZrTiSi(SO6)2
_symmetry_space_group_name_H-M   'P 1'
_cell_length_a   8.86822628
_cell_length_b   8.85671718
_cell_length_c   22.85164388
_cell_angle_alpha   89.85615754
_cell_angle_beta   89.99939283
_cell_angle_gamma   119.95695953
_symmetry_Int_Tables_number   1
_chemical_formula_structural   ZrTiSi(SO6)2
_chemical_formula_sum   'Zr6 Ti6 Si6 S12 O72'
_cell_volume   1555.04865758
_cell_formula_units_Z   6
loop_
 _symmetry_equiv_pos_site_id
 _symmetry_equiv_pos_as_xyz
  1  'x, y, z'
loop_
 _atom_site_type_symbol
 _atom_site_label
 _atom_site_symmetry_multiplicity
 _atom_site_fract_x
 _atom_site_fract_y
 _atom_site_fract_z
 _atom_site_occupancy
  Zr  Zr0  1  0.98686041  0.00796363  0.35716725  1
  Zr  Zr1  1  0.00718582  0.01810700  0.64544445  1
  Zr  Zr2  1  0.00828761  0.01698686  0.13742709  1
  Zr  Zr3  1  0.67563191  0.33837468  0.69288120  1
  Zr  Zr4  1  0.67394575  0.32639512  0.47529272  1
  Zr  Zr5  1  0.33380501  0.66925616  0.30617386  1
  Ti  Ti6  1  0.02521550  0.01280595  0.85955594  1
  Ti  Ti7  1  0.66420420  0.33641086  0.18557015  1
  Ti  Ti8  1  0.64715315  0.32491163  0.97366194  1
  Ti  Ti9  1  0.32565598  0.66489511  0.02254148  1
  Ti  Ti10  1  0.33949366  0.66853241  0.52410882  1
  Ti  Ti11  1  0.33805902  0.66948327  0.81449932  1
  Si  Si12  1  0.98501049  0.28570384  0.24677218  1
  Si  Si13  1  0.28813705  0.29568196  0.75430956  1
  Si  Si14  1  0.96555875  0.34717822  0.58320023  1
  Si  Si15  1  0.39532979  0.34878827  0.08063051  1
  Si  Si16  1  0.33382645  0.94544390  0.91756234  1
  Si  Si17  1  0.61118534  0.94192641  0.41810356  1
  S  S18  1  0.29317017  0.01169433  0.24706794  1
  S  S19  1  0.71833048  0.70479983  0.24752852  1
  S  S20  1  0.00922535  0.72020229  0.75529506  1
  S  S21  1  0.71053319  0.98928350  0.75465095  1
  S  S22  1  0.38012834  0.03860669  0.58339648  1
  S  S23  1  0.65979014  0.62023319  0.58347428  1
  S  S24  1  0.94897814  0.60627109  0.08060445  1
  S  S25  1  0.65416548  0.04726480  0.07983640  1
  S  S26  1  0.62022886  0.66995614  0.91701005  1
  S  S27  1  0.04770307  0.38208887  0.91804881  1
  S  S28  1  0.33174213  0.38528706  0.41858608  1
  S  S29  1  0.05570982  0.67348564  0.41756619  1
  O  O30  1  0.21470667  0.03641444  0.30036096  1
  O  O31  1  0.82520456  0.78412708  0.30069781  1
  O  O32  1  0.95242862  0.16448845  0.30515064  1
  O  O33  1  0.18672685  0.16436338  0.81108550  1
  O  O34  1  0.97777685  0.80388524  0.80625003  1
  O  O35  1  0.82135537  0.01828630  0.80562617  1
  O  O36  1  0.78371447  0.95757629  0.70051877  1
  O  O37  1  0.16394104  0.20609260  0.69770810  1
  O  O38  1  0.03560011  0.82194094  0.70118727  1
  O  O39  1  0.79869171  0.81384859  0.19568974  1
  O  O40  1  0.02012504  0.19200008  0.19115012  1
  O  O41  1  0.17993258  0.97780983  0.19545543  1
  O  O42  1  0.87290717  0.37434267  0.64068707  1
  O  O43  1  0.48955662  0.12173313  0.63557205  1
  O  O44  1  0.62892992  0.50730991  0.63573257  1
  O  O45  1  0.87349522  0.49853065  0.13423166  1
  O  O46  1  0.62781179  0.12632102  0.13305476  1
  O  O47  1  0.51742961  0.37550863  0.13745928  1
  O  O48  1  0.49001510  0.31908075  0.02287379  1
  O  O49  1  0.84326556  0.52783864  0.02830318  1
  O  O50  1  0.69189746  0.16021881  0.02783934  1
  O  O51  1  0.45272089  0.15109691  0.53110821  1
  O  O52  1  0.68620661  0.54138864  0.53082470  1
  O  O53  1  0.83990595  0.31447914  0.52726744  1
  O  O54  1  0.53848817  0.69880705  0.96898512  1
  O  O55  1  0.16170954  0.45584223  0.97051420  1
  O  O56  1  0.30108032  0.81956975  0.97415680  1
  O  O57  1  0.51025025  0.82205379  0.47521413  1
  O  O58  1  0.30055968  0.46350044  0.47116364  1
  O  O59  1  0.15838098  0.69123998  0.47032637  1
  O  O60  1  0.12785720  0.63682263  0.36434933  1
  O  O61  1  0.50249689  0.85395132  0.35927022  1
  O  O62  1  0.35369236  0.48634367  0.36465701  1
  O  O63  1  0.12864623  0.49407505  0.86600492  1
  O  O64  1  0.36508294  0.85238927  0.86115638  1
  O  O65  1  0.50480381  0.62896569  0.86468097  1
  O  O66  1  0.05042977  0.83568551  0.40888317  1
  O  O67  1  0.80104457  0.95546638  0.41283181  1
  O  O68  1  0.18026562  0.20747158  0.41199179  1
  O  O69  1  0.02354914  0.20395954  0.90881092  1
  O  O70  1  0.16230075  0.96894594  0.90639363  1
  O  O71  1  0.79192113  0.82557844  0.90659789  1
  O  O72  1  0.98122398  0.17281609  0.59154049  1
  O  O73  1  0.20247980  0.01036091  0.59252989  1
  O  O74  1  0.81435304  0.79224015  0.59344361  1
  O  O75  1  0.96980689  0.78112015  0.08988271  1
  O  O76  1  0.80599157  0.02006833  0.08720052  1
  O  O77  1  0.20579775  0.17417246  0.08795793  1
  O  O78  1  0.69026704  0.14474402  0.74537012  1
  O  O79  1  0.47522602  0.31228148  0.74221231  1
  O  O80  1  0.85015298  0.54518758  0.74872473  1
  O  O81  1  0.70136209  0.53045034  0.24034677  1
  O  O82  1  0.81445691  0.30334631  0.23082538  1
  O  O83  1  0.46622651  0.16715686  0.23768362  1
  O  O84  1  0.64457776  0.51528632  0.92518857  1
  O  O85  1  0.87579866  0.36653121  0.92757927  1
  O  O86  1  0.50441704  0.13989214  0.92894802  1
  O  O87  1  0.63102121  0.13357815  0.42439728  1
  O  O88  1  0.49059965  0.37376850  0.42624906  1
  O  O89  1  0.87452727  0.52624246  0.42372711  1
  O  O90  1  0.37224864  0.51748541  0.06708458  1
  O  O91  1  0.12566617  0.62433293  0.07327804  1
  O  O92  1  0.49632624  0.87340146  0.07231619  1
  O  O93  1  0.36597619  0.86667590  0.57509333  1
  O  O94  1  0.50272277  0.63836718  0.57643020  1
  O  O95  1  0.15607709  0.51455940  0.56924865  1
  O  O96  1  0.31501036  0.85651609  0.25347531  1
  O  O97  1  0.54228535  0.68276988  0.25527220  1
  O  O98  1  0.15218549  0.47579552  0.25792473  1
  O  O99  1  0.30582486  0.48330393  0.77003042  1
  O  O100  1  0.16169058  0.69678983  0.76391539  1
  O  O101  1  0.53454389  0.83338991  0.76233290  1
