# generated using pymatgen
data_Y2MgMo2(ClO4)2
_symmetry_space_group_name_H-M   'P 1'
_cell_length_a   6.48765500
_cell_length_b   6.50204453
_cell_length_c   6.96785683
_cell_angle_alpha   73.34450940
_cell_angle_beta   73.29641595
_cell_angle_gamma   66.68427606
_symmetry_Int_Tables_number   1
_chemical_formula_structural   Y2MgMo2(ClO4)2
_chemical_formula_sum   'Y2 Mg1 Mo2 Cl2 O8'
_cell_volume   253.49174519
_cell_formula_units_Z   1
loop_
 _symmetry_equiv_pos_site_id
 _symmetry_equiv_pos_as_xyz
  1  'x, y, z'
loop_
 _atom_site_type_symbol
 _atom_site_label
 _atom_site_symmetry_multiplicity
 _atom_site_fract_x
 _atom_site_fract_y
 _atom_site_fract_z
 _atom_site_occupancy
  Y  Y0  1  0.76721900  0.75739500  0.10801300  1
  Y  Y1  1  0.24371000  0.23382400  0.89218300  1
  Mg  Mg2  1  0.31276200  0.68741300  0.49944600  1
  Mo  Mo3  1  0.35521900  0.36201300  0.26754200  1
  Mo  Mo4  1  0.63800600  0.64629000  0.73260800  1
  Cl  Cl5  1  0.05050300  0.95014300  0.75177000  1
  Cl  Cl6  1  0.04897200  0.95091400  0.24885400  1
  O  O7  1  0.87915000  0.48699000  0.86800100  1
  O  O8  1  0.09537500  0.45946300  0.15312800  1
  O  O9  1  0.45013400  0.47522200  0.77201100  1
  O  O10  1  0.24178300  0.38146800  0.54254600  1
  O  O11  1  0.52497400  0.55115500  0.22809600  1
  O  O12  1  0.61748300  0.75958700  0.45756800  1
  O  O13  1  0.51508500  0.12180000  0.13130900  1
  O  O14  1  0.54087400  0.90549000  0.84692500  1
