# generated using pymatgen
data_HfInP(SO6)2
_symmetry_space_group_name_H-M   'P 1'
_cell_length_a   8.91550877
_cell_length_b   8.90250838
_cell_length_c   23.01455122
_cell_angle_alpha   90.13112135
_cell_angle_beta   90.00000701
_cell_angle_gamma   120.04833060
_symmetry_Int_Tables_number   1
_chemical_formula_structural   HfInP(SO6)2
_chemical_formula_sum   'Hf6 In6 P6 S12 O72'
_cell_volume   1581.16952352
_cell_formula_units_Z   6
loop_
 _symmetry_equiv_pos_site_id
 _symmetry_equiv_pos_as_xyz
  1  'x, y, z'
loop_
 _atom_site_type_symbol
 _atom_site_label
 _atom_site_symmetry_multiplicity
 _atom_site_fract_x
 _atom_site_fract_y
 _atom_site_fract_z
 _atom_site_occupancy
  Hf  Hf0  1  0.00069689  -0.00000300  0.64387900  1
  Hf  Hf1  1  0.99930024  -0.00000309  0.14387914  1
  Hf  Hf2  1  0.66410458  0.33289944  0.97725449  1
  Hf  Hf3  1  0.66879556  0.33289898  0.47725445  1
  Hf  Hf4  1  0.34193052  0.66016890  0.31053285  1
  Hf  Hf5  1  0.31823779  0.66016864  0.81053252  1
  In  In6  1  0.00057189  -0.00036718  0.35354021  1
  In  In7  1  0.99906071  -0.00036723  0.85354020  1
  In  In8  1  0.67774530  0.33944327  0.68708915  1
  In  In9  1  0.66169900  0.33944329  0.18708906  1
  In  In10  1  0.33008122  0.65556568  0.02026692  1
  In  In11  1  0.32548329  0.65556535  0.52026694  1
  P  P12  1  0.71607918  0.71314967  0.25022111  1
  P  P13  1  0.99707058  0.71314973  0.75022116  1
  P  P14  1  0.95604506  0.33345434  0.58324990  1
  P  P15  1  0.37740980  0.33345473  0.08324991  1
  P  P16  1  0.04170057  0.37335454  0.91679035  1
  P  P17  1  0.33165402  0.37335484  0.41679052  1
  S  S18  1  0.29054765  0.99849511  0.25009460  1
  S  S19  1  0.99713133  0.28970918  0.24959777  1
  S  S20  1  0.29257795  0.28970935  0.74959783  1
  S  S21  1  0.70794693  0.99849453  0.75009467  1
  S  S22  1  0.37842587  0.04317815  0.58338282  1
  S  S23  1  0.66528042  0.62284432  0.58332679  1
  S  S24  1  0.95756331  0.62284400  0.08332691  1
  S  S25  1  0.66475236  0.04317781  0.08338277  1
  S  S26  1  0.62306465  0.66797748  0.91630889  1
  S  S27  1  0.33272568  0.95460659  0.91722216  1
  S  S28  1  0.62188090  0.95460647  0.41722202  1
  S  S29  1  0.04491173  0.66797672  0.41630890  1
  O  O30  1  0.21608376  0.03174571  0.30209224  1
  O  O31  1  0.82320623  0.79387107  0.30497223  1
  O  O32  1  0.96882265  0.18580360  0.30202453  1
  O  O33  1  0.21698077  0.18580390  0.80202464  1
  O  O34  1  0.97066472  0.79387157  0.80497238  1
  O  O35  1  0.81566232  0.03174581  0.80209240  1
  O  O36  1  0.79170507  0.96998770  0.69795915  1
  O  O37  1  0.17850004  0.20909853  0.69772367  1
  O  O38  1  0.02921424  0.83112656  0.69606127  1
  O  O39  1  0.80191245  0.83112658  0.19606133  1
  O  O40  1  0.03059842  0.20909851  0.19772379  1
  O  O41  1  0.17828280  0.96998809  0.19795918  1
  O  O42  1  0.87605474  0.36305310  0.63729097  1
  O  O43  1  0.48197627  0.12041773  0.63614083  1
  O  O44  1  0.63305594  0.51644787  0.63544597  1
  O  O45  1  0.88339281  0.51644810  0.13544604  1
  O  O46  1  0.63844259  0.12041815  0.13614088  1
  O  O47  1  0.48699980  0.36305312  0.13729093  1
  O  O48  1  0.46607845  0.30276387  0.02912735  1
  O  O49  1  0.84503720  0.54143324  0.03132179  1
  O  O50  1  0.69688608  0.15586865  0.03132951  1
  O  O51  1  0.45898351  0.15586870  0.53132946  1
  O  O52  1  0.69639738  0.54143309  0.53132179  1
  O  O53  1  0.83668630  0.30276385  0.52912740  1
  O  O54  1  0.54944071  0.69960047  0.96892189  1
  O  O55  1  0.15281534  0.45471734  0.97038121  1
  O  O56  1  0.30609255  0.85054937  0.96965216  1
  O  O57  1  0.54445613  0.85054998  0.46965211  1
  O  O58  1  0.30190093  0.45471735  0.47038127  1
  O  O59  1  0.15015915  0.69960063  0.46892196  1
  O  O60  1  0.12535059  0.63726592  0.36442305  1
  O  O61  1  0.50979700  0.87464669  0.36486454  1
  O  O62  1  0.36311452  0.49422452  0.36265948  1
  O  O63  1  0.13110897  0.49422455  0.86265950  1
  O  O64  1  0.36484892  0.87464673  0.86486449  1
  O  O65  1  0.51191455  0.63726590  0.86442324  1
  O  O66  1  0.02071109  0.81739018  0.40918620  1
  O  O67  1  0.79434818  0.97779541  0.40930147  1
  O  O68  1  0.17497070  0.19478521  0.40663826  1
  O  O69  1  0.01981461  0.19478493  0.90663823  1
  O  O70  1  0.18344656  0.97779579  0.90930152  1
  O  O71  1  0.79667878  0.81738990  0.90918621  1
  O  O72  1  0.97260751  0.16848454  0.59358303  1
  O  O73  1  0.20435114  0.02764554  0.59138209  1
  O  O74  1  0.82474503  0.79609042  0.59154718  1
  O  O75  1  0.97134523  0.79609018  0.09154717  1
  O  O76  1  0.82329425  0.02764521  0.09138212  1
  O  O77  1  0.19587743  0.16848482  0.09358308  1
  O  O78  1  0.68416786  0.14800349  0.74204008  1
  O  O79  1  0.46390746  0.31042248  0.74050237  1
  O  O80  1  0.84194933  0.53269067  0.74274202  1
  O  O81  1  0.69074261  0.53269114  0.24274198  1
  O  O82  1  0.84651620  0.31042238  0.24050243  1
  O  O83  1  0.46383587  0.14800309  0.24204021  1
  O  O84  1  0.63870723  0.50927092  0.92498582  1
  O  O85  1  0.86181554  0.35893164  0.92699849  1
  O  O86  1  0.49171539  0.12895932  0.92477598  1
  O  O87  1  0.63724494  0.12896019  0.42477612  1
  O  O88  1  0.49711643  0.35893208  0.42699848  1
  O  O89  1  0.87056462  0.50927112  0.42498573  1
  O  O90  1  0.35576123  0.49074816  0.07558342  1
  O  O91  1  0.13124992  0.64922201  0.07525247  1
  O  O92  1  0.51400429  0.87112461  0.07445447  1
  O  O93  1  0.35711951  0.87112411  0.57445446  1
  O  O94  1  0.51797201  0.64922184  0.57525256  1
  O  O95  1  0.13498686  0.49074879  0.57558328  1
  O  O96  1  0.30367540  0.83975597  0.25875266  1
  O  O97  1  0.53365446  0.69731665  0.25918292  1
  O  O98  1  0.15496799  0.46426353  0.25794168  1
  O  O99  1  0.30929437  0.46426370  0.75794172  1
  O  O100  1  0.16366137  0.69731676  0.75918284  1
  O  O101  1  0.53607972  0.83975605  0.75875267  1
