# generated using pymatgen
data_K8MgTi2O8
_symmetry_space_group_name_H-M   'P 1'
_cell_length_a   7.77945708
_cell_length_b   7.77945708
_cell_length_c   7.22815325
_cell_angle_alpha   90.00000000
_cell_angle_beta   90.00000000
_cell_angle_gamma   77.91924660
_symmetry_Int_Tables_number   1
_chemical_formula_structural   K8MgTi2O8
_chemical_formula_sum   'K8 Mg1 Ti2 O8'
_cell_volume   427.75960194
_cell_formula_units_Z   1
loop_
 _symmetry_equiv_pos_site_id
 _symmetry_equiv_pos_as_xyz
  1  'x, y, z'
loop_
 _atom_site_type_symbol
 _atom_site_label
 _atom_site_symmetry_multiplicity
 _atom_site_fract_x
 _atom_site_fract_y
 _atom_site_fract_z
 _atom_site_occupancy
  K  K0  1  0.14201673  0.75206871  0.52134461  1
  K  K1  1  0.14201673  0.75206871  0.97865539  1
  K  K2  1  0.52487939  0.83106715  0.25000000  1
  K  K3  1  0.07613527  0.39779621  0.75000000  1
  K  K4  1  0.39779621  0.07613527  0.75000000  1
  K  K5  1  0.83106715  0.52487939  0.25000000  1
  K  K6  1  0.75206871  0.14201673  0.97865539  1
  K  K7  1  0.75206871  0.14201673  0.52134461  1
  Mg  Mg8  1  0.15055493  0.15055493  0.25000000  1
  Ti  Ti9  1  0.37622906  0.37622906  0.25000000  1
  Ti  Ti10  1  0.66704138  0.66704138  0.75000000  1
  O  O11  1  0.30588948  0.61166459  0.25000000  1
  O  O12  1  0.42329048  0.74682524  0.75000000  1
  O  O13  1  0.27080093  0.27080093  0.05537198  1
  O  O14  1  0.27080093  0.27080093  0.44462802  1
  O  O15  1  0.76090855  0.76090855  0.95616033  1
  O  O16  1  0.76090855  0.76090855  0.54383967  1
  O  O17  1  0.74682524  0.42329048  0.75000000  1
  O  O18  1  0.61166459  0.30588948  0.25000000  1
