# generated using pymatgen
data_TcO2F3
_symmetry_space_group_name_H-M   'P 1'
_cell_length_a   7.77404102
_cell_length_b   7.76523431
_cell_length_c   11.57837928
_cell_angle_alpha   88.90932156
_cell_angle_beta   89.32635805
_cell_angle_gamma   83.99423140
_symmetry_Int_Tables_number   1
_chemical_formula_structural   TcO2F3
_chemical_formula_sum   'Tc8 O16 F24'
_cell_volume   694.95915184
_cell_formula_units_Z   8
loop_
 _symmetry_equiv_pos_site_id
 _symmetry_equiv_pos_as_xyz
  1  'x, y, z'
loop_
 _atom_site_type_symbol
 _atom_site_label
 _atom_site_symmetry_multiplicity
 _atom_site_fract_x
 _atom_site_fract_y
 _atom_site_fract_z
 _atom_site_occupancy
  Tc  Tc0  1  0.46972008  0.26920511  0.58761073  1
  Tc  Tc1  1  0.53027992  0.73079489  0.41238927  1
  Tc  Tc2  1  0.08473886  0.24486915  0.37107516  1
  Tc  Tc3  1  0.91526114  0.75513085  0.62892484  1
  Tc  Tc4  1  0.45307068  0.24744238  0.12051071  1
  Tc  Tc5  1  0.54692932  0.75255762  0.87948929  1
  Tc  Tc6  1  0.05104459  0.21882662  0.90241410  1
  Tc  Tc7  1  0.94895541  0.78117338  0.09758590  1
  O  O8  1  0.39216856  0.78934263  0.97693061  1
  O  O9  1  0.02447458  0.20497439  0.50512622  1
  O  O10  1  0.56956873  0.33297661  0.70150199  1
  O  O11  1  0.97552542  0.79502561  0.49487378  1
  O  O12  1  0.90223649  0.26144968  0.29929963  1
  O  O13  1  0.09776351  0.73855032  0.70070037  1
  O  O14  1  0.58233385  0.92340669  0.37276761  1
  O  O15  1  0.13581494  0.77814839  0.16298872  1
  O  O16  1  0.86418506  0.22185161  0.83701128  1
  O  O17  1  0.86258908  0.61539983  0.15688194  1
  O  O18  1  0.13741092  0.38460017  0.84311806  1
  O  O19  1  0.55400664  0.31995332  0.23088810  1
  O  O20  1  0.44599336  0.68004668  0.76911190  1
  O  O21  1  0.43043127  0.66702339  0.29849801  1
  O  O22  1  0.41766615  0.07659331  0.62723239  1
  O  O23  1  0.60783144  0.21065737  0.02306939  1
  F  F24  1  0.44077246  0.02330271  0.17006664  1
  F  F25  1  0.64581099  0.54214115  0.93697650  1
  F  F26  1  0.35418901  0.45785885  0.06302350  1
  F  F27  1  -0.00000000  0.00000000  0.00000000  1
  F  F28  1  0.55922754  0.97669729  0.82993336  1
  F  F29  1  0.27422616  0.16559007  0.00402228  1
  F  F30  1  0.72577384  0.83440993  0.99597772  1
  F  F31  1  0.77892504  0.71748739  0.78155397  1
  F  F32  1  0.22107496  0.28251261  0.21844603  1
  F  F33  1  0.97169538  0.32208206  0.03714537  1
  F  F34  1  0.25764643  0.39267519  0.61611377  1
  F  F35  1  0.83731705  0.98059325  0.66463460  1
  F  F36  1  0.16268295  0.01940675  0.33536540  1
  F  F37  1  0.89252373  0.52235602  0.61795455  1
  F  F38  1  0.10747627  0.47764398  0.38204545  1
  F  F39  1  0.02830462  0.67791794  0.96285463  1
  F  F40  1  0.17203830  0.04667622  0.81683389  1
  F  F41  1  0.82796170  0.95332378  0.18316611  1
  F  F42  1  0.50000000  0.50000000  0.50000000  1
  F  F43  1  0.65674399  0.76436278  0.57067437  1
  F  F44  1  0.34325601  0.23563722  0.42932563  1
  F  F45  1  0.74235357  0.60732481  0.38388623  1
  F  F46  1  0.65814776  0.20295803  0.49596039  1
  F  F47  1  0.34185224  0.79704197  0.50403961  1
