# generated using pymatgen
data_Na3Nb2Ga2SiP5O24
_symmetry_space_group_name_H-M   'P 1'
_cell_length_a   8.74907574
_cell_length_b   8.71022224
_cell_length_c   22.44445906
_cell_angle_alpha   90.10834021
_cell_angle_beta   89.84838439
_cell_angle_gamma   119.86059548
_symmetry_Int_Tables_number   1
_chemical_formula_structural   Na3Nb2Ga2SiP5O24
_chemical_formula_sum   'Na9 Nb6 Ga6 Si3 P15 O72'
_cell_volume   1483.33049994
_cell_formula_units_Z   3
loop_
 _symmetry_equiv_pos_site_id
 _symmetry_equiv_pos_as_xyz
  1  'x, y, z'
loop_
 _atom_site_type_symbol
 _atom_site_label
 _atom_site_symmetry_multiplicity
 _atom_site_fract_x
 _atom_site_fract_y
 _atom_site_fract_z
 _atom_site_occupancy
  Na  Na0  1  0.36057080  0.99209529  0.75273661  1
  Na  Na1  1  0.67261918  0.97185748  0.58720153  1
  Na  Na2  1  0.67510618  0.70147621  0.08406083  1
  Na  Na3  1  0.01585670  0.00096884  0.50610915  1
  Na  Na4  1  0.01293518  0.00822074  0.00591609  1
  Na  Na5  1  0.67693229  0.34442970  0.84093322  1
  Na  Na6  1  0.66498519  0.33186085  0.33993714  1
  Na  Na7  1  0.32263776  0.66607097  0.17473302  1
  Na  Na8  1  0.32513676  0.64734822  0.67332929  1
  Nb  Nb9  1  0.00050952  0.00007746  0.35592426  1
  Nb  Nb10  1  0.99448960  -0.00052975  0.85647004  1
  Nb  Nb11  1  0.66837192  0.33245506  0.68840277  1
  Nb  Nb12  1  0.67170248  0.33460009  0.18996964  1
  Nb  Nb13  1  0.32666379  0.66659921  0.02190172  1
  Nb  Nb14  1  0.32953530  0.66715037  0.52126276  1
  Ga  Ga15  1  0.00429602  0.99928553  0.64836203  1
  Ga  Ga16  1  0.00802441  0.00157129  0.14832892  1
  Ga  Ga17  1  0.66873406  0.33750096  0.98167353  1
  Ga  Ga18  1  0.65872772  0.32986027  0.48038561  1
  Ga  Ga19  1  0.33292044  0.66677476  0.31458223  1
  Ga  Ga20  1  0.33970493  0.66574343  0.81470825  1
  Si  Si21  1  0.70781039  0.98881160  0.74678129  1
  Si  Si22  1  0.36791503  0.05164011  0.58175863  1
  Si  Si23  1  0.95201001  0.62679740  0.08220308  1
  P  P24  1  0.28481986  0.99061328  0.24926122  1
  P  P25  1  0.70498854  0.71595271  0.24855227  1
  P  P26  1  0.00957730  0.29098141  0.24865255  1
  P  P27  1  0.28230904  0.29295274  0.74946243  1
  P  P28  1  0.00371437  0.71237209  0.75029553  1
  P  P29  1  0.95228890  0.33015149  0.58087919  1
  P  P30  1  0.67321557  0.62220936  0.58023910  1
  P  P31  1  0.67451004  0.05207412  0.08159006  1
  P  P32  1  0.37511270  0.32304575  0.08198169  1
  P  P33  1  0.61714088  0.65574496  0.91633926  1
  P  P34  1  0.04211543  0.38484243  0.91424397  1
  P  P35  1  0.34338146  0.96397119  0.91452031  1
  P  P36  1  0.61750589  0.95962161  0.41483727  1
  P  P37  1  0.34301838  0.38430537  0.41390509  1
  P  P38  1  0.03819662  0.65495365  0.41447848  1
  O  O39  1  0.19580586  0.02102194  0.30549511  1
  O  O40  1  0.82679493  0.80576416  0.30376445  1
  O  O41  1  0.97925846  0.17406172  0.30532730  1
  O  O42  1  0.20264826  0.16972484  0.80524784  1
  O  O43  1  0.97609473  0.80181114  0.80660084  1
  O  O44  1  0.83527881  0.02395434  0.80583872  1
  O  O45  1  0.79411577  0.96710622  0.68647782  1
  O  O46  1  0.17572089  0.20850990  0.69364095  1
  O  O47  1  0.04223280  0.83045201  0.69567948  1
  O  O48  1  0.78690609  0.81943256  0.19123376  1
  O  O49  1  0.03055120  0.20344513  0.19310993  1
  O  O50  1  0.17536169  0.96543643  0.19387772  1
  O  O51  1  0.86863265  0.36395074  0.63825120  1
  O  O52  1  0.49661343  0.13219335  0.64226707  1
  O  O53  1  0.64306473  0.50793449  0.63735271  1
  O  O54  1  0.86053980  0.49905476  0.14168480  1
  O  O55  1  0.63709539  0.13190511  0.13851360  1
  O  O56  1  0.49665842  0.36160662  0.13783585  1
  O  O57  1  0.45547572  0.29506423  0.02594603  1
  O  O58  1  0.82564701  0.54046567  0.02579925  1
  O  O59  1  0.69637015  0.15917845  0.02617216  1
  O  O60  1  0.46480595  0.16408280  0.52418010  1
  O  O61  1  0.70019316  0.53887219  0.52523538  1
  O  O62  1  0.83777877  0.30113033  0.52677451  1
  O  O63  1  0.53863632  0.68909089  0.97433791  1
  O  O64  1  0.15961245  0.47202740  0.97121221  1
  O  O65  1  0.31376449  0.84039910  0.96995619  1
  O  O66  1  0.53622513  0.84572273  0.47294564  1
  O  O67  1  0.31019137  0.46864038  0.47085342  1
  O  O68  1  0.15823932  0.68948718  0.47115931  1
  O  O69  1  0.12613296  0.63283575  0.35958422  1
  O  O70  1  0.50535711  0.86950134  0.36077316  1
  O  O71  1  0.36245460  0.49260463  0.35879494  1
  O  O72  1  0.13079975  0.49519374  0.85951926  1
  O  O73  1  0.36395273  0.88007435  0.85733823  1
  O  O74  1  0.50890108  0.63796256  0.86137568  1
  O  O75  1  0.02567246  0.82949968  0.41001575  1
  O  O76  1  0.80351906  0.97131952  0.40924891  1
  O  O77  1  0.17031362  0.19627396  0.40933425  1
  O  O78  1  0.03250928  0.19912257  0.91084440  1
  O  O79  1  0.17062941  0.97591402  0.91182140  1
  O  O80  1  0.80501976  0.82854667  0.91101201  1
  O  O81  1  0.96964566  0.16563587  0.58858078  1
  O  O82  1  0.17339045  0.02051717  0.59016660  1
  O  O83  1  0.82625878  0.81173458  0.58683995  1
  O  O84  1  0.97198303  0.81999609  0.09079922  1
  O  O85  1  0.83151616  0.02273902  0.08968288  1
  O  O86  1  0.18927131  0.16981909  0.09051418  1
  O  O87  1  0.69073368  0.17229356  0.74405905  1
  O  O88  1  0.46946707  0.30706490  0.74392293  1
  O  O89  1  0.83171260  0.53103222  0.74514328  1
  O  O90  1  0.69011833  0.52752827  0.24480653  1
  O  O91  1  0.83419561  0.30124319  0.24488395  1
  O  O92  1  0.46954148  0.16306261  0.24446576  1
  O  O93  1  0.63970671  0.49358667  0.92097178  1
  O  O94  1  0.85747367  0.35697947  0.92186809  1
  O  O95  1  0.50497176  0.14528188  0.92321602  1
  O  O96  1  0.64640209  0.14615112  0.42140260  1
  O  O97  1  0.50327922  0.36074155  0.42010144  1
  O  O98  1  0.85546406  0.49662454  0.42325983  1
  O  O99  1  0.36895263  0.50192477  0.07630326  1
  O  O100  1  0.14767088  0.64158964  0.07735179  1
  O  O101  1  0.50643741  0.86010590  0.07600524  1
  O  O102  1  0.36233262  0.85559249  0.57592531  1
  O  O103  1  0.50083602  0.63852836  0.57559932  1
  O  O104  1  0.13831547  0.49863526  0.57673089  1
  O  O105  1  0.30786600  0.82934772  0.25717766  1
  O  O106  1  0.52159313  0.69240077  0.25664539  1
  O  O107  1  0.16739438  0.47616736  0.25589529  1
  O  O108  1  0.30431945  0.47579196  0.75763572  1
  O  O109  1  0.16452950  0.68918656  0.75820861  1
  O  O110  1  0.50758860  0.82852959  0.75515912  1
