# generated using pymatgen
data_Ba2GdMgMoO6
_symmetry_space_group_name_H-M   'P 1'
_cell_length_a   6.68540184
_cell_length_b   6.21473838
_cell_length_c   6.71289460
_cell_angle_alpha   57.47494900
_cell_angle_beta   54.40954622
_cell_angle_gamma   85.14828223
_symmetry_Int_Tables_number   1
_chemical_formula_structural   Ba2GdMgMoO6
_chemical_formula_sum   'Ba2 Gd1 Mg1 Mo1 O6'
_cell_volume   180.31779802
_cell_formula_units_Z   1
loop_
 _symmetry_equiv_pos_site_id
 _symmetry_equiv_pos_as_xyz
  1  'x, y, z'
loop_
 _atom_site_type_symbol
 _atom_site_label
 _atom_site_symmetry_multiplicity
 _atom_site_fract_x
 _atom_site_fract_y
 _atom_site_fract_z
 _atom_site_occupancy
  Ba  Ba0  1  0.21053600  0.74938800  0.42705700  1
  Ba  Ba1  1  0.78946400  0.25061200  0.57294300  1
  Gd  Gd2  1  0.00000000  0.00000000  0.00000000  1
  Mg  Mg3  1  0.50000000  0.00000000  0.50000000  1
  Mo  Mo4  1  0.50000000  0.50000000  0.00000000  1
  O  O5  1  0.25666100  0.21467800  0.49158300  1
  O  O6  1  0.74333900  0.78532200  0.50841700  1
  O  O7  1  0.30034000  0.23365900  0.98668600  1
  O  O8  1  0.69966000  0.76634100  0.01331400  1
  O  O9  1  0.73487700  0.24679500  0.03075000  1
  O  O10  1  0.26512300  0.75320500  0.96925000  1
