# generated using pymatgen
data_NaGaSnP2SO12
_symmetry_space_group_name_H-M   'P 1'
_cell_length_a   8.62199174
_cell_length_b   8.61382907
_cell_length_c   22.59556411
_cell_angle_alpha   90.07844524
_cell_angle_beta   90.00000000
_cell_angle_gamma   120.03135209
_symmetry_Int_Tables_number   1
_chemical_formula_structural   NaGaSnP2SO12
_chemical_formula_sum   'Na6 Ga6 Sn6 P12 S6 O72'
_cell_volume   1452.84685636
_cell_formula_units_Z   6
loop_
 _symmetry_equiv_pos_site_id
 _symmetry_equiv_pos_as_xyz
  1  'x, y, z'
loop_
 _atom_site_type_symbol
 _atom_site_label
 _atom_site_symmetry_multiplicity
 _atom_site_fract_x
 _atom_site_fract_y
 _atom_site_fract_z
 _atom_site_occupancy
  Na  Na0  1  0.99083318  0.99426588  0.50242813  1
  Na  Na1  1  0.00343270  0.99426588  0.00242813  1
  Na  Na2  1  0.65750018  0.32759888  0.83576113  1
  Na  Na3  1  0.67009970  0.32759888  0.33576113  1
  Na  Na4  1  0.32416618  0.66093288  0.16909513  1
  Na  Na5  1  0.33676570  0.66093288  0.66909513  1
  Ga  Ga6  1  0.98679455  0.00883690  0.64750824  1
  Ga  Ga7  1  0.02204235  0.00883690  0.14750824  1
  Ga  Ga8  1  0.65346155  0.34216990  0.98084124  1
  Ga  Ga9  1  0.68870935  0.34216990  0.48084124  1
  Ga  Ga10  1  0.32012755  0.67550390  0.31417524  1
  Ga  Ga11  1  0.35537535  0.67550390  0.81417524  1
  Sn  Sn12  1  0.99828585  0.00080538  0.35177400  1
  Sn  Sn13  1  0.00251953  0.00080538  0.85177400  1
  Sn  Sn14  1  0.66495285  0.33413838  0.68510700  1
  Sn  Sn15  1  0.66918653  0.33413838  0.18510700  1
  Sn  Sn16  1  0.33161885  0.66747238  0.01844100  1
  Sn  Sn17  1  0.33585253  0.66747238  0.51844100  1
  P  P18  1  0.29072005  0.99747509  0.24940670  1
  P  P19  1  0.00625850  0.29341411  0.24877091  1
  P  P20  1  0.28715561  0.29341411  0.74877091  1
  P  P21  1  0.70675504  0.99747509  0.74940670  1
  P  P22  1  0.95738705  0.33080809  0.58273970  1
  P  P23  1  0.67292550  0.62674711  0.58210391  1
  P  P24  1  0.95382261  0.62674711  0.08210391  1
  P  P25  1  0.37342204  0.33080809  0.08273970  1
  P  P26  1  0.62405305  0.66414209  0.91607370  1
  P  P27  1  0.33959150  0.96008111  0.91543791  1
  P  P28  1  0.62048861  0.96008111  0.41543791  1
  P  P29  1  0.04008804  0.66414209  0.41607370  1
  S  S30  1  0.70515305  0.71090912  0.24852595  1
  S  S31  1  0.00575607  0.71090912  0.74852595  1
  S  S32  1  0.37182005  0.04424212  0.58185895  1
  S  S33  1  0.67242307  0.04424212  0.08185895  1
  S  S34  1  0.03848605  0.37757612  0.91519295  1
  S  S35  1  0.33908907  0.37757612  0.41519295  1
  O  O36  1  0.21522896  0.03603906  0.30634406  1
  O  O37  1  0.81520032  0.78110635  0.30362315  1
  O  O38  1  0.96289359  0.17829240  0.30591230  1
  O  O39  1  0.21539880  0.17829240  0.80591230  1
  O  O40  1  0.96590603  0.78110635  0.80362315  1
  O  O41  1  0.82081010  0.03603906  0.80634406  1
  O  O42  1  0.78790749  0.96239607  0.69445991  1
  O  O43  1  0.17431484  0.20425546  0.69345413  1
  O  O44  1  0.03221663  0.82007500  0.69591815  1
  O  O45  1  0.78785838  0.82007500  0.19591815  1
  O  O46  1  0.02994062  0.20425546  0.19345413  1
  O  O47  1  0.17448858  0.96239607  0.19445991  1
  O  O48  1  0.88189596  0.36937206  0.63967706  1
  O  O49  1  0.48186732  0.11443935  0.63695615  1
  O  O50  1  0.62956059  0.51162540  0.63924530  1
  O  O51  1  0.88206580  0.51162540  0.13924530  1
  O  O52  1  0.63257303  0.11443935  0.13695615  1
  O  O53  1  0.48747710  0.36937206  0.13967706  1
  O  O54  1  0.45457449  0.29572907  0.02779291  1
  O  O55  1  0.84098184  0.53758846  0.02678713  1
  O  O56  1  0.69888363  0.15340800  0.02925115  1
  O  O57  1  0.45452538  0.15340800  0.52925115  1
  O  O58  1  0.69660762  0.53758846  0.52678713  1
  O  O59  1  0.84115558  0.29572907  0.52779291  1
  O  O60  1  0.54856196  0.70270606  0.97301106  1
  O  O61  1  0.14853332  0.44777335  0.97029015  1
  O  O62  1  0.29622659  0.84495940  0.97257930  1
  O  O63  1  0.54873180  0.84495940  0.47257930  1
  O  O64  1  0.29923903  0.44777335  0.47029015  1
  O  O65  1  0.15414310  0.70270606  0.47301106  1
  O  O66  1  0.12124049  0.62906307  0.36112691  1
  O  O67  1  0.50764784  0.87092246  0.36012113  1
  O  O68  1  0.36554963  0.48674200  0.36258515  1
  O  O69  1  0.12119138  0.48674200  0.86258515  1
  O  O70  1  0.36327362  0.87092246  0.86012113  1
  O  O71  1  0.50782158  0.62906307  0.86112691  1
  O  O72  1  0.02348422  0.83558526  0.41074118  1
  O  O73  1  0.81075060  0.97952067  0.41093693  1
  O  O74  1  0.17366999  0.19642533  0.41150940  1
  O  O75  1  0.02275534  0.19642533  0.91150940  1
  O  O76  1  0.16877007  0.97952067  0.91093693  1
  O  O77  1  0.81210104  0.83558526  0.91074118  1
  O  O78  1  0.97833840  0.16445719  0.58876921  1
  O  O79  1  0.19429270  0.02457349  0.58964555  1
  O  O80  1  0.84249782  0.81156724  0.59027212  1
  O  O81  1  0.96906942  0.81156724  0.09027212  1
  O  O82  1  0.83028079  0.02457349  0.08964555  1
  O  O83  1  0.18611880  0.16445719  0.08876921  1
  O  O84  1  0.69015122  0.16891826  0.74407418  1
  O  O85  1  0.47741760  0.31285367  0.74426993  1
  O  O86  1  0.84033699  0.52975833  0.74484240  1
  O  O87  1  0.68942234  0.52975833  0.24484240  1
  O  O88  1  0.83543707  0.31285367  0.24426993  1
  O  O89  1  0.47876804  0.16891826  0.24407418  1
  O  O90  1  0.64500540  0.49779019  0.92210221  1
  O  O91  1  0.86095970  0.35790649  0.92297855  1
  O  O92  1  0.50916482  0.14490024  0.92360512  1
  O  O93  1  0.63573642  0.14490024  0.42360512  1
  O  O94  1  0.49694779  0.35790649  0.42297855  1
  O  O95  1  0.85278580  0.49779019  0.42210221  1
  O  O96  1  0.35681722  0.50225226  0.07740818  1
  O  O97  1  0.14408360  0.64618767  0.07760393  1
  O  O98  1  0.50700299  0.86309233  0.07817640  1
  O  O99  1  0.35608834  0.86309233  0.57817640  1
  O  O100  1  0.50210307  0.64618767  0.57760393  1
  O  O101  1  0.14543404  0.50225226  0.57740818  1
  O  O102  1  0.31167140  0.83112419  0.25543621  1
  O  O103  1  0.52762570  0.69124049  0.25631255  1
  O  O104  1  0.17583082  0.47823424  0.25693912  1
  O  O105  1  0.30240242  0.47823424  0.75693912  1
  O  O106  1  0.16361379  0.69124049  0.75631255  1
  O  O107  1  0.51945180  0.83112419  0.75543621  1
