# generated using pymatgen
data_Na6Ca2Hf2Si3(SO8)3
_symmetry_space_group_name_H-M   'P 1'
_cell_length_a   9.29002626
_cell_length_b   9.31411327
_cell_length_c   23.01789040
_cell_angle_alpha   90.11174269
_cell_angle_beta   90.67060655
_cell_angle_gamma   119.69853487
_symmetry_Int_Tables_number   1
_chemical_formula_structural   Na6Ca2Hf2Si3(SO8)3
_chemical_formula_sum   'Na18 Ca6 Hf6 Si9 S9 O72'
_cell_volume   1729.89147968
_cell_formula_units_Z   3
loop_
 _symmetry_equiv_pos_site_id
 _symmetry_equiv_pos_as_xyz
  1  'x, y, z'
loop_
 _atom_site_type_symbol
 _atom_site_label
 _atom_site_symmetry_multiplicity
 _atom_site_fract_x
 _atom_site_fract_y
 _atom_site_fract_z
 _atom_site_occupancy
  Na  Na0  1  0.37065002  0.33988992  0.24275288  1
  Na  Na1  1  0.00342860  0.64687313  0.23416542  1
  Na  Na2  1  0.98104149  0.33691478  0.74084704  1
  Na  Na3  1  0.38692498  0.03864078  0.74228085  1
  Na  Na4  1  0.30137483  0.33112649  0.58033404  1
  Na  Na5  1  0.65117315  0.98817851  0.59766821  1
  Na  Na6  1  0.30738576  0.96555064  0.06821466  1
  Na  Na7  1  0.65343560  0.67063742  0.08112048  1
  Na  Na8  1  0.00219287  0.69263762  0.91790156  1
  Na  Na9  1  0.32023408  0.27929142  0.90384867  1
  Na  Na10  1  0.00167436  0.30706596  0.43220729  1
  Na  Na11  1  0.32167546  0.04221988  0.41265519  1
  Na  Na12  1  0.01508862  0.00392890  0.50802323  1
  Na  Na13  1  0.01561351  0.01354424  0.99247142  1
  Na  Na14  1  0.64372530  0.30339411  0.82219630  1
  Na  Na15  1  0.63498996  0.31432504  0.33185732  1
  Na  Na16  1  0.30793019  0.64584817  0.15266467  1
  Na  Na17  1  0.31141494  0.66281121  0.65929582  1
  Ca  Ca18  1  0.00389953  0.00254654  0.34965091  1
  Ca  Ca19  1  -0.00010373  0.00276528  0.84739306  1
  Ca  Ca20  1  0.66593757  0.33853296  0.68365923  1
  Ca  Ca21  1  0.66476298  0.32531173  0.18228957  1
  Ca  Ca22  1  0.32075844  0.66139785  0.01698983  1
  Ca  Ca23  1  0.32181946  0.65833838  0.51975960  1
  Hf  Hf24  1  0.00368637  0.02020722  0.65030289  1
  Hf  Hf25  1  0.01991835  0.00061821  0.14397472  1
  Hf  Hf26  1  0.65729115  0.32624724  0.98534280  1
  Hf  Hf27  1  0.65042123  0.32866470  0.48842050  1
  Hf  Hf28  1  0.34133574  0.66625690  0.31517043  1
  Hf  Hf29  1  0.35578034  0.68980567  0.81032216  1
  Si  Si30  1  0.30240984  0.99149147  0.25424711  1
  Si  Si31  1  0.30030756  0.31084705  0.75557029  1
  Si  Si32  1  0.70147608  0.99786992  0.74880024  1
  Si  Si33  1  0.96144193  0.32701964  0.58481774  1
  Si  Si34  1  0.35746491  0.03216257  0.58703476  1
  Si  Si35  1  0.96144307  0.63225778  0.08754340  1
  Si  Si36  1  0.36864806  0.33288140  0.08802689  1
  Si  Si37  1  0.34031853  0.97100605  0.91991185  1
  Si  Si38  1  0.34395721  0.37098618  0.41675384  1
  S  S39  1  0.69608958  0.70788705  0.24943935  1
  S  S40  1  0.00967877  0.30350219  0.25231870  1
  S  S41  1  0.01133891  0.70949804  0.75273722  1
  S  S42  1  0.67932131  0.63800550  0.58269392  1
  S  S43  1  0.67884643  0.03969876  0.08289542  1
  S  S44  1  0.62687435  0.65617337  0.91949663  1
  S  S45  1  0.02706435  0.37218618  0.91601677  1
  S  S46  1  0.62315034  0.96577227  0.41764900  1
  S  S47  1  0.03452321  0.65541777  0.41213648  1
  O  O48  1  0.21569363  0.00888473  0.31164740  1
  O  O49  1  0.79251252  0.79412527  0.30107242  1
  O  O50  1  0.99110020  0.21635551  0.30703747  1
  O  O51  1  0.22510123  0.20268024  0.81283926  1
  O  O52  1  0.99342596  0.77381596  0.80840832  1
  O  O53  1  0.80434833  0.00896120  0.80500995  1
  O  O54  1  0.79187291  0.97476978  0.68897058  1
  O  O55  1  0.16798833  0.20597202  0.69788606  1
  O  O56  1  0.02854553  0.82198388  0.70346498  1
  O  O57  1  0.77167672  0.80458258  0.19594124  1
  O  O58  1  0.02354447  0.20877472  0.20220127  1
  O  O59  1  0.17121236  0.96942855  0.19667271  1
  O  O60  1  0.88092454  0.34506573  0.64256952  1
  O  O61  1  0.46263109  0.11834430  0.64410723  1
  O  O62  1  0.65358443  0.54170138  0.63403196  1
  O  O63  1  0.88386433  0.54269531  0.14758331  1
  O  O64  1  0.64850151  0.10881529  0.13534414  1
  O  O65  1  0.45810200  0.34702793  0.14916423  1
  O  O66  1  0.47023157  0.29995418  0.03317446  1
  O  O67  1  0.83626231  0.52717564  0.03078770  1
  O  O68  1  0.69708096  0.14721578  0.03152485  1
  O  O69  1  0.45753143  0.16440042  0.52865799  1
  O  O70  1  0.69024567  0.54186374  0.52992016  1
  O  O71  1  0.84074201  0.31106087  0.52452152  1
  O  O72  1  0.55767141  0.67720190  0.97325159  1
  O  O73  1  0.13157424  0.44941674  0.96742712  1
  O  O74  1  0.32424162  0.87354318  0.97868005  1
  O  O75  1  0.55378744  0.87768960  0.47010190  1
  O  O76  1  0.31993543  0.45521708  0.47293602  1
  O  O77  1  0.13712178  0.68690797  0.46377170  1
  O  O78  1  0.12956518  0.64217718  0.36002481  1
  O  O79  1  0.51252683  0.86987978  0.36554793  1
  O  O80  1  0.35686810  0.48796491  0.35776034  1
  O  O81  1  0.10573357  0.47429851  0.86350269  1
  O  O82  1  0.35017213  0.86161515  0.86305088  1
  O  O83  1  0.51580492  0.63851371  0.86851587  1
  O  O84  1  0.00293961  0.79358833  0.40479350  1
  O  O85  1  0.79391323  0.99919073  0.40873081  1
  O  O86  1  0.17801327  0.18614319  0.41351351  1
  O  O87  1  0.00098758  0.20379991  0.91194858  1
  O  O88  1  0.17446110  0.99136388  0.91744905  1
  O  O89  1  0.79810394  0.78845581  0.91258258  1
  O  O90  1  0.95572541  0.14106033  0.58514098  1
  O  O91  1  0.17532791  0.02510665  0.58876607  1
  O  O92  1  0.83615818  0.79890372  0.58405366  1
  O  O93  1  0.95484818  0.81444731  0.08909071  1
  O  O94  1  0.83564800  0.03239452  0.08879619  1
  O  O95  1  0.18362410  0.15528397  0.08852189  1
  O  O96  1  0.67722998  0.15838277  0.74678457  1
  O  O97  1  0.48245989  0.33734937  0.74707019  1
  O  O98  1  0.87798459  0.54074534  0.74438770  1
  O  O99  1  0.67842587  0.54119590  0.24762637  1
  O  O100  1  0.87730535  0.34348309  0.24628049  1
  O  O101  1  0.48191776  0.15478248  0.24955632  1
  O  O102  1  0.62788208  0.49239737  0.92173132  1
  O  O103  1  0.86340283  0.37000596  0.92306544  1
  O  O104  1  0.50883288  0.16132991  0.92260118  1
  O  O105  1  0.62552995  0.13019127  0.41728777  1
  O  O106  1  0.51319523  0.34837817  0.41900574  1
  O  O107  1  0.87695452  0.49357170  0.41416818  1
  O  O108  1  0.36089508  0.49918679  0.07861455  1
  O  O109  1  0.15436808  0.68611781  0.08282597  1
  O  O110  1  0.54059020  0.87131733  0.07434479  1
  O  O111  1  0.35871371  0.86261579  0.57665396  1
  O  O112  1  0.53777836  0.66559909  0.57402927  1
  O  O113  1  0.15423579  0.46615047  0.58028629  1
  O  O114  1  0.30032178  0.80950744  0.25662056  1
  O  O115  1  0.52260505  0.68584662  0.25390685  1
  O  O116  1  0.17423597  0.46769792  0.25395078  1
  O  O117  1  0.28896417  0.48447586  0.76095865  1
  O  O118  1  0.17478908  0.70668187  0.75396789  1
  O  O119  1  0.50948898  0.82963646  0.75190772  1
