# generated using pymatgen
data_KTlCl4
_symmetry_space_group_name_H-M   'P 1'
_cell_length_a   6.96168487
_cell_length_b   6.96168436
_cell_length_c   9.07063889
_cell_angle_alpha   112.56605934
_cell_angle_beta   112.56606275
_cell_angle_gamma   90.00000775
_symmetry_Int_Tables_number   1
_chemical_formula_structural   KTlCl4
_chemical_formula_sum   'K2 Tl2 Cl8'
_cell_volume   369.23865902
_cell_formula_units_Z   2
loop_
 _symmetry_equiv_pos_site_id
 _symmetry_equiv_pos_as_xyz
  1  'x, y, z'
loop_
 _atom_site_type_symbol
 _atom_site_label
 _atom_site_symmetry_multiplicity
 _atom_site_fract_x
 _atom_site_fract_y
 _atom_site_fract_z
 _atom_site_occupancy
  K  K0  1  0.62500000  0.87500000  0.25000000  1
  K  K1  1  0.37500000  0.12500000  0.75000000  1
  Tl  Tl2  1  0.87500000  0.62500000  0.75000000  1
  Tl  Tl3  1  0.12500000  0.37500000  0.25000000  1
  Cl  Cl4  1  0.62133691  0.29118895  0.57615006  1
  Cl  Cl5  1  0.79118895  0.45481415  0.07615006  1
  Cl  Cl6  1  0.37866309  0.70881105  0.42384994  1
  Cl  Cl7  1  0.71503889  0.87866309  0.92384994  1
  Cl  Cl8  1  0.28496111  0.12133691  0.07615006  1
  Cl  Cl9  1  0.04518585  0.21503889  0.42384994  1
  Cl  Cl10  1  0.20881105  0.54518585  0.92384994  1
  Cl  Cl11  1  0.95481415  0.78496111  0.57615006  1
