# generated using pymatgen
data_Na8Zr2Ga2Si5SO24
_symmetry_space_group_name_H-M   'P 1'
_cell_length_a   9.13373608
_cell_length_b   9.11443896
_cell_length_c   22.35165174
_cell_angle_alpha   89.86378956
_cell_angle_beta   89.72515742
_cell_angle_gamma   119.73551545
_symmetry_Int_Tables_number   1
_chemical_formula_structural   Na8Zr2Ga2Si5SO24
_chemical_formula_sum   'Na24 Zr6 Ga6 Si15 S3 O72'
_cell_volume   1615.69145918
_cell_formula_units_Z   3
loop_
 _symmetry_equiv_pos_site_id
 _symmetry_equiv_pos_as_xyz
  1  'x, y, z'
loop_
 _atom_site_type_symbol
 _atom_site_label
 _atom_site_symmetry_multiplicity
 _atom_site_fract_x
 _atom_site_fract_y
 _atom_site_fract_z
 _atom_site_occupancy
  Na  Na0  1  0.63932597  0.00197020  0.25249916  1
  Na  Na1  1  0.36045295  0.36259440  0.24691944  1
  Na  Na2  1  -0.00001196  0.63593403  0.24976323  1
  Na  Na3  1  0.63457919  0.63556426  0.74774372  1
  Na  Na4  1  0.99842040  0.36304489  0.75051037  1
  Na  Na5  1  0.36717207  0.00422291  0.75045670  1
  Na  Na6  1  0.30269987  0.33955118  0.58438553  1
  Na  Na7  1  0.03727572  0.69965757  0.58163815  1
  Na  Na8  1  0.66325360  0.96262282  0.58195490  1
  Na  Na9  1  0.28663635  0.96402404  0.08106326  1
  Na  Na10  1  0.66886093  0.69598510  0.08582199  1
  Na  Na11  1  0.04238464  0.33410529  0.08658699  1
  Na  Na12  1  0.97204614  0.66919293  0.91660191  1
  Na  Na13  1  0.70378164  0.04212705  0.91135737  1
  Na  Na14  1  0.32201281  0.28543945  0.91889923  1
  Na  Na15  1  0.96174115  0.29243222  0.41103354  1
  Na  Na16  1  0.32651991  0.02209726  0.41512255  1
  Na  Na17  1  0.71490279  0.68224838  0.41716658  1
  Na  Na18  1  0.99314539  0.99136643  0.49873277  1
  Na  Na19  1  0.01485303  0.00585518  0.99994060  1
  Na  Na20  1  0.66663343  0.32609138  0.83450229  1
  Na  Na21  1  0.67469441  0.33133095  0.33206425  1
  Na  Na22  1  0.32637044  0.65736375  0.16382317  1
  Na  Na23  1  0.33509210  0.66676275  0.66287529  1
  Zr  Zr24  1  0.99970726  0.00072984  0.64835809  1
  Zr  Zr25  1  0.66955322  0.33521984  0.68518277  1
  Zr  Zr26  1  0.66825657  0.34310760  0.18581971  1
  Zr  Zr27  1  0.67448349  0.33252791  0.48319003  1
  Zr  Zr28  1  0.33009732  0.67219553  0.31183597  1
  Zr  Zr29  1  0.32362589  0.67008665  0.81567383  1
  Ga  Ga30  1  0.98666110  0.98389325  0.34672712  1
  Ga  Ga31  1  0.01536057  0.01351439  0.84849567  1
  Ga  Ga32  1  0.01376142  0.99868837  0.15220240  1
  Ga  Ga33  1  0.66380926  0.33347322  0.98356138  1
  Ga  Ga34  1  0.29336922  0.64220361  0.01620811  1
  Ga  Ga35  1  0.33849506  0.68780136  0.52098639  1
  Si  Si36  1  0.28503584  0.00277442  0.25107299  1
  Si  Si37  1  0.71550262  0.71702602  0.24818874  1
  Si  Si38  1  0.99933364  0.27871905  0.24963170  1
  Si  Si39  1  0.29465638  0.29397486  0.75203012  1
  Si  Si40  1  0.99646415  0.71214315  0.75405935  1
  Si  Si41  1  0.71131867  0.99940496  0.75419945  1
  Si  Si42  1  0.97421014  0.34094663  0.58207259  1
  Si  Si43  1  0.37076727  0.03616460  0.58237756  1
  Si  Si44  1  0.65940548  0.63015356  0.58122154  1
  Si  Si45  1  0.95880971  0.63080874  0.08020537  1
  Si  Si46  1  0.37039553  0.33707129  0.07938294  1
  Si  Si47  1  0.02775638  0.36081440  0.91898209  1
  Si  Si48  1  0.33566766  0.96460407  0.92140171  1
  Si  Si49  1  0.63063513  0.95773765  0.41734527  1
  Si  Si50  1  0.04182632  0.67330309  0.41799783  1
  S  S51  1  0.66631407  0.03890308  0.08166291  1
  S  S52  1  0.62485847  0.66637001  0.91916133  1
  S  S53  1  0.33176583  0.37389748  0.41766118  1
  O  O54  1  0.20352097  0.03860616  0.31040202  1
  O  O55  1  0.82618106  0.78623500  0.30893674  1
  O  O56  1  0.96724738  0.16660083  0.31058717  1
  O  O57  1  0.21467801  0.17494009  0.81090977  1
  O  O58  1  0.96471000  0.79959732  0.81231618  1
  O  O59  1  0.83144135  0.03168700  0.81189715  1
  O  O60  1  0.78998136  0.96625675  0.69308432  1
  O  O61  1  0.17710011  0.21403352  0.69273314  1
  O  O62  1  0.03349385  0.82464972  0.69315317  1
  O  O63  1  0.79782537  0.83570972  0.18923030  1
  O  O64  1  0.03244682  0.19834152  0.18924334  1
  O  O65  1  0.17328206  0.96063622  0.19060899  1
  O  O66  1  0.88570989  0.37403207  0.64058174  1
  O  O67  1  0.49153654  0.12550375  0.64047924  1
  O  O68  1  0.62994580  0.51064859  0.64039007  1
  O  O69  1  0.87676710  0.50778715  0.13957140  1
  O  O70  1  0.63906695  0.11807853  0.13603066  1
  O  O71  1  0.48977726  0.36865076  0.13919588  1
  O  O72  1  0.46173272  0.29879718  0.02295671  1
  O  O73  1  0.83570064  0.53769401  0.02294979  1
  O  O74  1  0.69292127  0.14708235  0.02835772  1
  O  O75  1  0.45616140  0.15701967  0.52346953  1
  O  O76  1  0.69517493  0.54187370  0.52323587  1
  O  O77  1  0.84751032  0.30074005  0.52468329  1
  O  O78  1  0.54229521  0.69084932  0.97219405  1
  O  O79  1  0.15463891  0.44264558  0.97610939  1
  O  O80  1  0.30646533  0.83687190  0.97844458  1
  O  O81  1  0.54161179  0.83658840  0.47568241  1
  O  O82  1  0.31003036  0.45549940  0.47109561  1
  O  O83  1  0.16116728  0.70034413  0.47590246  1
  O  O84  1  0.12331862  0.63174698  0.35898814  1
  O  O85  1  0.51138559  0.86940274  0.35854494  1
  O  O86  1  0.35744958  0.47742263  0.36294908  1
  O  O87  1  0.11722550  0.48697584  0.86092571  1
  O  O88  1  0.37363714  0.88225333  0.86154807  1
  O  O89  1  0.52128066  0.64176373  0.86461886  1
  O  O90  1  0.02783932  0.84615468  0.41171017  1
  O  O91  1  0.82163220  0.98254564  0.41194702  1
  O  O92  1  0.18128301  0.20448667  0.41329329  1
  O  O93  1  0.00962512  0.17234276  0.91206304  1
  O  O94  1  0.16046171  0.97426056  0.91461613  1
  O  O95  1  0.79447220  0.81755750  0.91415742  1
  O  O96  1  0.98570847  0.16878511  0.58580372  1
  O  O97  1  0.18467432  0.01858911  0.58599159  1
  O  O98  1  0.83051453  0.81459454  0.58596132  1
  O  O99  1  0.97370800  0.81821359  0.08719645  1
  O  O100  1  0.82023046  0.02427590  0.08625659  1
  O  O101  1  0.18173007  0.16774491  0.08687573  1
  O  O102  1  0.69122298  0.16834089  0.74828940  1
  O  O103  1  0.48174084  0.31202558  0.74653846  1
  O  O104  1  0.83114758  0.52333102  0.74868160  1
  O  O105  1  0.69316334  0.52484102  0.24452845  1
  O  O106  1  0.83057148  0.30200390  0.24469134  1
  O  O107  1  0.47721420  0.16631166  0.24526026  1
  O  O108  1  0.64037704  0.51077763  0.92168799  1
  O  O109  1  0.84313034  0.35207678  0.92606020  1
  O  O110  1  0.50640493  0.15388532  0.92575399  1
  O  O111  1  0.64193940  0.14532332  0.41923816  1
  O  O112  1  0.48700804  0.35758157  0.41990533  1
  O  O113  1  0.85032957  0.50421347  0.41989808  1
  O  O114  1  0.36158897  0.51550724  0.07390910  1
  O  O115  1  0.14894951  0.64872686  0.07801092  1
  O  O116  1  0.51484513  0.86964966  0.07749908  1
  O  O117  1  0.35685130  0.85132933  0.57960774  1
  O  O118  1  0.48839805  0.64266221  0.57571668  1
  O  O119  1  0.15780197  0.50803924  0.57397281  1
  O  O120  1  0.30799018  0.83339599  0.25461900  1
  O  O121  1  0.52268966  0.68738459  0.25359910  1
  O  O122  1  0.16803088  0.46985423  0.25434287  1
  O  O123  1  0.31731057  0.48344427  0.75756203  1
  O  O124  1  0.16671371  0.69225230  0.75646918  1
  O  O125  1  0.52353516  0.83008220  0.75791913  1
