# generated using pymatgen
data_Na7TaZn3(PO4)6
_symmetry_space_group_name_H-M   'P 1'
_cell_length_a   9.02705992
_cell_length_b   9.01583644
_cell_length_c   22.02870565
_cell_angle_alpha   90.04090382
_cell_angle_beta   90.08528184
_cell_angle_gamma   119.97723485
_symmetry_Int_Tables_number   1
_chemical_formula_structural   Na7TaZn3(PO4)6
_chemical_formula_sum   'Na21 Ta3 Zn9 P18 O72'
_cell_volume   1552.99638643
_cell_formula_units_Z   3
loop_
 _symmetry_equiv_pos_site_id
 _symmetry_equiv_pos_as_xyz
  1  'x, y, z'
loop_
 _atom_site_type_symbol
 _atom_site_label
 _atom_site_symmetry_multiplicity
 _atom_site_fract_x
 _atom_site_fract_y
 _atom_site_fract_z
 _atom_site_occupancy
  Na  Na0  1  0.63290391  0.99971419  0.24791880  1
  Na  Na1  1  0.36661876  0.36697900  0.24789212  1
  Na  Na2  1  0.00030494  0.63335608  0.24800491  1
  Na  Na3  1  0.65477634  0.63779945  0.74556251  1
  Na  Na4  1  0.98674257  0.34988301  0.74554406  1
  Na  Na5  1  0.29180286  0.33457688  0.58638175  1
  Na  Na6  1  0.04147583  0.70834695  0.58632858  1
  Na  Na7  1  0.66639853  0.95950464  0.58639516  1
  Na  Na8  1  0.29014508  0.95734271  0.08715961  1
  Na  Na9  1  0.66559952  0.70868166  0.08733222  1
  Na  Na10  1  0.04423922  0.33297574  0.08776940  1
  Na  Na11  1  0.31732017  0.29398321  0.91099836  1
  Na  Na12  1  0.98347225  0.29884741  0.40467021  1
  Na  Na13  1  0.31546341  0.01625637  0.40499930  1
  Na  Na14  1  0.70134899  0.68457770  0.40462444  1
  Na  Na15  1  0.00006069  0.00003205  0.49886061  1
  Na  Na16  1  0.98610416  0.98692650  0.99609850  1
  Na  Na17  1  0.66294307  0.31858806  0.82520437  1
  Na  Na18  1  0.66697935  0.33344182  0.32165686  1
  Na  Na19  1  0.33342293  0.66646756  0.16868768  1
  Na  Na20  1  0.33467608  0.68013893  0.66041136  1
  Ta  Ta21  1  0.67106324  0.33423331  0.97874909  1
  Ta  Ta22  1  0.66591881  0.33274525  0.48223746  1
  Ta  Ta23  1  0.33331568  0.67308949  0.81570866  1
  Zn  Zn24  1  0.00044735  0.99986447  0.34073548  1
  Zn  Zn25  1  0.99522978  0.99333981  0.84903692  1
  Zn  Zn26  1  0.00271860  0.99856813  0.65654438  1
  Zn  Zn27  1  0.99977462  0.99934338  0.15459018  1
  Zn  Zn28  1  0.65968375  0.32645696  0.68428229  1
  Zn  Zn29  1  0.66702965  0.33357684  0.18159418  1
  Zn  Zn30  1  0.33483000  0.67011443  0.01465082  1
  Zn  Zn31  1  0.33335004  0.66709071  0.51249149  1
  Zn  Zn32  1  0.33306065  0.66653957  0.31770259  1
  P  P33  1  0.29820356  0.99823526  0.24965758  1
  P  P34  1  0.69999775  0.70179666  0.24960519  1
  P  P35  1  0.00184374  0.29973613  0.24970085  1
  P  P36  1  0.29698984  0.29799283  0.75234450  1
  P  P37  1  0.00245488  0.70614205  0.74919663  1
  P  P38  1  0.70530760  -0.00030719  0.74979112  1
  P  P39  1  0.96339215  0.33467141  0.58663609  1
  P  P40  1  0.37203582  0.03735422  0.58507491  1
  P  P41  1  0.66592972  0.62938738  0.58652115  1
  P  P42  1  0.96180329  0.62700061  0.08491780  1
  P  P43  1  0.66520093  0.03864970  0.08475287  1
  P  P44  1  0.37390071  0.33453007  0.08337896  1
  P  P45  1  0.63116571  0.66917882  0.91966132  1
  P  P46  1  0.03840815  0.37211889  0.91929568  1
  P  P47  1  0.33222127  0.96291395  0.92124364  1
  P  P48  1  0.63018807  0.96391418  0.41856543  1
  P  P49  1  0.33416496  0.37034731  0.41855535  1
  P  P50  1  0.03550200  0.66579429  0.41858561  1
  O  O51  1  0.21507484  0.02087767  0.30792664  1
  O  O52  1  0.80598651  0.78498662  0.30794990  1
  O  O53  1  0.97936031  0.19379069  0.30792168  1
  O  O54  1  0.21260462  0.19878744  0.80946197  1
  O  O55  1  0.97501785  0.79514100  0.80219553  1
  O  O56  1  0.82080096  0.02548251  0.80310339  1
  O  O57  1  0.76606564  0.95300784  0.69041745  1
  O  O58  1  0.18711436  0.22765468  0.69404920  1
  O  O59  1  0.03388929  0.80164360  0.68831891  1
  O  O60  1  0.78487484  0.81027287  0.19232825  1
  O  O61  1  0.02513489  0.21467721  0.19226165  1
  O  O62  1  0.18982919  0.97474882  0.19219918  1
  O  O63  1  0.88090230  0.35732060  0.64335080  1
  O  O64  1  0.48538390  0.12422351  0.63913149  1
  O  O65  1  0.64602284  0.52539338  0.64341349  1
  O  O66  1  0.88125270  0.52279567  0.14204000  1
  O  O67  1  0.64239483  0.11922387  0.14213657  1
  O  O68  1  0.47972164  0.35724094  0.14015271  1
  O  O69  1  0.47952948  0.32385522  0.02568205  1
  O  O70  1  0.84101857  0.51792200  0.02834967  1
  O  O71  1  0.67582856  0.15961524  0.02855800  1
  O  O72  1  0.47417475  0.15083513  0.52640847  1
  O  O73  1  0.67440959  0.51982431  0.52983873  1
  O  O74  1  0.84418738  0.32334536  0.52984749  1
  O  O75  1  0.54771255  0.68072252  0.97781638  1
  O  O76  1  0.14125995  0.45431289  0.97642254  1
  O  O77  1  0.31678172  0.86900224  0.97954919  1
  O  O78  1  0.55050888  0.86220407  0.47668093  1
  O  O79  1  0.31197007  0.44987199  0.47680742  1
  O  O80  1  0.13748997  0.68813512  0.47674779  1
  O  O81  1  0.10862039  0.62545237  0.36252139  1
  O  O82  1  0.51651427  0.89030498  0.36246608  1
  O  O83  1  0.37346051  0.48362000  0.36251405  1
  O  O84  1  0.13539139  0.49316197  0.86282727  1
  O  O85  1  0.35282221  0.86028070  0.86608405  1
  O  O86  1  0.50404141  0.64087620  0.86410440  1
  O  O87  1  0.00576329  0.81893195  0.41329538  1
  O  O88  1  0.81289135  0.99380740  0.41342586  1
  O  O89  1  0.18172567  0.18720523  0.41331467  1
  O  O90  1  0.01800823  0.19620632  0.91047564  1
  O  O91  1  0.18553086  0.99726582  0.91170327  1
  O  O92  1  0.80833672  0.81735739  0.91046757  1
  O  O93  1  0.96919894  0.16719589  0.58356219  1
  O  O94  1  0.19967407  0.03354029  0.58337980  1
  O  O95  1  0.83293251  0.80217774  0.58250655  1
  O  O96  1  0.96615417  0.79953600  0.08188713  1
  O  O97  1  0.83274048  0.03354700  0.08140260  1
  O  O98  1  0.20079243  0.16702214  0.08058835  1
  O  O99  1  0.68024754  0.15506533  0.74499445  1
  O  O100  1  0.48315196  0.33854140  0.74769203  1
  O  O101  1  0.85120542  0.51981663  0.74696429  1
  O  O102  1  0.68148596  0.52141173  0.24677201  1
  O  O103  1  0.84015941  0.31823250  0.24701985  1
  O  O104  1  0.47810470  0.16018059  0.24693100  1
  O  O105  1  0.63254330  0.49150397  0.91993926  1
  O  O106  1  0.85758109  0.36037901  0.92113533  1
  O  O107  1  0.50411271  0.14506643  0.92059085  1
  O  O108  1  0.65224720  0.15243703  0.42508445  1
  O  O109  1  0.50164073  0.35038178  0.42509000  1
  O  O110  1  0.84765914  0.49923576  0.42554279  1
  O  O111  1  0.35387509  0.49372392  0.07812585  1
  O  O112  1  0.13945989  0.64542569  0.07825985  1
  O  O113  1  0.50627703  0.86020768  0.07837666  1
  O  O114  1  0.35077379  0.85794219  0.57845967  1
  O  O115  1  0.50611801  0.64747577  0.57981464  1
  O  O116  1  0.14121883  0.49397538  0.57941817  1
  O  O117  1  0.31591094  0.83592052  0.25368171  1
  O  O118  1  0.52014612  0.68394098  0.25356437  1
  O  O119  1  0.16394611  0.47973602  0.25371445  1
  O  O120  1  0.31276534  0.48645424  0.75916048  1
  O  O121  1  0.16804150  0.68488739  0.75933434  1
  O  O122  1  0.52052934  0.83218077  0.76109681  1
