# generated using pymatgen
data_Ba2Mg(AgO2)2
_symmetry_space_group_name_H-M   'P 1'
_cell_length_a   3.81321102
_cell_length_b   3.60211169
_cell_length_c   13.30168645
_cell_angle_alpha   90.00000000
_cell_angle_beta   76.01106953
_cell_angle_gamma   90.00000000
_symmetry_Int_Tables_number   1
_chemical_formula_structural   Ba2Mg(AgO2)2
_chemical_formula_sum   'Ba2 Mg1 Ag2 O4'
_cell_volume   177.28816728
_cell_formula_units_Z   1
loop_
 _symmetry_equiv_pos_site_id
 _symmetry_equiv_pos_as_xyz
  1  'x, y, z'
loop_
 _atom_site_type_symbol
 _atom_site_label
 _atom_site_symmetry_multiplicity
 _atom_site_fract_x
 _atom_site_fract_y
 _atom_site_fract_z
 _atom_site_occupancy
  Ba  Ba0  1  0.90512633  0.25000000  0.70635286  1
  Ba  Ba1  1  0.25185290  0.75000000  0.30445357  1
  Mg  Mg2  1  0.58533989  0.75000000  0.49837069  1
  Ag  Ag3  1  0.96507214  0.25000000  0.08119435  1
  Ag  Ag4  1  0.19023807  0.75000000  0.92584651  1
  O  O5  1  0.65847662  0.25000000  0.40984493  1
  O  O6  1  0.30456523  0.25000000  0.82886413  1
  O  O7  1  0.02838520  0.75000000  0.56545334  1
  O  O8  1  0.86094362  0.75000000  0.17247663  1
