# generated using pymatgen
data_Na3ScSi2GeSO12
_symmetry_space_group_name_H-M   'P 1'
_cell_length_a   8.96104747
_cell_length_b   8.96104716
_cell_length_c   22.12450308
_cell_angle_alpha   86.56102408
_cell_angle_beta   93.43897594
_cell_angle_gamma   118.80243066
_symmetry_Int_Tables_number   1
_chemical_formula_structural   Na3ScSi2GeSO12
_chemical_formula_sum   'Na18 Sc6 Si12 Ge6 S6 O72'
_cell_volume   1553.03014987
_cell_formula_units_Z   6
loop_
 _symmetry_equiv_pos_site_id
 _symmetry_equiv_pos_as_xyz
  1  'x, y, z'
loop_
 _atom_site_type_symbol
 _atom_site_label
 _atom_site_symmetry_multiplicity
 _atom_site_fract_x
 _atom_site_fract_y
 _atom_site_fract_z
 _atom_site_occupancy
  Na  Na0  1  0.64142228  0.00534900  0.24337923  1
  Na  Na1  1  0.99600628  0.63290522  0.24912940  1
  Na  Na2  1  0.99465100  0.35857772  0.74337923  1
  Na  Na3  1  0.36709478  0.00399372  0.74912940  1
  Na  Na4  1  0.30808928  0.33868200  0.57671223  1
  Na  Na5  1  0.66267328  0.96623822  0.58246240  1
  Na  Na6  1  0.66131800  0.69191072  0.07671223  1
  Na  Na7  1  0.03376178  0.33732672  0.08246240  1
  Na  Na8  1  0.97475528  0.67201600  0.91004623  1
  Na  Na9  1  0.32933928  0.29957222  0.91579640  1
  Na  Na10  1  0.32798400  0.02524472  0.41004623  1
  Na  Na11  1  0.70042778  0.67066072  0.41579640  1
  Na  Na12  1  0.00194238  0.01933262  0.49806088  1
  Na  Na13  1  0.98066738  0.99805762  0.99806088  1
  Na  Na14  1  0.66860938  0.35266562  0.83139388  1
  Na  Na15  1  0.64733438  0.33139062  0.33139388  1
  Na  Na16  1  0.33527538  0.68599962  0.16472788  1
  Na  Na17  1  0.31400038  0.66472462  0.66472788  1
  Sc  Sc18  1  0.00495887  0.00522708  0.35373106  1
  Sc  Sc19  1  0.99477292  0.99504113  0.85373106  1
  Sc  Sc20  1  0.67162587  0.33856008  0.68706406  1
  Sc  Sc21  1  0.66143992  0.32837413  0.18706406  1
  Sc  Sc22  1  0.33829187  0.67189408  0.02039806  1
  Sc  Sc23  1  0.32810592  0.66170813  0.52039806  1
  Si  Si24  1  0.28481055  0.99221694  0.25350887  1
  Si  Si25  1  0.70398580  0.70294656  0.25257472  1
  Si  Si26  1  0.29705344  0.29601420  0.75257472  1
  Si  Si27  1  0.00778306  0.71518945  0.75350887  1
  Si  Si28  1  0.95147755  0.32554994  0.58684187  1
  Si  Si29  1  0.37065280  0.03627956  0.58590772  1
  Si  Si30  1  0.96372044  0.62934720  0.08590772  1
  Si  Si31  1  0.67445006  0.04852245  0.08684187  1
  Si  Si32  1  0.61814355  0.65888394  0.92017587  1
  Si  Si33  1  0.03731880  0.36961356  0.91924172  1
  Si  Si34  1  0.63038644  0.96268120  0.41924172  1
  Si  Si35  1  0.34111606  0.38185645  0.42017587  1
  Ge  Ge36  1  0.04776816  0.02919329  0.64709806  1
  Ge  Ge37  1  0.97080671  0.95223184  0.14709806  1
  Ge  Ge38  1  0.71443516  0.36252629  0.98043106  1
  Ge  Ge39  1  0.63747371  0.28556484  0.48043106  1
  Ge  Ge40  1  0.38110116  0.69586029  0.31376506  1
  Ge  Ge41  1  0.30413971  0.61889884  0.81376506  1
  S  S42  1  0.01218060  0.30139107  0.24714104  1
  S  S43  1  0.69860893  0.98781940  0.74714104  1
  S  S44  1  0.67884760  0.63472407  0.58047404  1
  S  S45  1  0.36527593  0.32115240  0.08047404  1
  S  S46  1  0.34551360  0.96805807  0.91380804  1
  S  S47  1  0.03194193  0.65448640  0.41380804  1
  O  O48  1  0.20454450  0.01369915  0.31306200  1
  O  O49  1  0.81952351  0.79784765  0.31081196  1
  O  O50  1  0.99248769  0.19129774  0.30166068  1
  O  O51  1  0.20215235  0.18047649  0.81081196  1
  O  O52  1  0.98630085  0.79545550  0.81306200  1
  O  O53  1  0.80870226  0.00751231  0.80166068  1
  O  O54  1  0.77622425  0.97346280  0.69242091  1
  O  O55  1  0.17601076  0.21842433  0.68922614  1
  O  O56  1  0.04627128  0.85605192  0.69391385  1
  O  O57  1  0.78157567  0.82398924  0.18922614  1
  O  O58  1  0.02653720  0.22377575  0.19242091  1
  O  O59  1  0.14394808  0.95372872  0.19391385  1
  O  O60  1  0.87121150  0.34703215  0.64639500  1
  O  O61  1  0.48619051  0.13118065  0.64414496  1
  O  O62  1  0.65915469  0.52463074  0.63499368  1
  O  O63  1  0.86881935  0.51380949  0.14414496  1
  O  O64  1  0.65296785  0.12878850  0.14639500  1
  O  O65  1  0.47536926  0.34084531  0.13499368  1
  O  O66  1  0.44289125  0.30679580  0.02575391  1
  O  O67  1  0.84267776  0.55175733  0.02255914  1
  O  O68  1  0.71293828  0.18938492  0.02724685  1
  O  O69  1  0.44824267  0.15732224  0.52255914  1
  O  O70  1  0.69320420  0.55710875  0.52575391  1
  O  O71  1  0.81061508  0.28706172  0.52724685  1
  O  O72  1  0.53787750  0.68036615  0.97972900  1
  O  O73  1  0.15285651  0.46451465  0.97747896  1
  O  O74  1  0.32582069  0.85796474  0.96832768  1
  O  O75  1  0.53548535  0.84714349  0.47747896  1
  O  O76  1  0.31963385  0.46212250  0.47972900  1
  O  O77  1  0.14203526  0.67417931  0.46832768  1
  O  O78  1  0.10955725  0.64012980  0.35908791  1
  O  O79  1  0.50934376  0.88509133  0.35589314  1
  O  O80  1  0.37960428  0.52271892  0.36058085  1
  O  O81  1  0.11490867  0.49065624  0.85589314  1
  O  O82  1  0.35987020  0.89044275  0.85908791  1
  O  O83  1  0.47728108  0.62039572  0.86058085  1
  O  O84  1  0.01727798  0.81430478  0.41306856  1
  O  O85  1  0.81503046  0.97675321  0.41376734  1
  O  O86  1  0.19045413  0.18858350  0.41174953  1
  O  O87  1  0.02324679  0.18496954  0.91376734  1
  O  O88  1  0.18569522  0.98272202  0.91306856  1
  O  O89  1  0.81141650  0.80954587  0.91174953  1
  O  O90  1  0.95782214  0.13618324  0.59212125  1
  O  O91  1  0.18422675  0.03651502  0.58766192  1
  O  O92  1  0.82598216  0.80724541  0.58591262  1
  O  O93  1  0.96348498  0.81577325  0.08766192  1
  O  O94  1  0.86381676  0.04217786  0.09212125  1
  O  O95  1  0.19275459  0.17401784  0.08591262  1
  O  O96  1  0.68394498  0.14763778  0.74640156  1
  O  O97  1  0.48169746  0.31008621  0.74710034  1
  O  O98  1  0.85712113  0.52191650  0.74508253  1
  O  O99  1  0.68991379  0.51830254  0.24710034  1
  O  O100  1  0.85236222  0.31605502  0.24640156  1
  O  O101  1  0.47808350  0.14287887  0.24508253  1
  O  O102  1  0.62448914  0.46951624  0.92545425  1
  O  O103  1  0.85089375  0.36984802  0.92099492  1
  O  O104  1  0.49264916  0.14057841  0.91924562  1
  O  O105  1  0.63015198  0.14910625  0.42099492  1
  O  O106  1  0.53048376  0.37551086  0.42545425  1
  O  O107  1  0.85942159  0.50735084  0.41924562  1
  O  O108  1  0.35061098  0.48097178  0.07973556  1
  O  O109  1  0.14836346  0.64342021  0.08043434  1
  O  O110  1  0.52378713  0.85525050  0.07841653  1
  O  O111  1  0.35657979  0.85163654  0.58043434  1
  O  O112  1  0.51902822  0.64938902  0.57973556  1
  O  O113  1  0.14474950  0.47621287  0.57841653  1
  O  O114  1  0.29115514  0.80285024  0.25878825  1
  O  O115  1  0.51755975  0.70318202  0.25432892  1
  O  O116  1  0.15931516  0.47391241  0.25257962  1
  O  O117  1  0.29681798  0.48244025  0.75432892  1
  O  O118  1  0.19714976  0.70884486  0.75878825  1
  O  O119  1  0.52608759  0.84068484  0.75257962  1
