# generated using pymatgen
data_YTiP(SO6)2
_symmetry_space_group_name_H-M   'P 1'
_cell_length_a   8.95962439
_cell_length_b   8.99265640
_cell_length_c   22.54152054
_cell_angle_alpha   89.50328942
_cell_angle_beta   90.00000000
_cell_angle_gamma   119.87856510
_symmetry_Int_Tables_number   1
_chemical_formula_structural   YTiP(SO6)2
_chemical_formula_sum   'Y6 Ti6 P6 S12 O72'
_cell_volume   1574.70810959
_cell_formula_units_Z   6
loop_
 _symmetry_equiv_pos_site_id
 _symmetry_equiv_pos_as_xyz
  1  'x, y, z'
loop_
 _atom_site_type_symbol
 _atom_site_label
 _atom_site_symmetry_multiplicity
 _atom_site_fract_x
 _atom_site_fract_y
 _atom_site_fract_z
 _atom_site_occupancy
  Y  Y0  1  0.00376692  0.00074645  0.36339273  1
  Y  Y1  1  0.99697953  0.00074645  0.86339273  1
  Y  Y2  1  0.67209523  0.33494963  0.69672632  1
  Y  Y3  1  0.66285540  0.33494963  0.19672632  1
  Y  Y4  1  0.33053432  0.65891541  0.02986327  1
  Y  Y5  1  0.32838009  0.65891541  0.52986327  1
  Ti  Ti6  1  0.99642283  0.99566655  0.64373230  1
  Ti  Ti7  1  0.99924372  0.99566655  0.14373230  1
  Ti  Ti8  1  0.65813326  0.32693966  0.97730593  1
  Ti  Ti9  1  0.66880740  0.32693966  0.47730593  1
  Ti  Ti10  1  0.34989156  0.65847464  0.31031707  1
  Ti  Ti11  1  0.30858208  0.65847464  0.81031707  1
  P  P12  1  0.71321836  0.73421520  0.24968481  1
  P  P13  1  0.02099684  0.73421520  0.74968481  1
  P  P14  1  0.93227242  0.30095187  0.58266331  1
  P  P15  1  0.36868045  0.30095187  0.08266331  1
  P  P16  1  0.03166429  0.39668848  0.91702544  1
  P  P17  1  0.36502319  0.39668848  0.41702544  1
  S  S18  1  0.26966647  0.96635301  0.24956601  1
  S  S19  1  0.03020625  0.29911974  0.24879133  1
  S  S20  1  0.26891349  0.29911974  0.74879133  1
  S  S21  1  0.69668655  0.96635301  0.74956601  1
  S  S22  1  0.36799477  0.06232647  0.58333270  1
  S  S23  1  0.69438025  0.63143568  0.58291347  1
  S  S24  1  0.93705643  0.63143568  0.08291347  1
  S  S25  1  0.69433269  0.06232647  0.08333270  1
  S  S26  1  0.60234792  0.63885224  0.91653100  1
  S  S27  1  0.36022838  0.96442385  0.91619068  1
  S  S28  1  0.60419446  0.96442385  0.41619068  1
  S  S29  1  0.03650332  0.63885224  0.41653100  1
  O  O30  1  0.20089894  0.00604179  0.30211396  1
  O  O31  1  0.81794492  0.80832968  0.30475961  1
  O  O32  1  0.99390925  0.19379157  0.30227569  1
  O  O33  1  0.19988232  0.19379157  0.80227569  1
  O  O34  1  0.99038476  0.80832968  0.80475961  1
  O  O35  1  0.80514285  0.00604179  0.80211396  1
  O  O36  1  0.78612399  0.94557174  0.69652253  1
  O  O37  1  0.15831758  0.21706334  0.69616573  1
  O  O38  1  0.04974071  0.85404275  0.69473493  1
  O  O39  1  0.80430205  0.85404275  0.19473493  1
  O  O40  1  0.05874575  0.21706334  0.19616573  1
  O  O41  1  0.15944775  0.94557174  0.19652253  1
  O  O42  1  0.85676302  0.33766821  0.63667097  1
  O  O43  1  0.47145592  0.13266130  0.63651201  1
  O  O44  1  0.65286133  0.52461397  0.63626811  1
  O  O45  1  0.87175365  0.52461397  0.13626811  1
  O  O46  1  0.66120638  0.13266130  0.13651201  1
  O  O47  1  0.48090618  0.33766821  0.13667097  1
  O  O48  1  0.46449566  0.27586975  0.02771094  1
  O  O49  1  0.82681681  0.54840141  0.03060173  1
  O  O50  1  0.71969742  0.17388024  0.03001839  1
  O  O51  1  0.45418382  0.17388024  0.53001839  1
  O  O52  1  0.72158560  0.54840141  0.53060173  1
  O  O53  1  0.81137509  0.27586975  0.52771094  1
  O  O54  1  0.53648044  0.67801946  0.97006226  1
  O  O55  1  0.14838798  0.47572200  0.96930005  1
  O  O56  1  0.32899078  0.86181752  0.96995616  1
  O  O57  1  0.53282574  0.86181752  0.46995616  1
  O  O58  1  0.32733302  0.47572200  0.46930005  1
  O  O59  1  0.14153802  0.67801946  0.47006226  1
  O  O60  1  0.12152491  0.61495026  0.36438113  1
  O  O61  1  0.49616744  0.88044158  0.36319294  1
  O  O62  1  0.39187850  0.51871695  0.36037114  1
  O  O63  1  0.12683745  0.51871695  0.86037114  1
  O  O64  1  0.38427314  0.88044158  0.86319294  1
  O  O65  1  0.49342435  0.61495026  0.86438113  1
  O  O66  1  0.99725093  0.77798991  0.40773845  1
  O  O67  1  0.78162293  0.00052167  0.40796087  1
  O  O68  1  0.22003922  0.21778379  0.40460278  1
  O  O69  1  0.99774457  0.21778379  0.90460278  1
  O  O70  1  0.21889873  0.00052167  0.90796087  1
  O  O71  1  0.78073898  0.77798991  0.90773845  1
  O  O72  1  0.94064390  0.13214780  0.59421461  1
  O  O73  1  0.19858533  0.05715916  0.59110155  1
  O  O74  1  0.85862831  0.79885472  0.59233945  1
  O  O75  1  0.94022640  0.79885472  0.09233945  1
  O  O76  1  0.85857383  0.05715916  0.09110155  1
  O  O77  1  0.19150390  0.13214780  0.09421461  1
  O  O78  1  0.66002577  0.10661863  0.73976301  1
  O  O79  1  0.44537507  0.33473996  0.73911673  1
  O  O80  1  0.87736405  0.55294229  0.73926701  1
  O  O81  1  0.67557924  0.55294229  0.23926701  1
  O  O82  1  0.88936589  0.33473996  0.23911673  1
  O  O83  1  0.44659386  0.10661863  0.23976301  1
  O  O84  1  0.60782042  0.47538688  0.92669220  1
  O  O85  1  0.85609626  0.38973895  0.92891742  1
  O  O86  1  0.52485991  0.13389073  0.92342726  1
  O  O87  1  0.60903182  0.13389073  0.42342726  1
  O  O88  1  0.53364369  0.38973895  0.42891742  1
  O  O89  1  0.86756746  0.47538688  0.42669220  1
  O  O90  1  0.33269419  0.44638941  0.07146978  1
  O  O91  1  0.11599922  0.67302692  0.07342133  1
  O  O92  1  0.55199743  0.88780019  0.07376274  1
  O  O93  1  0.33580177  0.88780019  0.57376274  1
  O  O94  1  0.55702669  0.67302692  0.57342133  1
  O  O95  1  0.11369422  0.44638941  0.57146978  1
  O  O96  1  0.27225458  0.80312662  0.25873787  1
  O  O97  1  0.53145931  0.72542970  0.25963616  1
  O  O98  1  0.19310692  0.46879029  0.25817612  1
  O  O99  1  0.27568237  0.46879029  0.75817612  1
  O  O100  1  0.19396939  0.72542970  0.75963616  1
  O  O101  1  0.53087104  0.80312662  0.75873787  1
