# generated using pymatgen
data_Ba2MgTi3Tl2O10
_symmetry_space_group_name_H-M   'P 1'
_cell_length_a   4.98339042
_cell_length_b   3.74355764
_cell_length_c   16.45705590
_cell_angle_alpha   87.58988698
_cell_angle_beta   79.74412836
_cell_angle_gamma   90.24581811
_symmetry_Int_Tables_number   1
_chemical_formula_structural   Ba2MgTi3Tl2O10
_chemical_formula_sum   'Ba2 Mg1 Ti3 Tl2 O10'
_cell_volume   301.82213796
_cell_formula_units_Z   1
loop_
 _symmetry_equiv_pos_site_id
 _symmetry_equiv_pos_as_xyz
  1  'x, y, z'
loop_
 _atom_site_type_symbol
 _atom_site_label
 _atom_site_symmetry_multiplicity
 _atom_site_fract_x
 _atom_site_fract_y
 _atom_site_fract_z
 _atom_site_occupancy
  Ba  Ba0  1  0.06607954  0.15509650  0.23557485  1
  Ba  Ba1  1  0.72419352  0.74755276  0.74173907  1
  Mg  Mg2  1  0.44741331  0.63381545  0.36338038  1
  Ti  Ti3  1  0.16193297  0.22561615  0.85581340  1
  Ti  Ti4  1  0.68777996  0.67131036  0.13079605  1
  Ti  Ti5  1  0.27792247  0.70006665  0.99625338  1
  Tl  Tl6  1  0.85594836  0.82997417  0.47265824  1
  Tl  Tl7  1  0.33676100  0.27351814  0.58587081  1
  O  O8  1  0.26744134  0.72221884  0.87585886  1
  O  O9  1  0.33599488  0.24516130  0.74594696  1
  O  O10  1  0.82085356  0.22834320  0.84490317  1
  O  O11  1  0.02767048  0.77463114  0.58880374  1
  O  O12  1  0.60844650  0.69558407  0.02010258  1
  O  O13  1  0.06292743  0.67813341  0.11126111  1
  O  O14  1  0.67471217  0.65066947  0.25332927  1
  O  O15  1  0.58659193  0.17083043  0.14392549  1
  O  O16  1  0.28197761  0.13053676  0.37916596  1
  O  O17  1  0.19248599  0.20231221  0.98100269  1
