# generated using pymatgen
data_Ho2Mg(SbO3)4
_symmetry_space_group_name_H-M   'P 1'
_cell_length_a   5.76144781
_cell_length_b   5.79393417
_cell_length_c   8.18984663
_cell_angle_alpha   90.49941972
_cell_angle_beta   95.39900337
_cell_angle_gamma   91.36402444
_symmetry_Int_Tables_number   1
_chemical_formula_structural   Ho2Mg(SbO3)4
_chemical_formula_sum   'Ho2 Mg1 Sb4 O12'
_cell_volume   272.08247578
_cell_formula_units_Z   1
loop_
 _symmetry_equiv_pos_site_id
 _symmetry_equiv_pos_as_xyz
  1  'x, y, z'
loop_
 _atom_site_type_symbol
 _atom_site_label
 _atom_site_symmetry_multiplicity
 _atom_site_fract_x
 _atom_site_fract_y
 _atom_site_fract_z
 _atom_site_occupancy
  Ho  Ho0  1  0.02530282  0.94003570  0.73206104  1
  Ho  Ho1  1  0.56299527  0.58235330  0.25606238  1
  Mg  Mg2  1  0.10885077  0.05078926  0.15564376  1
  Sb  Sb3  1  0.03588365  0.50617360  0.99029850  1
  Sb  Sb4  1  0.04567769  0.49566768  0.51507357  1
  Sb  Sb5  1  0.49419718  0.02013551  0.50934829  1
  Sb  Sb6  1  0.56443248  0.04172418  0.98171708  1
  O  O7  1  0.20551137  0.41357419  0.20749790  1
  O  O8  1  0.13414492  0.19195712  0.92971546  1
  O  O9  1  0.20852256  0.19111630  0.57736978  1
  O  O10  1  0.27853324  0.74597102  0.96396131  1
  O  O11  1  0.29639974  0.75024924  0.59480089  1
  O  O12  1  0.36558606  0.91404096  0.28752724  1
  O  O13  1  0.65392617  0.05312465  0.74808609  1
  O  O14  1  0.63053293  0.31144741  0.43705300  1
  O  O15  1  0.74633491  0.35689019  0.06765581  1
  O  O16  1  0.84133590  0.81680570  0.07317953  1
  O  O17  1  0.76807071  0.82795729  0.47281344  1
  O  O18  1  0.93036363  0.55665571  0.75013594  1
