# generated using pymatgen
data_MgV4ZnO10
_symmetry_space_group_name_H-M   'P 1'
_cell_length_a   3.69483114
_cell_length_b   5.42680006
_cell_length_c   11.33822700
_cell_angle_alpha   90.00000000
_cell_angle_beta   90.00000000
_cell_angle_gamma   109.87101626
_symmetry_Int_Tables_number   1
_chemical_formula_structural   MgV4ZnO10
_chemical_formula_sum   'Mg1 V4 Zn1 O10'
_cell_volume   213.80801446
_cell_formula_units_Z   1
loop_
 _symmetry_equiv_pos_site_id
 _symmetry_equiv_pos_as_xyz
  1  'x, y, z'
loop_
 _atom_site_type_symbol
 _atom_site_label
 _atom_site_symmetry_multiplicity
 _atom_site_fract_x
 _atom_site_fract_y
 _atom_site_fract_z
 _atom_site_occupancy
  Mg  Mg0  1  0.10774200  0.21371100  0.25000000  1
  V  V1  1  0.20215500  0.40364200  0.59671800  1
  V  V2  1  0.79871700  0.59650400  0.40116900  1
  V  V3  1  0.79871700  0.59650400  0.09883100  1
  V  V4  1  0.20215500  0.40364200  0.90328200  1
  Zn  Zn5  1  0.89596600  0.79221200  0.75000000  1
  O  O6  1  0.69738400  0.39341200  0.25000000  1
  O  O7  1  0.30279500  0.60532700  0.75000000  1
  O  O8  1  0.23306000  0.46501900  0.07747200  1
  O  O9  1  0.76509500  0.52965100  0.92576100  1
  O  O10  1  0.76509500  0.52965100  0.57423900  1
  O  O11  1  0.23306000  0.46501900  0.42252700  1
  O  O12  1  0.04255400  0.08471900  0.62864600  1
  O  O13  1  0.95836800  0.91595900  0.37101500  1
  O  O14  1  0.04255400  0.08471900  0.87135400  1
  O  O15  1  0.95836800  0.91595900  0.12898600  1
