# generated using pymatgen
data_Na3NbZnSi2SO12
_symmetry_space_group_name_H-M   'P 1'
_cell_length_a   9.08752212
_cell_length_b   9.08752180
_cell_length_c   22.53482790
_cell_angle_alpha   88.78853372
_cell_angle_beta   91.21146626
_cell_angle_gamma   119.45628196
_symmetry_Int_Tables_number   1
_chemical_formula_structural   Na3NbZnSi2SO12
_chemical_formula_sum   'Na18 Nb6 Zn6 Si12 S6 O72'
_cell_volume   1619.94067509
_cell_formula_units_Z   6
loop_
 _symmetry_equiv_pos_site_id
 _symmetry_equiv_pos_as_xyz
  1  'x, y, z'
loop_
 _atom_site_type_symbol
 _atom_site_label
 _atom_site_symmetry_multiplicity
 _atom_site_fract_x
 _atom_site_fract_y
 _atom_site_fract_z
 _atom_site_occupancy
  Na  Na0  1  0.65694513  0.01602892  0.25159222  1
  Na  Na1  1  0.97517188  0.61532282  0.24536752  1
  Na  Na2  1  0.98397108  0.34305487  0.75159222  1
  Na  Na3  1  0.38467718  0.02482812  0.74536752  1
  Na  Na4  1  0.32361213  0.34936192  0.58492522  1
  Na  Na5  1  0.64183888  0.94865582  0.57870052  1
  Na  Na6  1  0.65063808  0.67638787  0.08492522  1
  Na  Na7  1  0.05134418  0.35816112  0.07870052  1
  Na  Na8  1  0.99027813  0.68269592  0.91825922  1
  Na  Na9  1  0.30850488  0.28198982  0.91203452  1
  Na  Na10  1  0.31730408  0.00972187  0.41825922  1
  Na  Na11  1  0.71801018  0.69149512  0.41203452  1
  Na  Na12  1  0.98892669  0.98268570  0.49161867  1
  Na  Na13  1  0.01731430  0.01107331  0.99161867  1
  Na  Na14  1  0.65559369  0.31601870  0.82495167  1
  Na  Na15  1  0.68398130  0.34440631  0.32495167  1
  Na  Na16  1  0.32225969  0.64935270  0.15828567  1
  Na  Na17  1  0.35064730  0.67774031  0.65828567  1
  Nb  Nb18  1  0.99444405  0.99918400  0.64635271  1
  Nb  Nb19  1  0.00081600  0.00555595  0.14635271  1
  Nb  Nb20  1  0.66111105  0.33251700  0.97968571  1
  Nb  Nb21  1  0.66748300  0.33888895  0.47968571  1
  Nb  Nb22  1  0.32777705  0.66585100  0.31301971  1
  Nb  Nb23  1  0.33414900  0.67222295  0.81301971  1
  Zn  Zn24  1  0.97118934  0.98953126  0.35086387  1
  Zn  Zn25  1  0.01046874  0.02881066  0.85086387  1
  Zn  Zn26  1  0.63785634  0.32286426  0.68419687  1
  Zn  Zn27  1  0.67713574  0.36214366  0.18419687  1
  Zn  Zn28  1  0.30452234  0.65619826  0.01753087  1
  Zn  Zn29  1  0.34380174  0.69547766  0.51753087  1
  Si  Si30  1  0.70174719  0.70224720  0.25276263  1
  Si  Si31  1  0.99987155  0.29219310  0.25126286  1
  Si  Si32  1  0.29775280  0.29825281  0.75276263  1
  Si  Si33  1  0.70780690  0.00012845  0.75126286  1
  Si  Si34  1  0.36841419  0.03558020  0.58609563  1
  Si  Si35  1  0.66653855  0.62552610  0.58459586  1
  Si  Si36  1  0.96441980  0.63158581  0.08609563  1
  Si  Si37  1  0.37447390  0.33346145  0.08459586  1
  Si  Si38  1  0.03508019  0.36891420  0.91942963  1
  Si  Si39  1  0.33320455  0.95886010  0.91792986  1
  Si  Si40  1  0.63108580  0.96491981  0.41942963  1
  Si  Si41  1  0.04113990  0.66679545  0.41792986  1
  S  S42  1  0.29135297  -0.00065168  0.25230091  1
  S  S43  1  0.00065168  0.70864703  0.75230091  1
  S  S44  1  0.95801997  0.33268132  0.58563391  1
  S  S45  1  0.66731868  0.04198003  0.08563391  1
  S  S46  1  0.62468597  0.66601532  0.91896791  1
  S  S47  1  0.33398468  0.37531403  0.41896791  1
  O  O48  1  0.21988227  0.01794728  0.30660162  1
  O  O49  1  0.81562347  0.77907479  0.31128349  1
  O  O50  1  0.98119367  0.17483411  0.30663336  1
  O  O51  1  0.22092521  0.18437653  0.81128349  1
  O  O52  1  0.98205272  0.78011773  0.80660162  1
  O  O53  1  0.82516589  0.01880633  0.80663336  1
  O  O54  1  0.80209662  0.97415003  0.69012640  1
  O  O55  1  0.16380900  0.19402583  0.69361759  1
  O  O56  1  0.02368911  0.82272684  0.69894055  1
  O  O57  1  0.80597417  0.83619100  0.19361759  1
  O  O58  1  0.02584997  0.19790338  0.19012640  1
  O  O59  1  0.17727316  0.97631089  0.19894055  1
  O  O60  1  0.88654927  0.35128028  0.63993462  1
  O  O61  1  0.48229047  0.11240779  0.64461649  1
  O  O62  1  0.64786067  0.50816711  0.63996636  1
  O  O63  1  0.88759221  0.51770953  0.14461649  1
  O  O64  1  0.64871972  0.11345073  0.13993462  1
  O  O65  1  0.49183289  0.35213933  0.13996636  1
  O  O66  1  0.46876362  0.30748303  0.02345940  1
  O  O67  1  0.83047600  0.52735883  0.02695059  1
  O  O68  1  0.69035611  0.15605984  0.03227355  1
  O  O69  1  0.47264117  0.16952400  0.52695059  1
  O  O70  1  0.69251697  0.53123638  0.52345940  1
  O  O71  1  0.84394016  0.30964389  0.53227355  1
  O  O72  1  0.55321527  0.68461428  0.97326862  1
  O  O73  1  0.14895647  0.44574179  0.97795049  1
  O  O74  1  0.31452667  0.84150111  0.97330036  1
  O  O75  1  0.55425821  0.85104353  0.47795049  1
  O  O76  1  0.31538572  0.44678473  0.47326862  1
  O  O77  1  0.15849889  0.68547333  0.47330036  1
  O  O78  1  0.13542962  0.64081703  0.35679340  1
  O  O79  1  0.49714200  0.86069283  0.36028459  1
  O  O80  1  0.35702211  0.48939384  0.36560755  1
  O  O81  1  0.13930717  0.50285800  0.86028459  1
  O  O82  1  0.35918297  0.86457038  0.85679340  1
  O  O83  1  0.51060616  0.64297789  0.86560755  1
  O  O84  1  0.02385239  0.83576572  0.41104703  1
  O  O85  1  0.81669796  0.98917565  0.41323376  1
  O  O86  1  0.20066905  0.20242681  0.41003230  1
  O  O87  1  0.01082435  0.18330204  0.91323376  1
  O  O88  1  0.16423428  0.97614761  0.91104703  1
  O  O89  1  0.79757319  0.79933095  0.91003230  1
  O  O90  1  0.95904630  0.16355771  0.58598800  1
  O  O91  1  0.18484705  0.03881982  0.59029796  1
  O  O92  1  0.83785010  0.81985987  0.59007659  1
  O  O93  1  0.96118018  0.81515295  0.09029796  1
  O  O94  1  0.83644229  0.04095370  0.08598800  1
  O  O95  1  0.18014013  0.16214990  0.09007659  1
  O  O96  1  0.69051939  0.16909872  0.74438003  1
  O  O97  1  0.48336496  0.32250865  0.74656676  1
  O  O98  1  0.86733605  0.53575981  0.74336530  1
  O  O99  1  0.67749135  0.51663504  0.24656676  1
  O  O100  1  0.83090128  0.30948061  0.24438003  1
  O  O101  1  0.46424019  0.13266395  0.24336530  1
  O  O102  1  0.62571330  0.49689071  0.91932100  1
  O  O103  1  0.85151405  0.37215282  0.92363096  1
  O  O104  1  0.50451710  0.15319287  0.92340959  1
  O  O105  1  0.62784718  0.14848595  0.42363096  1
  O  O106  1  0.50310929  0.37428670  0.41932100  1
  O  O107  1  0.84680713  0.49548290  0.42340959  1
  O  O108  1  0.35718539  0.50243272  0.07771403  1
  O  O109  1  0.15003096  0.65584265  0.07990076  1
  O  O110  1  0.53400205  0.86909381  0.07669930  1
  O  O111  1  0.34415735  0.84996904  0.57990076  1
  O  O112  1  0.49756728  0.64281461  0.57771403  1
  O  O113  1  0.13090619  0.46599795  0.57669930  1
  O  O114  1  0.29237930  0.83022471  0.25265500  1
  O  O115  1  0.51818005  0.70548682  0.25696496  1
  O  O116  1  0.17118310  0.48652687  0.25674359  1
  O  O117  1  0.29451318  0.48181995  0.75696496  1
  O  O118  1  0.16977529  0.70762070  0.75265500  1
  O  O119  1  0.51347313  0.82881690  0.75674359  1
