# generated using pymatgen
data_Ta3Al(PO4)6
_symmetry_space_group_name_H-M   'P 1'
_cell_length_a   8.66415865
_cell_length_b   8.66415838
_cell_length_c   22.37107107
_cell_angle_alpha   90.00000000
_cell_angle_beta   90.00000000
_cell_angle_gamma   120.00000101
_symmetry_Int_Tables_number   1
_chemical_formula_structural   Ta3Al(PO4)6
_chemical_formula_sum   'Ta9 Al3 P18 O72'
_cell_volume   1454.35417922
_cell_formula_units_Z   3
loop_
 _symmetry_equiv_pos_site_id
 _symmetry_equiv_pos_as_xyz
  1  'x, y, z'
loop_
 _atom_site_type_symbol
 _atom_site_label
 _atom_site_symmetry_multiplicity
 _atom_site_fract_x
 _atom_site_fract_y
 _atom_site_fract_z
 _atom_site_occupancy
  Ta  Ta0  1  -0.00000000  0.00000000  0.85422495  1
  Ta  Ta1  1  -0.00000000  0.00000000  0.64018360  1
  Ta  Ta2  1  -0.00000000  0.00000000  0.14740516  1
  Ta  Ta3  1  0.66666700  0.33333300  0.97846729  1
  Ta  Ta4  1  0.66666700  0.33333300  0.47345017  1
  Ta  Ta5  1  0.33333300  0.66666700  0.02787391  1
  Ta  Ta6  1  0.33333300  0.66666700  0.52158266  1
  Ta  Ta7  1  0.33333300  0.66666700  0.30662502  1
  Ta  Ta8  1  0.33333300  0.66666700  0.80626381  1
  Al  Al9  1  -0.00000000  0.00000000  0.35346963  1
  Al  Al10  1  0.66666700  0.33333300  0.68800456  1
  Al  Al11  1  0.66666700  0.33333300  0.19347993  1
  P  P12  1  0.29200205  0.01329847  0.25248063  1
  P  P13  1  0.72129642  0.70799795  0.25248063  1
  P  P14  1  0.98670153  0.27870358  0.25248063  1
  P  P15  1  0.29625582  0.28369975  0.74757507  1
  P  P16  1  0.98744393  0.70374417  0.74757507  1
  P  P17  1  0.71630025  0.01255607  0.74757507  1
  P  P18  1  0.94563841  0.33767889  0.58558218  1
  P  P19  1  0.39204148  0.05436159  0.58558218  1
  P  P20  1  0.66232111  0.60795852  0.58558218  1
  P  P21  1  0.94397346  0.61352504  0.08736010  1
  P  P22  1  0.66955259  0.05602654  0.08736010  1
  P  P23  1  0.38647496  0.33044741  0.08736010  1
  P  P24  1  0.61678292  0.66682031  0.91661892  1
  P  P25  1  0.05003639  0.38321708  0.91661892  1
  P  P26  1  0.33317969  0.94996361  0.91661892  1
  P  P27  1  0.62904327  0.95007060  0.41424413  1
  P  P28  1  0.32102633  0.37095673  0.41424413  1
  P  P29  1  0.04992940  0.67897367  0.41424413  1
  O  O30  1  0.19870240  0.03507889  0.30605544  1
  O  O31  1  0.83637648  0.80129760  0.30605544  1
  O  O32  1  0.96492111  0.16362352  0.30605544  1
  O  O33  1  0.20164423  0.16867303  0.80453487  1
  O  O34  1  0.96702880  0.79835577  0.80453487  1
  O  O35  1  0.83132697  0.03297120  0.80453487  1
  O  O36  1  0.80111514  0.96923769  0.69452196  1
  O  O37  1  0.16812254  0.19888486  0.69452196  1
  O  O38  1  0.03076231  0.83187746  0.69452196  1
  O  O39  1  0.80153998  0.83101312  0.19503714  1
  O  O40  1  0.02947314  0.19846002  0.19503714  1
  O  O41  1  0.16898688  0.97052686  0.19503714  1
  O  O42  1  0.86291274  0.36552851  0.64063644  1
  O  O43  1  0.50261677  0.13708726  0.64063644  1
  O  O44  1  0.63447149  0.49738323  0.64063644  1
  O  O45  1  0.86090076  0.49529876  0.14009802  1
  O  O46  1  0.63439900  0.13909924  0.14009802  1
  O  O47  1  0.50470124  0.36560100  0.14009802  1
  O  O48  1  0.46902341  0.30436676  0.02822912  1
  O  O49  1  0.83534434  0.53097659  0.02822912  1
  O  O50  1  0.69563324  0.16465566  0.02822912  1
  O  O51  1  0.46913265  0.16683459  0.52853689  1
  O  O52  1  0.69770294  0.53086735  0.52853689  1
  O  O53  1  0.83316541  0.30229706  0.52853689  1
  O  O54  1  0.53220535  0.69782382  0.97217853  1
  O  O55  1  0.16561747  0.46779465  0.97217853  1
  O  O56  1  0.30217618  0.83438253  0.97217853  1
  O  O57  1  0.53470685  0.83505303  0.47135134  1
  O  O58  1  0.30034518  0.46529315  0.47135134  1
  O  O59  1  0.16494697  0.69965482  0.47135134  1
  O  O60  1  0.13478435  0.63570932  0.36106085  1
  O  O61  1  0.50092398  0.86521565  0.36106085  1
  O  O62  1  0.36429068  0.49907602  0.36106085  1
  O  O63  1  0.13516096  0.49887528  0.86096639  1
  O  O64  1  0.36371332  0.86483904  0.86096639  1
  O  O65  1  0.50112472  0.63628668  0.86096639  1
  O  O66  1  0.02725194  0.83748799  0.40512652  1
  O  O67  1  0.81023605  0.97274806  0.40512652  1
  O  O68  1  0.16251201  0.18976395  0.40512652  1
  O  O69  1  0.02813627  0.19696403  0.90663444  1
  O  O70  1  0.16882776  0.97186373  0.90663444  1
  O  O71  1  0.80303597  0.83117224  0.90663444  1
  O  O72  1  0.97055567  0.17142477  0.59385162  1
  O  O73  1  0.20086910  0.02944433  0.59385162  1
  O  O74  1  0.82857523  0.79913090  0.59385162  1
  O  O75  1  0.97173382  0.80232747  0.09226138  1
  O  O76  1  0.83059366  0.02826618  0.09226138  1
  O  O77  1  0.19767253  0.16940634  0.09226138  1
  O  O78  1  0.69368984  0.17086806  0.73903441  1
  O  O79  1  0.47717922  0.30631016  0.73903441  1
  O  O80  1  0.82913194  0.52282078  0.73903441  1
  O  O81  1  0.69564379  0.52635919  0.23886326  1
  O  O82  1  0.83071640  0.30435621  0.23886326  1
  O  O83  1  0.47364081  0.16928360  0.23886326  1
  O  O84  1  0.63916281  0.50307182  0.92569041  1
  O  O85  1  0.86391002  0.36083719  0.92569041  1
  O  O86  1  0.49692818  0.13608998  0.92569041  1
  O  O87  1  0.64103618  0.13410121  0.42667855  1
  O  O88  1  0.49306603  0.35896382  0.42667855  1
  O  O89  1  0.86589879  0.50693397  0.42667855  1
  O  O90  1  0.36370103  0.49652180  0.07398244  1
  O  O91  1  0.13281977  0.63629897  0.07398244  1
  O  O92  1  0.50347820  0.86718023  0.07398244  1
  O  O93  1  0.36280530  0.86489649  0.57425598  1
  O  O94  1  0.50209019  0.63719470  0.57425598  1
  O  O95  1  0.13510351  0.49790981  0.57425598  1
  O  O96  1  0.30678351  0.84010707  0.25988794  1
  O  O97  1  0.53332256  0.69321649  0.25988794  1
  O  O98  1  0.15989293  0.46667744  0.25988794  1
  O  O99  1  0.30776073  0.46770728  0.75965480  1
  O  O100  1  0.15994554  0.69223927  0.75965480  1
  O  O101  1  0.53229272  0.84005446  0.75965480  1
