# generated using pymatgen
data_RbTlF4
_symmetry_space_group_name_H-M   'P 1'
_cell_length_a   6.22203857
_cell_length_b   8.29285434
_cell_length_c   8.42602698
_cell_angle_alpha   90.00000000
_cell_angle_beta   90.00000000
_cell_angle_gamma   90.00000000
_symmetry_Int_Tables_number   1
_chemical_formula_structural   RbTlF4
_chemical_formula_sum   'Rb4 Tl4 F16'
_cell_volume   434.77001237
_cell_formula_units_Z   4
loop_
 _symmetry_equiv_pos_site_id
 _symmetry_equiv_pos_as_xyz
  1  'x, y, z'
loop_
 _atom_site_type_symbol
 _atom_site_label
 _atom_site_symmetry_multiplicity
 _atom_site_fract_x
 _atom_site_fract_y
 _atom_site_fract_z
 _atom_site_occupancy
  Rb  Rb0  1  0.48359105  0.18953531  0.75000000  1
  Rb  Rb1  1  0.51640895  0.81046469  0.25000000  1
  Rb  Rb2  1  0.51640895  0.68953531  0.75000000  1
  Rb  Rb3  1  0.48359105  0.31046469  0.25000000  1
  Tl  Tl4  1  -0.00000000  0.00000000  0.00000000  1
  Tl  Tl5  1  -0.00000000  0.00000000  0.50000000  1
  Tl  Tl6  1  -0.00000000  0.50000000  0.00000000  1
  Tl  Tl7  1  -0.00000000  0.50000000  0.50000000  1
  F  F8  1  0.69689286  0.42264699  0.56720023  1
  F  F9  1  0.30310714  0.57735301  0.06720023  1
  F  F10  1  0.30310714  0.92264699  0.56720023  1
  F  F11  1  0.69689286  0.07735301  0.06720023  1
  F  F12  1  0.30310714  0.57735301  0.43279977  1
  F  F13  1  0.69689286  0.42264699  0.93279977  1
  F  F14  1  0.69689286  0.07735301  0.43279977  1
  F  F15  1  0.30310714  0.92264699  0.93279977  1
  F  F16  1  0.14123137  0.25000000  0.00000000  1
  F  F17  1  0.85876863  0.75000000  0.50000000  1
  F  F18  1  0.85876863  0.75000000  0.00000000  1
  F  F19  1  0.14123137  0.25000000  0.50000000  1
  F  F20  1  0.88602771  0.02508450  0.75000000  1
  F  F21  1  0.11397229  0.97491550  0.25000000  1
  F  F22  1  0.11397229  0.52508450  0.75000000  1
  F  F23  1  0.88602771  0.47491550  0.25000000  1
