# generated using pymatgen
data_Rb6Si10O23
_symmetry_space_group_name_H-M   'P 1'
_cell_length_a   9.40131702
_cell_length_b   9.40131702
_cell_length_c   8.04540235
_cell_angle_alpha   90.00000000
_cell_angle_beta   90.00000000
_cell_angle_gamma   120.45736048
_symmetry_Int_Tables_number   1
_chemical_formula_structural   Rb6Si10O23
_chemical_formula_sum   'Rb6 Si10 O23'
_cell_volume   612.96513215
_cell_formula_units_Z   1
loop_
 _symmetry_equiv_pos_site_id
 _symmetry_equiv_pos_as_xyz
  1  'x, y, z'
loop_
 _atom_site_type_symbol
 _atom_site_label
 _atom_site_symmetry_multiplicity
 _atom_site_fract_x
 _atom_site_fract_y
 _atom_site_fract_z
 _atom_site_occupancy
  Rb  Rb0  1  0.22724811  0.98960227  0.50000000  1
  Rb  Rb1  1  0.98960227  0.22724811  0.50000000  1
  Rb  Rb2  1  0.24288446  0.00044790  0.00000000  1
  Rb  Rb3  1  0.00044790  0.24288446  0.00000000  1
  Rb  Rb4  1  0.75110249  0.75110249  0.50000000  1
  Rb  Rb5  1  0.75693392  0.75693392  0.00000000  1
  Si  Si6  1  0.30924218  0.65547353  0.68821805  1
  Si  Si7  1  0.65547353  0.30924218  0.31178195  1
  Si  Si8  1  0.30924218  0.65547353  0.31178195  1
  Si  Si9  1  0.65547353  0.30924218  0.68821805  1
  Si  Si10  1  0.58904976  0.97930820  0.80924712  1
  Si  Si11  1  0.97930820  0.58904976  0.19075288  1
  Si  Si12  1  0.58904976  0.97930820  0.19075288  1
  Si  Si13  1  0.97930820  0.58904976  0.80924712  1
  Si  Si14  1  0.40007582  0.40007582  0.20024053  1
  Si  Si15  1  0.40007582  0.40007582  0.79975947  1
  O  O16  1  0.58197069  0.15161599  0.80992960  1
  O  O17  1  0.15161599  0.58197069  0.19007040  1
  O  O18  1  0.58197069  0.15161599  0.19007040  1
  O  O19  1  0.15161599  0.58197069  0.80992960  1
  O  O20  1  0.42327612  0.85365029  0.69968721  1
  O  O21  1  0.85365029  0.42327612  0.30031279  1
  O  O22  1  0.42327612  0.85365029  0.30031279  1
  O  O23  1  0.85365029  0.42327612  0.69968721  1
  O  O24  1  0.75675783  0.99787122  0.75030044  1
  O  O25  1  0.99787122  0.75675783  0.24969956  1
  O  O26  1  0.75675783  0.99787122  0.24969956  1
  O  O27  1  0.99787122  0.75675783  0.75030044  1
  O  O28  1  0.42079380  0.57479646  0.72963012  1
  O  O29  1  0.57479646  0.42079380  0.27036988  1
  O  O30  1  0.42079380  0.57479646  0.27036988  1
  O  O31  1  0.57479646  0.42079380  0.72963012  1
  O  O32  1  0.42941346  0.42941346  0.00000000  1
  O  O33  1  0.90920000  0.53597106  0.00000000  1
  O  O34  1  0.53597106  0.90920000  0.00000000  1
  O  O35  1  0.60836133  0.23734370  0.50000000  1
  O  O36  1  0.23734370  0.60836133  0.50000000  1
  O  O37  1  0.23746277  0.23746277  0.75034158  1
  O  O38  1  0.23746277  0.23746277  0.24965842  1
