# generated using pymatgen
data_Ta10Zn2Si9(SO8)9
_symmetry_space_group_name_H-M   'P 1'
_cell_length_a   8.84911704
_cell_length_b   8.88504284
_cell_length_c   22.79928490
_cell_angle_alpha   90.26455251
_cell_angle_beta   89.89757585
_cell_angle_gamma   119.86127955
_symmetry_Int_Tables_number   1
_chemical_formula_structural   Ta10Zn2Si9(SO8)9
_chemical_formula_sum   'Ta10 Zn2 Si9 S9 O72'
_cell_volume   1554.57613335
_cell_formula_units_Z   1
loop_
 _symmetry_equiv_pos_site_id
 _symmetry_equiv_pos_as_xyz
  1  'x, y, z'
loop_
 _atom_site_type_symbol
 _atom_site_label
 _atom_site_symmetry_multiplicity
 _atom_site_fract_x
 _atom_site_fract_y
 _atom_site_fract_z
 _atom_site_occupancy
  Ta  Ta0  1  0.99961464  0.00072839  0.36077110  1
  Ta  Ta1  1  0.99961040  0.98959060  0.85964795  1
  Ta  Ta2  1  0.00255835  0.00008022  0.64482777  1
  Ta  Ta3  1  0.00507285  0.00434497  0.14078319  1
  Ta  Ta4  1  0.65250603  0.33042868  0.97123413  1
  Ta  Ta5  1  0.67670104  0.32959771  0.47499119  1
  Ta  Ta6  1  0.33292404  0.65573061  0.01789993  1
  Ta  Ta7  1  0.32570647  0.66025370  0.52252562  1
  Ta  Ta8  1  0.33381519  0.66431973  0.31355830  1
  Ta  Ta9  1  0.32360864  0.66515860  0.80976307  1
  Zn  Zn10  1  0.69290997  0.34979133  0.69211083  1
  Zn  Zn11  1  0.66021715  0.33720958  0.18479300  1
  Si  Si12  1  0.99304259  0.70729662  0.74918894  1
  Si  Si13  1  0.95130069  0.33065671  0.58640085  1
  Si  Si14  1  0.39113648  0.34340347  0.08649485  1
  Si  Si15  1  0.61508687  0.66791984  0.91319522  1
  Si  Si16  1  0.04495857  0.37910357  0.91454865  1
  Si  Si17  1  0.33198217  0.94401344  0.91698854  1
  Si  Si18  1  0.61208628  0.94693848  0.41789495  1
  Si  Si19  1  0.33923612  0.38503899  0.41729262  1
  Si  Si20  1  0.05020099  0.66616923  0.41675979  1
  S  S21  1  0.28410727  0.99762793  0.24982182  1
  S  S22  1  0.71636632  0.71603947  0.24988961  1
  S  S23  1  0.99719842  0.28434881  0.24891056  1
  S  S24  1  0.28618103  0.28406211  0.74970839  1
  S  S25  1  0.71332918  0.99698035  0.75058730  1
  S  S26  1  0.38192425  0.04808265  0.58474159  1
  S  S27  1  0.66509847  0.62093932  0.58420920  1
  S  S28  1  0.95669447  0.61998946  0.08555090  1
  S  S29  1  0.66396853  0.04417236  0.08527928  1
  O  O30  1  0.19296762  0.01927234  0.30143645  1
  O  O31  1  0.82528089  0.80986928  0.30211535  1
  O  O32  1  0.97701669  0.17553082  0.30092819  1
  O  O33  1  0.19730659  0.17884452  0.80187887  1
  O  O34  1  0.98716834  0.82403485  0.80508759  1
  O  O35  1  0.82492106  0.02358311  0.80249952  1
  O  O36  1  0.80330786  0.97353331  0.69683676  1
  O  O37  1  0.16858584  0.20098786  0.69589559  1
  O  O38  1  0.02812893  0.83996891  0.69233377  1
  O  O39  1  0.79941860  0.82708294  0.19722972  1
  O  O40  1  0.02456917  0.19534881  0.19628603  1
  O  O41  1  0.16931235  0.97143933  0.19697846  1
  O  O42  1  0.87105400  0.36899717  0.64145323  1
  O  O43  1  0.48164727  0.12106592  0.63725170  1
  O  O44  1  0.62562396  0.51611830  0.63598692  1
  O  O45  1  0.88827245  0.51871394  0.13870204  1
  O  O46  1  0.64079948  0.11896333  0.13898632  1
  O  O47  1  0.49340092  0.37148043  0.14570815  1
  O  O48  1  0.47803553  0.30435759  0.02879305  1
  O  O49  1  0.84625282  0.54688425  0.03352705  1
  O  O50  1  0.70513736  0.15508681  0.03338307  1
  O  O51  1  0.45884236  0.15696942  0.53118226  1
  O  O52  1  0.69640585  0.54242515  0.53092646  1
  O  O53  1  0.83097260  0.30372283  0.52625732  1
  O  O54  1  0.52848066  0.69714736  0.97315856  1
  O  O55  1  0.16970631  0.46980571  0.97264759  1
  O  O56  1  0.30227124  0.83060916  0.97591347  1
  O  O57  1  0.52991350  0.82811275  0.47411248  1
  O  O58  1  0.29919544  0.47330108  0.47256342  1
  O  O59  1  0.17358072  0.70451039  0.47299561  1
  O  O60  1  0.13961815  0.63400293  0.35777472  1
  O  O61  1  0.49358255  0.85679164  0.35794159  1
  O  O62  1  0.36571323  0.50439099  0.35801528  1
  O  O63  1  0.13582574  0.50630077  0.85852212  1
  O  O64  1  0.36716066  0.85762595  0.85937691  1
  O  O65  1  0.49370388  0.63103399  0.85681161  1
  O  O66  1  0.02865705  0.83495385  0.40172768  1
  O  O67  1  0.80562814  0.97476846  0.40183923  1
  O  O68  1  0.16779449  0.19667813  0.40096655  1
  O  O69  1  0.02618381  0.19342814  0.90117435  1
  O  O70  1  0.16932490  0.97665036  0.90688594  1
  O  O71  1  0.80592593  0.83829431  0.90643067  1
  O  O72  1  0.97864957  0.16040517  0.59428908  1
  O  O73  1  0.20079745  0.02624964  0.59056483  1
  O  O74  1  0.82445388  0.79906278  0.59173718  1
  O  O75  1  0.97208965  0.80031959  0.09596586  1
  O  O76  1  0.82490169  0.01975140  0.09517909  1
  O  O77  1  0.18802788  0.16418633  0.09653778  1
  O  O78  1  0.68636510  0.14247697  0.74357513  1
  O  O79  1  0.45189890  0.29546363  0.74004641  1
  O  O80  1  0.82005150  0.52778115  0.74827689  1
  O  O81  1  0.70259259  0.54725477  0.24574674  1
  O  O82  1  0.84560005  0.30288483  0.24055813  1
  O  O83  1  0.45535635  0.14707871  0.24392960  1
  O  O84  1  0.64147418  0.50125775  0.92750814  1
  O  O85  1  0.86012076  0.36164275  0.93411319  1
  O  O86  1  0.50536423  0.13575894  0.92687131  1
  O  O87  1  0.63213295  0.13759029  0.42632273  1
  O  O88  1  0.50235286  0.36004597  0.43126256  1
  O  O89  1  0.85819325  0.50125179  0.42740353  1
  O  O90  1  0.34981959  0.49995167  0.07326011  1
  O  O91  1  0.13608694  0.65572500  0.07568619  1
  O  O92  1  0.51543578  0.86870455  0.07583394  1
  O  O93  1  0.35623044  0.87067516  0.57347404  1
  O  O94  1  0.51672099  0.65295833  0.57224876  1
  O  O95  1  0.14708394  0.49782124  0.57127533  1
  O  O96  1  0.29079654  0.83354776  0.25585683  1
  O  O97  1  0.54137589  0.70289943  0.25686166  1
  O  O98  1  0.16034937  0.45580460  0.25529005  1
  O  O99  1  0.29771497  0.45674333  0.75569852  1
  O  O100  1  0.17667592  0.70146729  0.75764286  1
  O  O101  1  0.54544835  0.83053504  0.75609272  1
