# generated using pymatgen
data_K3BiTe3
_symmetry_space_group_name_H-M   'P 1'
_cell_length_a   10.42660937
_cell_length_b   10.42660937
_cell_length_c   10.42660937
_cell_angle_alpha   90.00000000
_cell_angle_beta   90.00000000
_cell_angle_gamma   90.00000000
_symmetry_Int_Tables_number   1
_chemical_formula_structural   K3BiTe3
_chemical_formula_sum   'K12 Bi4 Te12'
_cell_volume   1133.52031865
_cell_formula_units_Z   4
loop_
 _symmetry_equiv_pos_site_id
 _symmetry_equiv_pos_as_xyz
  1  'x, y, z'
loop_
 _atom_site_type_symbol
 _atom_site_label
 _atom_site_symmetry_multiplicity
 _atom_site_fract_x
 _atom_site_fract_y
 _atom_site_fract_z
 _atom_site_occupancy
  K  K0  1  0.57504977  0.57504977  0.57504977  1
  K  K1  1  0.92495023  0.42495023  0.07504977  1
  K  K2  1  0.07504977  0.92495023  0.42495023  1
  K  K3  1  0.42495023  0.07504977  0.92495023  1
  K  K4  1  0.32621673  0.32621673  0.32621673  1
  K  K5  1  0.17378327  0.67378327  0.82621673  1
  K  K6  1  0.82621673  0.17378327  0.67378327  1
  K  K7  1  0.67378327  0.82621673  0.17378327  1
  K  K8  1  0.81835957  0.81835957  0.81835957  1
  K  K9  1  0.68164043  0.18164043  0.31835957  1
  K  K10  1  0.31835957  0.68164043  0.18164043  1
  K  K11  1  0.18164043  0.31835957  0.68164043  1
  Bi  Bi12  1  0.96426310  0.53573690  0.46426310  1
  Bi  Bi13  1  0.46426310  0.96426310  0.53573690  1
  Bi  Bi14  1  0.03573690  0.03573690  0.03573690  1
  Bi  Bi15  1  0.53573690  0.46426310  0.96426310  1
  Te  Te16  1  0.77220995  0.11703386  0.99969358  1
  Te  Te17  1  0.72779005  0.88296614  0.49969358  1
  Te  Te18  1  0.27220995  0.38296614  0.00030642  1
  Te  Te19  1  0.11703386  0.99969358  0.77220995  1
  Te  Te20  1  0.22779005  0.61703386  0.50030642  1
  Te  Te21  1  0.50030642  0.22779005  0.61703386  1
  Te  Te22  1  0.61703386  0.50030642  0.22779005  1
  Te  Te23  1  0.88296614  0.49969358  0.72779005  1
  Te  Te24  1  0.00030642  0.27220995  0.38296614  1
  Te  Te25  1  0.38296614  0.00030642  0.27220995  1
  Te  Te26  1  0.99969358  0.77220995  0.11703386  1
  Te  Te27  1  0.49969358  0.72779005  0.88296614  1
