# generated using pymatgen
data_Na2Ta6Ga2Si7S5O48
_symmetry_space_group_name_H-M   'P 1'
_cell_length_a   17.63207328
_cell_length_b   8.82646544
_cell_length_c   22.72558273
_cell_angle_alpha   90.04955070
_cell_angle_beta   89.93984666
_cell_angle_gamma   120.07068734
_symmetry_Int_Tables_number   1
_chemical_formula_structural   Na2Ta6Ga2Si7S5O48
_chemical_formula_sum   'Na6 Ta18 Ga6 Si21 S15 O144'
_cell_volume   3060.73555820
_cell_formula_units_Z   3
loop_
 _symmetry_equiv_pos_site_id
 _symmetry_equiv_pos_as_xyz
  1  'x, y, z'
loop_
 _atom_site_type_symbol
 _atom_site_label
 _atom_site_symmetry_multiplicity
 _atom_site_fract_x
 _atom_site_fract_y
 _atom_site_fract_z
 _atom_site_occupancy
  Na  Na0  1  0.99952305  0.00253723  0.49641045  1
  Na  Na1  1  0.50041787  0.00370860  0.99265335  1
  Na  Na2  1  0.33607615  0.32564405  0.83164384  1
  Na  Na3  1  0.82524151  0.32859538  0.83556675  1
  Na  Na4  1  0.32626692  0.32367763  0.34183725  1
  Na  Na5  1  0.83450091  0.34678447  0.33830999  1
  Ta  Ta6  1  0.49950326  0.99251668  0.36012803  1
  Ta  Ta7  1  0.99960149  0.00342394  0.85793296  1
  Ta  Ta8  1  0.49805336  0.00038670  0.64143674  1
  Ta  Ta9  1  0.99711402  0.99594397  0.14170815  1
  Ta  Ta10  1  0.32713614  0.33504292  0.68938744  1
  Ta  Ta11  1  0.83225702  0.31750109  0.68897560  1
  Ta  Ta12  1  0.32807758  0.33695949  0.19162198  1
  Ta  Ta13  1  0.82745434  0.31858819  0.19097792  1
  Ta  Ta14  1  0.32905021  0.33298564  0.97273131  1
  Ta  Ta15  1  0.83301822  0.32218139  0.47474512  1
  Ta  Ta16  1  0.17261901  0.67308088  0.02113351  1
  Ta  Ta17  1  0.67381684  0.67017403  0.02161743  1
  Ta  Ta18  1  0.16881954  0.66991805  0.52495868  1
  Ta  Ta19  1  0.67490081  0.67204265  0.52201302  1
  Ta  Ta20  1  0.16930938  0.68786942  0.31213950  1
  Ta  Ta21  1  0.67710276  0.67656900  0.30808344  1
  Ta  Ta22  1  0.17609871  0.67692160  0.80648514  1
  Ta  Ta23  1  0.66779289  0.64841817  0.81018162  1
  Ga  Ga24  1  0.99786573  0.96451924  0.35718900  1
  Ga  Ga25  1  0.49792841  0.03206231  0.85528074  1
  Ga  Ga26  1  0.99316130  0.03435413  0.64960740  1
  Ga  Ga27  1  0.49699444  0.98267177  0.15681582  1
  Ga  Ga28  1  0.82989407  0.32944132  0.98050430  1
  Ga  Ga29  1  0.32817468  0.32731582  0.48124379  1
  Si  Si30  1  0.13607877  0.00124270  0.25273026  1
  Si  Si31  1  0.63705000  0.99263485  0.24947464  1
  Si  Si32  1  0.35703422  0.71908843  0.24949021  1
  Si  Si33  1  0.86179666  0.71597841  0.25002922  1
  Si  Si34  1  0.13817624  0.28049699  0.74948591  1
  Si  Si35  1  0.63985779  0.27011729  0.75242283  1
  Si  Si36  1  0.36213091  0.00920331  0.74987470  1
  Si  Si37  1  0.85658478  0.99632437  0.75020308  1
  Si  Si38  1  0.97719672  0.32827629  0.58271809  1
  Si  Si39  1  0.68910318  0.04563437  0.58193825  1
  Si  Si40  1  0.33575985  0.61357783  0.57765634  1
  Si  Si41  1  0.83409374  0.05666080  0.07846353  1
  Si  Si42  1  0.18932293  0.33344033  0.08285923  1
  Si  Si43  1  0.31817488  0.68319819  0.91345728  1
  Si  Si44  1  0.81126054  0.65027419  0.91757237  1
  Si  Si45  1  0.52588770  0.38069477  0.91822279  1
  Si  Si46  1  0.16328722  0.94579671  0.91659207  1
  Si  Si47  1  0.31022659  0.96962148  0.42000075  1
  Si  Si48  1  0.81882963  0.95551737  0.41395628  1
  Si  Si49  1  0.66584297  0.38154015  0.41692300  1
  Si  Si50  1  0.02535470  0.67116416  0.41807925  1
  S  S51  1  0.00051966  0.28585093  0.25014887  1
  S  S52  1  0.49993945  0.28380278  0.24879216  1
  S  S53  1  0.99970287  0.71679299  0.74949053  1
  S  S54  1  0.50016061  0.71420031  0.75054595  1
  S  S55  1  0.47594442  0.33498025  0.58152780  1
  S  S56  1  0.18638919  0.04516697  0.58344658  1
  S  S57  1  0.83768189  0.62341403  0.58327733  1
  S  S58  1  0.47690939  0.62433767  0.08277582  1
  S  S59  1  0.97589772  0.61694584  0.08167581  1
  S  S60  1  0.33871653  0.05009679  0.08302792  1
  S  S61  1  0.68455578  0.32489616  0.08363426  1
  S  S62  1  0.02254114  0.38411613  0.91669770  1
  S  S63  1  0.66750958  0.95430449  0.91718171  1
  S  S64  1  0.16694155  0.38080674  0.41681993  1
  S  S65  1  0.52278438  0.65955246  0.41668396  1
  O  O66  1  0.10053747  0.05036671  0.30970844  1
  O  O67  1  0.59554077  0.03456790  0.30671340  1
  O  O68  1  0.42081854  0.81009664  0.30588294  1
  O  O69  1  0.91581435  0.78687887  0.30900637  1
  O  O70  1  0.48140571  0.17257739  0.30112488  1
  O  O71  1  0.97848189  0.17817681  0.30210258  1
  O  O72  1  0.09781454  0.16100850  0.80849133  1
  O  O73  1  0.60151330  0.15178805  0.81052042  1
  O  O74  1  0.47838703  0.77872143  0.80303880  1
  O  O75  1  0.98525061  0.79763428  0.80318192  1
  O  O76  1  0.41389441  0.04411807  0.81020724  1
  O  O77  1  0.91981682  0.03123740  0.80752586  1
  O  O78  1  0.40317166  0.97199905  0.69161764  1
  O  O79  1  0.89226428  0.95053494  0.69212012  1
  O  O80  1  0.08820956  0.19866048  0.68960346  1
  O  O81  1  0.58082508  0.18105469  0.69392462  1
  O  O82  1  0.01621980  0.82027922  0.69666377  1
  O  O83  1  0.51206505  0.81745076  0.69675830  1
  O  O84  1  0.39218378  0.83114520  0.18980265  1
  O  O85  1  0.90285766  0.83388325  0.19101945  1
  O  O86  1  0.01142869  0.20492339  0.19587449  1
  O  O87  1  0.51654038  0.21242571  0.19497192  1
  O  O88  1  0.08045881  0.97847337  0.19306538  1
  O  O89  1  0.58837283  0.97324266  0.18813274  1
  O  O90  1  0.43472611  0.35880910  0.63482339  1
  O  O91  1  0.93120491  0.36001710  0.64116262  1
  O  O92  1  0.24362947  0.13123371  0.63690615  1
  O  O93  1  0.75155460  0.13585668  0.64029573  1
  O  O94  1  0.32092634  0.49259682  0.63721793  1
  O  O95  1  0.82034464  0.51357239  0.63629634  1
  O  O96  1  0.43694637  0.51488576  0.13639173  1
  O  O97  1  0.93461998  0.51003785  0.13465535  1
  O  O98  1  0.32504896  0.13185050  0.13611599  1
  O  O99  1  0.81962432  0.14851177  0.13745573  1
  O  O100  1  0.25366079  0.36609909  0.14019479  1
  O  O101  1  0.74096558  0.35552227  0.13695705  1
  O  O102  1  0.24014268  0.30615571  0.02780684  1
  O  O103  1  0.72428318  0.29932870  0.03080027  1
  O  O104  1  0.42099008  0.53390638  0.03077080  1
  O  O105  1  0.92257205  0.54546808  0.02888127  1
  O  O106  1  0.34880079  0.15546245  0.03007100  1
  O  O107  1  0.85019425  0.17845352  0.02246801  1
  O  O108  1  0.22645830  0.15207816  0.53079281  1
  O  O109  1  0.73509780  0.17050163  0.52571011  1
  O  O110  1  0.35264190  0.52270514  0.52226468  1
  O  O111  1  0.84590185  0.53902861  0.52989709  1
  O  O112  1  0.42284172  0.29985711  0.52895558  1
  O  O113  1  0.91344430  0.30593175  0.52681767  1
  O  O114  1  0.26443391  0.69928874  0.97217853  1
  O  O115  1  0.76591159  0.68757805  0.97572994  1
  O  O116  1  0.07710140  0.46663096  0.97080047  1
  O  O117  1  0.58505213  0.48557359  0.97587860  1
  O  O118  1  0.15138643  0.83112845  0.97593438  1
  O  O119  1  0.65956763  0.84572882  0.97127725  1
  O  O120  1  0.26567647  0.84328626  0.47616793  1
  O  O121  1  0.76492450  0.83018847  0.47201866  1
  O  O122  1  0.15900479  0.46951180  0.47062282  1
  O  O123  1  0.65049195  0.47152433  0.47533820  1
  O  O124  1  0.08667822  0.68708869  0.47400858  1
  O  O125  1  0.57644268  0.68665997  0.47020776  1
  O  O126  1  0.06806900  0.63307585  0.35932260  1
  O  O127  1  0.56457790  0.64020613  0.36374348  1
  O  O128  1  0.24835773  0.87289665  0.36082471  1
  O  O129  1  0.75369603  0.86141347  0.35740262  1
  O  O130  1  0.18007383  0.49109186  0.36382538  1
  O  O131  1  0.67590764  0.50144665  0.35954170  1
  O  O132  1  0.06441135  0.49009545  0.86444688  1
  O  O133  1  0.56698336  0.50403316  0.86045451  1
  O  O134  1  0.17719233  0.85184496  0.85992821  1
  O  O135  1  0.67970419  0.87032485  0.86458492  1
  O  O136  1  0.25267759  0.64273491  0.85765577  1
  O  O137  1  0.74688777  0.62294738  0.86112718  1
  O  O138  1  0.02166532  0.84893018  0.41646170  1
  O  O139  1  0.51642548  0.82427607  0.41168606  1
  O  O140  1  0.40410787  0.98209073  0.40384198  1
  O  O141  1  0.91509500  0.98488724  0.40867857  1
  O  O142  1  0.08813975  0.21082336  0.41322611  1
  O  O143  1  0.58042667  0.18990668  0.40581235  1
  O  O144  1  0.01657956  0.20919978  0.91182104  1
  O  O145  1  0.52063570  0.19461923  0.91634268  1
  O  O146  1  0.08037705  0.97221491  0.90758544  1
  O  O147  1  0.58797854  0.96495181  0.91568129  1
  O  O148  1  0.41493851  0.84558035  0.90882196  1
  O  O149  1  0.90438145  0.82621667  0.90484117  1
  O  O150  1  0.48811801  0.17986041  0.59020792  1
  O  O151  1  0.98430374  0.15232996  0.58515661  1
  O  O152  1  0.09869238  0.01651065  0.59146784  1
  O  O153  1  0.59431430  0.02399371  0.59432554  1
  O  O154  1  0.41912596  0.80518792  0.59340533  1
  O  O155  1  0.91443661  0.79679833  0.58884634  1
  O  O156  1  0.48372002  0.79709070  0.08730315  1
  O  O157  1  0.98818860  0.79638850  0.09018575  1
  O  O158  1  0.41539306  0.02834701  0.08828370  1
  O  O159  1  0.91678261  0.02853778  0.09307155  1
  O  O160  1  0.09507119  0.16458330  0.09381646  1
  O  O161  1  0.59585653  0.17543532  0.09136022  1
  O  O162  1  0.34815110  0.17674530  0.73679486  1
  O  O163  1  0.85038857  0.17783334  0.74465855  1
  O  O164  1  0.24059573  0.31407928  0.74365094  1
  O  O165  1  0.74172118  0.31589818  0.74034306  1
  O  O166  1  0.42265379  0.52912814  0.73994200  1
  O  O167  1  0.91917624  0.54009687  0.74485796  1
  O  O168  1  0.35231699  0.52428295  0.24199594  1
  O  O169  1  0.84736991  0.51993795  0.23591125  1
  O  O170  1  0.42012439  0.30240625  0.24012835  1
  O  O171  1  0.92231604  0.31513183  0.23907910  1
  O  O172  1  0.23983354  0.16681264  0.23941603  1
  O  O173  1  0.73916115  0.16548160  0.24303554  1
  O  O174  1  0.32073790  0.49954405  0.92485774  1
  O  O175  1  0.82072924  0.47884301  0.92679173  1
  O  O176  1  0.42854795  0.36023854  0.92894394  1
  O  O177  1  0.93480685  0.36148355  0.92255233  1
  O  O178  1  0.25267108  0.13907239  0.92474689  1
  O  O179  1  0.74743845  0.12919163  0.92249818  1
  O  O180  1  0.32190084  0.16347146  0.42653441  1
  O  O181  1  0.81862841  0.14049333  0.42164563  1
  O  O182  1  0.24758176  0.36585027  0.42111635  1
  O  O183  1  0.75354318  0.36801192  0.42441353  1
  O  O184  1  0.43473711  0.50804110  0.42126605  1
  O  O185  1  0.92765939  0.49765653  0.42537801  1
  O  O186  1  0.17848567  0.50389861  0.07148717  1
  O  O187  1  0.67996758  0.49071083  0.07783235  1
  O  O188  1  0.06391812  0.63518783  0.07497209  1
  O  O189  1  0.56430237  0.64201715  0.07514898  1
  O  O190  1  0.25643822  0.87322188  0.07637260  1
  O  O191  1  0.74630324  0.86317990  0.07177210  1
  O  O192  1  0.18484855  0.87432646  0.57885168  1
  O  O193  1  0.67717152  0.85176328  0.57049595  1
  O  O194  1  0.24969507  0.63347268  0.57068438  1
  O  O195  1  0.75565635  0.64055040  0.57637645  1
  O  O196  1  0.07258919  0.50201798  0.57242845  1
  O  O197  1  0.56391461  0.49310534  0.57516363  1
  O  O198  1  0.14991533  0.83112502  0.25956203  1
  O  O199  1  0.64659497  0.82220077  0.26226488  1
  O  O200  1  0.25850003  0.67640599  0.26430251  1
  O  O201  1  0.76184588  0.68629762  0.25635448  1
  O  O202  1  0.07860273  0.46058347  0.25601631  1
  O  O203  1  0.57447086  0.46136087  0.25858027  1
  O  O204  1  0.14763465  0.47106463  0.76251102  1
  O  O205  1  0.64875971  0.46621028  0.75973623  1
  O  O206  1  0.07489565  0.68826684  0.76113202  1
  O  O207  1  0.57834898  0.69577814  0.75752818  1
  O  O208  1  0.26207005  0.83723365  0.75638902  1
  O  O209  1  0.75813874  0.83786187  0.76559468  1
