# generated using pymatgen
data_Na6Hf4Si5SO24
_symmetry_space_group_name_H-M   'P 1'
_cell_length_a   9.13610699
_cell_length_b   9.13679229
_cell_length_c   22.78572445
_cell_angle_alpha   89.90581321
_cell_angle_beta   89.99965542
_cell_angle_gamma   119.94243672
_symmetry_Int_Tables_number   1
_chemical_formula_structural   Na6Hf4Si5SO24
_chemical_formula_sum   'Na18 Hf12 Si15 S3 O72'
_cell_volume   1648.15949021
_cell_formula_units_Z   3
loop_
 _symmetry_equiv_pos_site_id
 _symmetry_equiv_pos_as_xyz
  1  'x, y, z'
loop_
 _atom_site_type_symbol
 _atom_site_label
 _atom_site_symmetry_multiplicity
 _atom_site_fract_x
 _atom_site_fract_y
 _atom_site_fract_z
 _atom_site_occupancy
  Na  Na0  1  0.64130581  0.00363205  0.25277789  1
  Na  Na1  1  0.35995158  0.36252135  0.24660169  1
  Na  Na2  1  0.00016664  0.63507280  0.25048363  1
  Na  Na3  1  0.63596878  0.63513088  0.74746361  1
  Na  Na4  1  0.99665477  0.36186370  0.75046873  1
  Na  Na5  1  0.36722826  0.00423046  0.75063292  1
  Na  Na6  1  0.30167131  0.33216849  0.58579674  1
  Na  Na7  1  0.02849161  0.69855606  0.58294768  1
  Na  Na8  1  0.67117660  0.97035351  0.58328421  1
  Na  Na9  1  0.03927968  0.33675725  0.08720122  1
  Na  Na10  1  0.97933483  0.66658795  0.91730393  1
  Na  Na11  1  0.33296716  0.02385346  0.41667427  1
  Na  Na12  1  0.97958192  0.98703049  0.49803190  1
  Na  Na13  1  0.02548822  0.00979158  0.00009917  1
  Na  Na14  1  0.65931285  0.31122436  0.83458828  1
  Na  Na15  1  0.68859238  0.33965325  0.33640031  1
  Na  Na16  1  0.33591364  0.66430254  0.16512427  1
  Na  Na17  1  0.33533213  0.66592194  0.66685120  1
  Hf  Hf18  1  0.98756690  0.99038351  0.35223609  1
  Hf  Hf19  1  0.01119683  0.01312602  0.85279639  1
  Hf  Hf20  1  0.00009903  0.99976966  0.64808253  1
  Hf  Hf21  1  0.00828324  0.99392920  0.14726264  1
  Hf  Hf22  1  0.66930357  0.33405540  0.68541376  1
  Hf  Hf23  1  0.66549676  0.34137378  0.18591889  1
  Hf  Hf24  1  0.65667541  0.32984041  0.98004848  1
  Hf  Hf25  1  0.68009898  0.33625738  0.48107534  1
  Hf  Hf26  1  0.31787786  0.65848321  0.01956865  1
  Hf  Hf27  1  0.33652407  0.67713311  0.51934199  1
  Hf  Hf28  1  0.32982462  0.67101997  0.31397589  1
  Hf  Hf29  1  0.32565570  0.66934131  0.81427071  1
  Si  Si30  1  0.29437425  0.00237757  0.25285337  1
  Si  Si31  1  0.70796631  0.71014499  0.24862055  1
  Si  Si32  1  0.99947493  0.28872945  0.24806300  1
  Si  Si33  1  0.29596842  0.29538022  0.74868071  1
  Si  Si34  1  0.99698814  0.70740310  0.75170041  1
  Si  Si35  1  0.70838166  0.99854363  0.75011458  1
  Si  Si36  1  0.96271246  0.33265844  0.58434354  1
  Si  Si37  1  0.37483830  0.04440322  0.58203476  1
  Si  Si38  1  0.66589778  0.62411322  0.58364006  1
  Si  Si39  1  0.95572216  0.62825801  0.08161472  1
  Si  Si40  1  0.37103318  0.33516285  0.08401845  1
  Si  Si41  1  0.03351240  0.36717859  0.91723114  1
  Si  Si42  1  0.33420284  0.96212890  0.91604610  1
  Si  Si43  1  0.63058259  0.96424100  0.41659411  1
  Si  Si44  1  0.03560364  0.66742239  0.41630532  1
  S  S45  1  0.66533277  0.04187357  0.08316913  1
  S  S46  1  0.62328525  0.66682079  0.91717312  1
  S  S47  1  0.33323701  0.37478245  0.41681786  1
  O  O48  1  0.21477292  0.04095561  0.31085011  1
  O  O49  1  0.83195501  0.79239722  0.30563287  1
  O  O50  1  0.96651646  0.16275026  0.30340609  1
  O  O51  1  0.20461131  0.16801712  0.80414568  1
  O  O52  1  0.96540330  0.79352732  0.80915337  1
  O  O53  1  0.83597163  0.03169429  0.80449186  1
  O  O54  1  0.78971420  0.96644729  0.69051033  1
  O  O55  1  0.17770732  0.21443694  0.69021588  1
  O  O56  1  0.03149508  0.82621620  0.69348869  1
  O  O57  1  0.79383225  0.83699718  0.19319056  1
  O  O58  1  0.03219296  0.20783929  0.18899038  1
  O  O59  1  0.16690123  0.96428048  0.19715634  1
  O  O60  1  0.88236081  0.37061483  0.64283073  1
  O  O61  1  0.49453369  0.12983715  0.63979128  1
  O  O62  1  0.63311965  0.51025989  0.64319031  1
  O  O63  1  0.86927592  0.50623100  0.13972273  1
  O  O64  1  0.64022453  0.11667708  0.13774712  1
  O  O65  1  0.47889274  0.35172118  0.14396675  1
  O  O66  1  0.46969239  0.30998901  0.02876865  1
  O  O67  1  0.84488451  0.53024171  0.02371766  1
  O  O68  1  0.68838741  0.15237703  0.03215125  1
  O  O69  1  0.46038560  0.16210756  0.52433878  1
  O  O70  1  0.69823038  0.52940708  0.52909595  1
  O  O71  1  0.83498252  0.29662376  0.52908928  1
  O  O72  1  0.53778467  0.68435234  0.96849315  1
  O  O73  1  0.15101652  0.46122260  0.97535088  1
  O  O74  1  0.31309729  0.83676186  0.97091404  1
  O  O75  1  0.53833562  0.84988581  0.47541222  1
  O  O76  1  0.31581800  0.45844395  0.46982536  1
  O  O77  1  0.15439247  0.68885460  0.47400594  1
  O  O78  1  0.12826169  0.64498422  0.35768188  1
  O  O79  1  0.51145488  0.86655062  0.35908766  1
  O  O80  1  0.35083454  0.47551493  0.36348429  1
  O  O81  1  0.12923612  0.48870680  0.85959659  1
  O  O82  1  0.35826612  0.87580842  0.85582465  1
  O  O83  1  0.52530341  0.64593125  0.86251777  1
  O  O84  1  0.03881120  0.84921947  0.41290856  1
  O  O85  1  0.81943037  0.98833228  0.41243096  1
  O  O86  1  0.18106873  0.20448852  0.41338035  1
  O  O87  1  0.01244754  0.17983835  0.91305194  1
  O  O88  1  0.15317952  0.96111138  0.91302905  1
  O  O89  1  0.79537942  0.81627918  0.91318291  1
  O  O90  1  0.97989078  0.16366653  0.58864706  1
  O  O91  1  0.18600457  0.02108493  0.58827951  1
  O  O92  1  0.83369379  0.81269417  0.58824437  1
  O  O93  1  0.97305630  0.81406377  0.08675858  1
  O  O94  1  0.82350856  0.03431576  0.08702809  1
  O  O95  1  0.17613383  0.17379018  0.08708518  1
  O  O96  1  0.68628253  0.16577296  0.74522572  1
  O  O97  1  0.48215088  0.31205796  0.74413154  1
  O  O98  1  0.83111281  0.51911819  0.74554076  1
  O  O99  1  0.69012615  0.52214256  0.24249134  1
  O  O100  1  0.83109958  0.30945953  0.24287146  1
  O  O101  1  0.48386344  0.16453455  0.24357170  1
  O  O102  1  0.64251359  0.51347089  0.92145427  1
  O  O103  1  0.85328813  0.36626734  0.92195641  1
  O  O104  1  0.49866747  0.15039873  0.92207150  1
  O  O105  1  0.62790089  0.14332640  0.42013814  1
  O  O106  1  0.48517235  0.35585868  0.42014408  1
  O  O107  1  0.84728306  0.50239437  0.42047168  1
  O  O108  1  0.35540186  0.50689916  0.07860834  1
  O  O109  1  0.14393509  0.64137587  0.07784341  1
  O  O110  1  0.51766186  0.87210284  0.07630289  1
  O  O111  1  0.35550357  0.85478909  0.57751548  1
  O  O112  1  0.49587411  0.64059604  0.57643031  1
  O  O113  1  0.15041552  0.49840540  0.57605513  1
  O  O114  1  0.31310519  0.83218373  0.25665128  1
  O  O115  1  0.51741165  0.68161487  0.25695491  1
  O  O116  1  0.16844250  0.47623362  0.25648887  1
  O  O117  1  0.31799972  0.48348432  0.75702285  1
  O  O118  1  0.16746895  0.68837051  0.75595640  1
  O  O119  1  0.52206815  0.82857252  0.75715992  1
