# generated using pymatgen
data_NaLaScP(SO6)2
_symmetry_space_group_name_H-M   'P 1'
_cell_length_a   9.13956457
_cell_length_b   9.12779414
_cell_length_c   24.22319629
_cell_angle_alpha   90.01194803
_cell_angle_beta   89.94596359
_cell_angle_gamma   120.01691832
_symmetry_Int_Tables_number   1
_chemical_formula_structural   NaLaScP(SO6)2
_chemical_formula_sum   'Na6 La6 Sc6 P6 S12 O72'
_cell_volume   1749.76266471
_cell_formula_units_Z   6
loop_
 _symmetry_equiv_pos_site_id
 _symmetry_equiv_pos_as_xyz
  1  'x, y, z'
loop_
 _atom_site_type_symbol
 _atom_site_label
 _atom_site_symmetry_multiplicity
 _atom_site_fract_x
 _atom_site_fract_y
 _atom_site_fract_z
 _atom_site_occupancy
  Na  Na0  1  0.98709884  0.99232415  0.49854289  1
  Na  Na1  1  0.00735957  0.98597869  0.99938321  1
  Na  Na2  1  0.65698413  0.31126803  0.82908805  1
  Na  Na3  1  0.65419450  0.31385706  0.33641759  1
  Na  Na4  1  0.31940172  0.67293852  0.16337334  1
  Na  Na5  1  0.34744355  0.67185736  0.66215251  1
  La  La6  1  0.99929752  0.00096204  0.84904266  1
  La  La7  1  0.00668148  0.99244872  0.14894295  1
  La  La8  1  0.66587890  0.33261032  0.18548833  1
  La  La9  1  0.66608719  0.33195422  0.98199952  1
  La  La10  1  0.33817839  0.68195865  0.32362318  1
  La  La11  1  0.34181283  0.68187990  0.80812623  1
  Sc  Sc12  1  0.00305980  0.00052926  0.35520024  1
  Sc  Sc13  1  0.98310292  0.99173528  0.64462501  1
  Sc  Sc14  1  0.66460830  0.33232656  0.67821809  1
  Sc  Sc15  1  0.66943690  0.33521492  0.48669842  1
  Sc  Sc16  1  0.32429971  0.67432770  0.01609149  1
  Sc  Sc17  1  0.35984045  0.67786967  0.51773280  1
  P  P18  1  0.29497267  0.00566798  0.25639586  1
  P  P19  1  0.71257763  0.01654937  0.74183557  1
  P  P20  1  0.66630273  0.62140825  0.58266538  1
  P  P21  1  0.98112678  0.63473682  0.08101948  1
  P  P22  1  0.32689105  0.95750597  0.91835701  1
  P  P23  1  0.64396732  0.97687417  0.42192482  1
  S  S24  1  0.70912854  0.70731822  0.25604335  1
  S  S25  1  0.99912704  0.28977267  0.25554990  1
  S  S26  1  0.30040470  0.28716881  0.74098333  1
  S  S27  1  0.98448745  0.69675305  0.74128632  1
  S  S28  1  0.96036824  0.33575745  0.58291172  1
  S  S29  1  0.37477369  0.04040485  0.58242238  1
  S  S30  1  0.65389340  0.01363599  0.08133279  1
  S  S31  1  0.36188850  0.35028972  0.08082868  1
  S  S32  1  0.62327245  0.67180926  0.91973603  1
  S  S33  1  0.04910738  0.37670786  0.91840582  1
  S  S34  1  0.33561332  0.36410242  0.42164982  1
  S  S35  1  0.02811453  0.66532834  0.42256425  1
  O  O36  1  0.18741327  0.00743699  0.30620504  1
  O  O37  1  0.81176565  0.80720498  0.30383571  1
  O  O38  1  0.99155329  0.18501745  0.30359056  1
  O  O39  1  0.23462696  0.19995662  0.79506514  1
  O  O40  1  0.96598682  0.76446915  0.79518615  1
  O  O41  1  0.80305434  0.03551036  0.79785801  1
  O  O42  1  0.81590052  0.99808213  0.69409394  1
  O  O43  1  0.18779693  0.18905792  0.69529311  1
  O  O44  1  0.00419249  0.81215168  0.69563909  1
  O  O45  1  0.78164655  0.79418951  0.20307674  1
  O  O46  1  0.00563652  0.21256351  0.20260099  1
  O  O47  1  0.20848852  0.99722237  0.20087958  1
  O  O48  1  0.87801198  0.35943652  0.63263835  1
  O  O49  1  0.48107799  0.11841916  0.63245829  1
  O  O50  1  0.63707184  0.50910235  0.63410169  1
  O  O51  1  0.89552214  0.53457902  0.13468719  1
  O  O52  1  0.63331842  0.09340056  0.13221584  1
  O  O53  1  0.45823358  0.36495472  0.13215335  1
  O  O54  1  0.44409014  0.32310584  0.03263516  1
  O  O55  1  0.87124256  0.54423231  0.03063297  1
  O  O56  1  0.67512093  0.11902341  0.03269787  1
  O  O57  1  0.45718888  0.14818653  0.53337716  1
  O  O58  1  0.69262555  0.53535873  0.53173918  1
  O  O59  1  0.85237681  0.30730495  0.53362101  1
  O  O60  1  0.52658495  0.67189765  0.96854556  1
  O  O61  1  0.14629163  0.47095043  0.96771983  1
  O  O62  1  0.32455300  0.85317374  0.96947821  1
  O  O63  1  0.54481071  0.84779969  0.46984342  1
  O  O64  1  0.30999028  0.45629809  0.46812143  1
  O  O65  1  0.14644302  0.69183648  0.46823580  1
  O  O66  1  0.08746743  0.62812008  0.36999352  1
  O  O67  1  0.53908537  0.91296226  0.36835224  1
  O  O68  1  0.36790248  0.46089074  0.36958022  1
  O  O69  1  0.13250293  0.46411001  0.86667504  1
  O  O70  1  0.33436178  0.87131487  0.86431644  1
  O  O71  1  0.53517927  0.66292918  0.86748592  1
  O  O72  1  0.01464374  0.82155420  0.41530198  1
  O  O73  1  0.81875930  0.98885036  0.41358896  1
  O  O74  1  0.17949911  0.19454294  0.41566494  1
  O  O75  1  0.03300546  0.20630662  0.92056660  1
  O  O76  1  0.16434188  0.97052362  0.91958276  1
  O  O77  1  0.79171972  0.82901618  0.92096185  1
  O  O78  1  0.97755745  0.18142827  0.58964276  1
  O  O79  1  0.20477714  0.02195275  0.58949177  1
  O  O80  1  0.82486057  0.80143624  0.59065602  1
  O  O81  1  0.00370961  0.81445204  0.08160672  1
  O  O82  1  0.80517631  0.99525965  0.08443435  1
  O  O83  1  0.18852240  0.20184404  0.08329621  1
  O  O84  1  0.69233366  0.17417753  0.73410382  1
  O  O85  1  0.47199448  0.30714878  0.73498484  1
  O  O86  1  0.83213251  0.52685707  0.73486928  1
  O  O87  1  0.70156120  0.54060720  0.25648335  1
  O  O88  1  0.84364979  0.30468054  0.25658606  1
  O  O89  1  0.47087894  0.16899214  0.25727773  1
  O  O90  1  0.64621891  0.52200504  0.91918120  1
  O  O91  1  0.87816875  0.35821493  0.91797753  1
  O  O92  1  0.48562818  0.13566422  0.91794814  1
  O  O93  1  0.66469093  0.15261191  0.43471483  1
  O  O94  1  0.48392394  0.34133871  0.43146310  1
  O  O95  1  0.85653519  0.51763056  0.43240105  1
  O  O96  1  0.35383085  0.50675907  0.07513773  1
  O  O97  1  0.15723430  0.64896252  0.07635898  1
  O  O98  1  0.50072027  0.84478421  0.07614369  1
  O  O99  1  0.35832852  0.86922441  0.57486086  1
  O  O100  1  0.50624302  0.64171258  0.57382404  1
  O  O101  1  0.13009903  0.48805370  0.57593392  1
  O  O102  1  0.31323429  0.84576664  0.25707928  1
  O  O103  1  0.53588116  0.68180341  0.25810441  1
  O  O104  1  0.15179207  0.46005929  0.25783375  1
  O  O105  1  0.31487038  0.45704649  0.74271685  1
  O  O106  1  0.13790699  0.67904552  0.74224054  1
  O  O107  1  0.53567029  0.85360441  0.74169140  1
