# generated using pymatgen
data_MgFe6(OF)6
_symmetry_space_group_name_H-M   'P 1'
_cell_length_a   5.14582958
_cell_length_b   14.60327663
_cell_length_c   3.04099737
_cell_angle_alpha   90.02272122
_cell_angle_beta   89.96385227
_cell_angle_gamma   90.96709411
_symmetry_Int_Tables_number   1
_chemical_formula_structural   MgFe6(OF)6
_chemical_formula_sum   'Mg1 Fe6 O6 F6'
_cell_volume   228.48609204
_cell_formula_units_Z   1
loop_
 _symmetry_equiv_pos_site_id
 _symmetry_equiv_pos_as_xyz
  1  'x, y, z'
loop_
 _atom_site_type_symbol
 _atom_site_label
 _atom_site_symmetry_multiplicity
 _atom_site_fract_x
 _atom_site_fract_y
 _atom_site_fract_z
 _atom_site_occupancy
  Mg  Mg0  1  0.10180361  0.16482962  0.48784984  1
  Fe  Fe1  1  0.93947468  0.97226443  0.98891808  1
  Fe  Fe2  1  0.04049224  0.35455598  0.98759036  1
  Fe  Fe3  1  0.93357232  0.66405793  0.98685146  1
  Fe  Fe4  1  0.62568597  0.17665815  0.48883964  1
  Fe  Fe5  1  0.50198226  0.50205125  0.48727055  1
  Fe  Fe6  1  0.37630357  0.81977990  0.48772730  1
  O  O7  1  0.13352038  0.92013638  0.48876017  1
  O  O8  1  0.23868407  0.75625409  0.98762584  1
  O  O9  1  0.31473589  0.44883322  0.98741498  1
  O  O10  1  0.66464522  0.57652162  0.98706569  1
  O  O11  1  0.88136496  0.22403396  0.98869516  1
  O  O12  1  0.84371969  0.05709280  0.48865263  1
  F  F13  1  0.33543359  0.27167164  0.48904016  1
  F  F14  1  0.12438079  0.60633687  0.48652859  1
  F  F15  1  0.33494310  0.11524753  0.98752792  1
  F  F16  1  0.61524328  0.88976251  0.98893565  1
  F  F17  1  0.79366310  0.40751398  0.48805527  1
  F  F18  1  0.75590726  0.73906513  0.48748373  1
