# generated using pymatgen
data_S2I2O11
_symmetry_space_group_name_H-M   'P 1'
_cell_length_a   8.81313017
_cell_length_b   9.14499187
_cell_length_c   10.34106571
_cell_angle_alpha   90.00000000
_cell_angle_beta   90.00000000
_cell_angle_gamma   94.40685252
_symmetry_Int_Tables_number   1
_chemical_formula_structural   S2I2O11
_chemical_formula_sum   'S8 I8 O44'
_cell_volume   830.98453847
_cell_formula_units_Z   4
loop_
 _symmetry_equiv_pos_site_id
 _symmetry_equiv_pos_as_xyz
  1  'x, y, z'
loop_
 _atom_site_type_symbol
 _atom_site_label
 _atom_site_symmetry_multiplicity
 _atom_site_fract_x
 _atom_site_fract_y
 _atom_site_fract_z
 _atom_site_occupancy
  S  S0  1  0.72235600  0.68900014  0.84654978  1
  S  S1  1  0.77764400  0.31099986  0.34654978  1
  S  S2  1  0.27764400  0.31099986  0.15345022  1
  S  S3  1  0.22235600  0.68900014  0.65345022  1
  S  S4  1  0.72297682  0.80459359  0.59117389  1
  S  S5  1  0.77702318  0.19540641  0.09117389  1
  S  S6  1  0.27702318  0.19540641  0.40882611  1
  S  S7  1  0.22297682  0.80459359  0.90882611  1
  I  I8  1  0.62388095  0.08188125  0.78065907  1
  I  I9  1  0.87611905  0.91811875  0.28065907  1
  I  I10  1  0.37611905  0.91811875  0.21934093  1
  I  I11  1  0.12388095  0.08188125  0.71934093  1
  I  I12  1  0.62354341  0.38943355  0.66333927  1
  I  I13  1  0.87645659  0.61056645  0.16333927  1
  I  I14  1  0.37645659  0.61056645  0.33666073  1
  I  I15  1  0.12354341  0.38943355  0.83666073  1
  O  O16  1  0.82157406  0.42216040  0.65958754  1
  O  O17  1  0.67842594  0.57783960  0.15958754  1
  O  O18  1  0.17842594  0.57783960  0.34041246  1
  O  O19  1  0.32157406  0.42216040  0.84041246  1
  O  O20  1  0.60681489  0.29266073  0.82907890  1
  O  O21  1  0.89318511  0.70733927  0.32907890  1
  O  O22  1  0.39318511  0.70733927  0.17092110  1
  O  O23  1  0.10681489  0.29266073  0.67092110  1
  O  O24  1  0.82351102  0.08186355  0.78539251  1
  O  O25  1  0.67648898  0.91813645  0.28539251  1
  O  O26  1  0.17648898  0.91813645  0.21460749  1
  O  O27  1  0.32351102  0.08186355  0.71460749  1
  O  O28  1  0.61160829  0.17554477  0.61462443  1
  O  O29  1  0.88839171  0.82445523  0.11462443  1
  O  O30  1  0.65909421  0.81020569  0.90635369  1
  O  O31  1  0.38839171  0.82445523  0.38537557  1
  O  O32  1  0.09995351  0.88886834  0.85673921  1
  O  O33  1  0.40004649  0.11113166  0.35673921  1
  O  O34  1  0.90004649  0.11113166  0.14326079  1
  O  O35  1  0.59995351  0.88886834  0.64326079  1
  O  O36  1  0.34111919  0.89435956  0.97260205  1
  O  O37  1  0.15888081  0.10564044  0.47260205  1
  O  O38  1  0.65888081  0.10564044  0.02739795  1
  O  O39  1  0.84111919  0.89435956  0.52739795  1
  O  O40  1  0.10190146  0.58347629  0.70437464  1
  O  O41  1  0.39809854  0.41652371  0.20437464  1
  O  O42  1  0.89809854  0.41652371  0.29562536  1
  O  O43  1  0.60190146  0.58347629  0.79562536  1
  O  O44  1  0.31353847  0.75222584  0.78255526  1
  O  O45  1  0.18646153  0.24777416  0.28255526  1
  O  O46  1  0.68646153  0.24777416  0.21744474  1
  O  O47  1  0.81353847  0.75222584  0.71744474  1
  O  O48  1  0.34132379  0.62164275  0.58664599  1
  O  O49  1  0.15867621  0.37835725  0.08664599  1
  O  O50  1  0.65867621  0.37835725  0.41335301  1
  O  O51  1  0.84132379  0.62164275  0.91335401  1
  O  O52  1  0.16147821  0.67620494  0.97378834  1
  O  O53  1  0.33852179  0.32379506  0.47378834  1
  O  O54  1  0.83852179  0.32379506  0.02621166  1
  O  O55  1  0.66147821  0.67620494  0.52621166  1
  O  O56  1  0.15909421  0.81020569  0.59364631  1
  O  O57  1  0.34090579  0.18979431  0.09364631  1
  O  O58  1  0.84090579  0.18979431  0.40635369  1
  O  O59  1  0.11160829  0.17554477  0.88537557  1
