# generated using pymatgen
data_Na3TaAlSi2PO12
_symmetry_space_group_name_H-M   'P 1'
_cell_length_a   8.87060551
_cell_length_b   8.87060521
_cell_length_c   21.95723886
_cell_angle_alpha   88.98580826
_cell_angle_beta   91.01419179
_cell_angle_gamma   119.61209914
_symmetry_Int_Tables_number   1
_chemical_formula_structural   Na3TaAlSi2PO12
_chemical_formula_sum   'Na18 Ta6 Al6 Si12 P6 O72'
_cell_volume   1501.78617777
_cell_formula_units_Z   6
loop_
 _symmetry_equiv_pos_site_id
 _symmetry_equiv_pos_as_xyz
  1  'x, y, z'
loop_
 _atom_site_type_symbol
 _atom_site_label
 _atom_site_symmetry_multiplicity
 _atom_site_fract_x
 _atom_site_fract_y
 _atom_site_fract_z
 _atom_site_occupancy
  Na  Na0  1  0.99806192  0.99400339  0.49382235  1
  Na  Na1  1  0.00599661  0.00193808  0.99382235  1
  Na  Na2  1  0.66472892  0.32733639  0.82715535  1
  Na  Na3  1  0.67266361  0.33527108  0.32715535  1
  Na  Na4  1  0.33139492  0.66067039  0.16048935  1
  Na  Na5  1  0.33932961  0.66860508  0.66048935  1
  Na  Na6  1  0.64174790  0.00654938  0.24893282  1
  Na  Na7  1  0.99105594  0.62618246  0.24758698  1
  Na  Na8  1  0.99345062  0.35825210  0.74893282  1
  Na  Na9  1  0.37381754  0.00894406  0.74758698  1
  Na  Na10  1  0.30841490  0.33988238  0.58226582  1
  Na  Na11  1  0.65772294  0.95951546  0.58091998  1
  Na  Na12  1  0.66011762  0.69158510  0.08226582  1
  Na  Na13  1  0.04048454  0.34227706  0.08091998  1
  Na  Na14  1  0.97508090  0.67321638  0.91559982  1
  Na  Na15  1  0.32438894  0.29284946  0.91425398  1
  Na  Na16  1  0.32678362  0.02491910  0.41559982  1
  Na  Na17  1  0.70715054  0.67561106  0.41425398  1
  Ta  Ta18  1  0.99591077  0.99589333  0.64491649  1
  Ta  Ta19  1  0.00410667  0.00408923  0.14491649  1
  Ta  Ta20  1  0.66257777  0.32922633  0.97824949  1
  Ta  Ta21  1  0.67077367  0.33742223  0.47824949  1
  Ta  Ta22  1  0.32924377  0.66256033  0.31158349  1
  Ta  Ta23  1  0.33743967  0.67075623  0.81158349  1
  Al  Al24  1  0.98666904  0.99234316  0.35376333  1
  Al  Al25  1  0.00765684  0.01333096  0.85376333  1
  Al  Al26  1  0.65333604  0.32567616  0.68709633  1
  Al  Al27  1  0.67432384  0.34666396  0.18709633  1
  Al  Al28  1  0.32000204  0.65901016  0.02043033  1
  Al  Al29  1  0.34098984  0.67999796  0.52043033  1
  Si  Si30  1  0.71093094  0.70357163  0.25195374  1
  Si  Si31  1  0.99409837  0.28321205  0.25121046  1
  Si  Si32  1  0.29642837  0.28906906  0.75195374  1
  Si  Si33  1  0.71678795  0.00590163  0.75121046  1
  Si  Si34  1  0.37759794  0.03690463  0.58528674  1
  Si  Si35  1  0.66076537  0.61654505  0.58454346  1
  Si  Si36  1  0.96309537  0.62240206  0.08528674  1
  Si  Si37  1  0.38345495  0.33923463  0.08454346  1
  Si  Si38  1  0.04426394  0.37023863  0.91862074  1
  Si  Si39  1  0.32743137  0.94987905  0.91787746  1
  Si  Si40  1  0.62976137  0.95573606  0.41862074  1
  Si  Si41  1  0.05012095  0.67256863  0.41787746  1
  P  P42  1  0.29323147  0.01168305  0.25439826  1
  P  P43  1  0.98831695  0.70676853  0.75439826  1
  P  P44  1  0.95989847  0.34501605  0.58773126  1
  P  P45  1  0.65498395  0.04010153  0.08773126  1
  P  P46  1  0.62656447  0.67835005  0.92106526  1
  P  P47  1  0.32164995  0.37343553  0.42106526  1
  O  O48  1  0.20756136  0.02543557  0.31185096  1
  O  O49  1  0.83097480  0.79387572  0.31120548  1
  O  O50  1  0.97002672  0.15370351  0.30643834  1
  O  O51  1  0.20612428  0.16902520  0.81120548  1
  O  O52  1  0.97456443  0.79243864  0.81185096  1
  O  O53  1  0.84629649  0.02997328  0.80643834  1
  O  O54  1  0.79815366  0.97520980  0.68779706  1
  O  O55  1  0.16704993  0.19658221  0.69141885  1
  O  O56  1  0.02003697  0.82922587  0.69754227  1
  O  O57  1  0.80341779  0.83295007  0.19141885  1
  O  O58  1  0.02479020  0.20184634  0.18779706  1
  O  O59  1  0.17077413  0.97996303  0.19754227  1
  O  O60  1  0.87422836  0.35876857  0.64518396  1
  O  O61  1  0.49764180  0.12720872  0.64453848  1
  O  O62  1  0.63669372  0.48703651  0.63977134  1
  O  O63  1  0.87279128  0.50235820  0.14453848  1
  O  O64  1  0.64123143  0.12577164  0.14518396  1
  O  O65  1  0.51296349  0.36330628  0.13977134  1
  O  O66  1  0.46482066  0.30854280  0.02113006  1
  O  O67  1  0.83371693  0.52991521  0.02475185  1
  O  O68  1  0.68670397  0.16255887  0.03087527  1
  O  O69  1  0.47008479  0.16628307  0.52475185  1
  O  O70  1  0.69145720  0.53517934  0.52113006  1
  O  O71  1  0.83744113  0.31329603  0.53087527  1
  O  O72  1  0.54089436  0.69210257  0.97851796  1
  O  O73  1  0.16430780  0.46054272  0.97787248  1
  O  O74  1  0.30335972  0.82037051  0.97310534  1
  O  O75  1  0.53945728  0.83569220  0.47787248  1
  O  O76  1  0.30789743  0.45910564  0.47851796  1
  O  O77  1  0.17962949  0.69664028  0.47310534  1
  O  O78  1  0.13148666  0.64187680  0.35446406  1
  O  O79  1  0.50038293  0.86324921  0.35808585  1
  O  O80  1  0.35336997  0.49589287  0.36420927  1
  O  O81  1  0.13675079  0.49961707  0.85808585  1
  O  O82  1  0.35812320  0.86851334  0.85446406  1
  O  O83  1  0.50410713  0.64663003  0.86420927  1
  O  O84  1  0.02898132  0.84498796  0.41086444  1
  O  O85  1  0.81778865  0.97369724  0.40995588  1
  O  O86  1  0.17148473  0.19016103  0.41196452  1
  O  O87  1  0.02630276  0.18221135  0.90995588  1
  O  O88  1  0.15501204  0.97101868  0.91086444  1
  O  O89  1  0.80983897  0.82851527  0.91196452  1
  O  O90  1  0.96996177  0.17088649  0.58745891  1
  O  O91  1  0.18721081  0.03052331  0.58863565  1
  O  O92  1  0.83201453  0.81522446  0.58828320  1
  O  O93  1  0.96947669  0.81278919  0.08863565  1
  O  O94  1  0.82911351  0.03003823  0.08745891  1
  O  O95  1  0.18477554  0.16798547  0.08828320  1
  O  O96  1  0.69564832  0.17832096  0.74419744  1
  O  O97  1  0.48445565  0.30703024  0.74328888  1
  O  O98  1  0.83815173  0.52349403  0.74529752  1
  O  O99  1  0.69296976  0.51554435  0.24328888  1
  O  O100  1  0.82167904  0.30435168  0.24419744  1
  O  O101  1  0.47650597  0.16184827  0.24529752  1
  O  O102  1  0.63662877  0.50421949  0.92079191  1
  O  O103  1  0.85387781  0.36385631  0.92196865  1
  O  O104  1  0.49868153  0.14855746  0.92161620  1
  O  O105  1  0.63614369  0.14612219  0.42196865  1
  O  O106  1  0.49578051  0.36337123  0.42079191  1
  O  O107  1  0.85144254  0.50131847  0.42161620  1
  O  O108  1  0.36231432  0.51165496  0.07753144  1
  O  O109  1  0.15112165  0.64036424  0.07662288  1
  O  O110  1  0.50481773  0.85682803  0.07863152  1
  O  O111  1  0.35963576  0.84887835  0.57662288  1
  O  O112  1  0.48834504  0.63768568  0.57753144  1
  O  O113  1  0.14317197  0.49518227  0.57863152  1
  O  O114  1  0.30329477  0.83755349  0.25412591  1
  O  O115  1  0.52054381  0.69719031  0.25530265  1
  O  O116  1  0.16534753  0.48189146  0.25495020  1
  O  O117  1  0.30280969  0.47945619  0.75530265  1
  O  O118  1  0.16244651  0.69670523  0.75412591  1
  O  O119  1  0.51810854  0.83465247  0.75495020  1
