# generated using pymatgen
data_Na8Nb2Zn2Si5SO24
_symmetry_space_group_name_H-M   'P 1'
_cell_length_a   9.21590036
_cell_length_b   9.20724393
_cell_length_c   22.30271573
_cell_angle_alpha   90.22595217
_cell_angle_beta   89.84879977
_cell_angle_gamma   120.25563830
_symmetry_Int_Tables_number   1
_chemical_formula_structural   Na8Nb2Zn2Si5SO24
_chemical_formula_sum   'Na24 Nb6 Zn6 Si15 S3 O72'
_cell_volume   1634.66133929
_cell_formula_units_Z   3
loop_
 _symmetry_equiv_pos_site_id
 _symmetry_equiv_pos_as_xyz
  1  'x, y, z'
loop_
 _atom_site_type_symbol
 _atom_site_label
 _atom_site_symmetry_multiplicity
 _atom_site_fract_x
 _atom_site_fract_y
 _atom_site_fract_z
 _atom_site_occupancy
  Na  Na0  1  0.64193402  0.02700142  0.24477075  1
  Na  Na1  1  0.37390883  0.35079075  0.24937699  1
  Na  Na2  1  0.98218642  0.62020023  0.24475508  1
  Na  Na3  1  0.62201652  0.63993668  0.76074796  1
  Na  Na4  1  0.01438496  0.37727279  0.76020875  1
  Na  Na5  1  0.36110390  0.98330781  0.75616094  1
  Na  Na6  1  0.29374694  0.35087822  0.57915358  1
  Na  Na7  1  0.05113969  0.70065767  0.58350466  1
  Na  Na8  1  0.64801261  0.94567499  0.57883014  1
  Na  Na9  1  0.31138227  0.95433384  0.08330387  1
  Na  Na10  1  0.65560090  0.70338528  0.07191565  1
  Na  Na11  1  0.03636113  0.35089692  0.07625754  1
  Na  Na12  1  0.97785620  0.68494836  0.90322776  1
  Na  Na13  1  0.71766134  0.01937979  0.91031118  1
  Na  Na14  1  0.32092822  0.30527679  0.90636942  1
  Na  Na15  1  0.97392823  0.28004490  0.41184377  1
  Na  Na16  1  0.31922384  0.03352669  0.40661717  1
  Na  Na17  1  0.70580745  0.68537188  0.41193911  1
  Na  Na18  1  0.99932649  0.01071575  0.49500329  1
  Na  Na19  1  0.98787480  0.99876722  0.99025594  1
  Na  Na20  1  0.66935338  0.34051697  0.83111121  1
  Na  Na21  1  0.66388010  0.32984425  0.32285297  1
  Na  Na22  1  0.33077351  0.67723155  0.15813550  1
  Na  Na23  1  0.33274789  0.66549743  0.66978508  1
  Nb  Nb24  1  0.99732638  0.99887118  0.64795240  1
  Nb  Nb25  1  0.99046487  0.99422587  0.15054996  1
  Nb  Nb26  1  0.66800234  0.33463869  0.68731940  1
  Nb  Nb27  1  0.69046249  0.34629454  0.98070109  1
  Nb  Nb28  1  0.65559146  0.32425413  0.48056104  1
  Nb  Nb29  1  0.34884760  0.67147487  0.31053996  1
  Zn  Zn30  1  0.99989686  0.00986968  0.34515665  1
  Zn  Zn31  1  0.98867753  0.00220794  0.84404842  1
  Zn  Zn32  1  0.67993249  0.33047391  0.18488901  1
  Zn  Zn33  1  0.33703774  0.66816822  0.01037318  1
  Zn  Zn34  1  0.34603858  0.66323344  0.52172967  1
  Zn  Zn35  1  0.32894053  0.64249838  0.81318487  1
  Si  Si36  1  0.29078279  0.99848689  0.25344637  1
  Si  Si37  1  0.70970257  0.70310794  0.25462382  1
  Si  Si38  1  0.00173266  0.29693588  0.25334575  1
  Si  Si39  1  0.29282776  0.28816812  0.75211882  1
  Si  Si40  1  0.00036566  0.70841698  0.75195883  1
  Si  Si41  1  0.70388287  0.00151818  0.75161624  1
  Si  Si42  1  0.95710814  0.33178621  0.58242016  1
  Si  Si43  1  0.36847879  0.03799227  0.58459268  1
  Si  Si44  1  0.67100570  0.62635811  0.58317099  1
  Si  Si45  1  0.96854509  0.63509824  0.08790380  1
  Si  Si46  1  0.66363699  0.03638758  0.08666699  1
  Si  Si47  1  0.62667224  0.66534579  0.91799385  1
  Si  Si48  1  0.04909595  0.37502131  0.91762322  1
  Si  Si49  1  0.62843229  0.96033479  0.42058152  1
  Si  Si50  1  0.33193348  0.37293364  0.42019152  1
  S  S51  1  0.37186881  0.32693533  0.08539451  1
  S  S52  1  0.33931841  0.96893054  0.91913370  1
  S  S53  1  0.04028145  0.66064586  0.41788057  1
  O  O54  1  0.20769947  0.02376629  0.31260961  1
  O  O55  1  0.82067990  0.78392533  0.31311460  1
  O  O56  1  0.96887496  0.18699150  0.31227941  1
  O  O57  1  0.22136481  0.17054417  0.81039439  1
  O  O58  1  0.95600878  0.78270005  0.80986643  1
  O  O59  1  0.82095706  0.05348708  0.81012014  1
  O  O60  1  0.80803479  0.98100958  0.69210645  1
  O  O61  1  0.17025348  0.18453623  0.69229358  1
  O  O62  1  0.01545165  0.82817352  0.69170851  1
  O  O63  1  0.80169543  0.83399185  0.19504579  1
  O  O64  1  0.03395796  0.19956921  0.19379766  1
  O  O65  1  0.16233839  0.96882132  0.19364746  1
  O  O66  1  0.85466042  0.34957098  0.63985997  1
  O  O67  1  0.49361100  0.14136127  0.64029828  1
  O  O68  1  0.65325308  0.50500286  0.63983363  1
  O  O69  1  0.87809702  0.52234018  0.14520214  1
  O  O70  1  0.63088300  0.11670195  0.14534236  1
  O  O71  1  0.46887544  0.34639352  0.13997417  1
  O  O72  1  0.45544158  0.30695676  0.03091328  1
  O  O73  1  0.84048131  0.53528735  0.02795026  1
  O  O74  1  0.69081465  0.16573387  0.02840506  1
  O  O75  1  0.46635314  0.16498256  0.52478461  1
  O  O76  1  0.69744823  0.52907719  0.52384689  1
  O  O77  1  0.83016217  0.30344361  0.52369665  1
  O  O78  1  0.54718692  0.69562488  0.97842031  1
  O  O79  1  0.14691096  0.45806535  0.97972930  1
  O  O80  1  0.31962327  0.87036714  0.97400539  1
  O  O81  1  0.53866931  0.85231281  0.47914453  1
  O  O82  1  0.29889049  0.45452843  0.47840601  1
  O  O83  1  0.13710233  0.68073886  0.47268601  1
  O  O84  1  0.12467789  0.64051333  0.36319964  1
  O  O85  1  0.50053861  0.86373771  0.36027143  1
  O  O86  1  0.36084932  0.50263488  0.36049971  1
  O  O87  1  0.11073586  0.49419992  0.85861984  1
  O  O88  1  0.37029929  0.89673191  0.86468321  1
  O  O89  1  0.50993464  0.61796921  0.85828155  1
  O  O90  1  0.01516742  0.80650414  0.41334260  1
  O  O91  1  0.81356810  0.98299402  0.41461826  1
  O  O92  1  0.17779585  0.18215776  0.41370660  1
  O  O93  1  0.01977044  0.18576868  0.91425096  1
  O  O94  1  0.19100856  0.98895811  0.91536202  1
  O  O95  1  0.81999779  0.82101251  0.91502142  1
  O  O96  1  0.96525884  0.15696124  0.58635076  1
  O  O97  1  0.18833238  0.03409110  0.58642769  1
  O  O98  1  0.84601761  0.81000490  0.58592728  1
  O  O99  1  0.97493718  0.82107389  0.08851628  1
  O  O100  1  0.84647176  0.03403008  0.08932003  1
  O  O101  1  0.20100733  0.16736314  0.08675363  1
  O  O102  1  0.68511405  0.17064505  0.74126910  1
  O  O103  1  0.48327988  0.31213800  0.74201300  1
  O  O104  1  0.83024030  0.51765688  0.74244584  1
  O  O105  1  0.66789887  0.51420639  0.24345923  1
  O  O106  1  0.84478921  0.32681203  0.24695976  1
  O  O107  1  0.47674200  0.15821349  0.24537099  1
  O  O108  1  0.63712023  0.48328695  0.92779267  1
  O  O109  1  0.84728973  0.34955628  0.92479183  1
  O  O110  1  0.49484708  0.14438723  0.92532829  1
  O  O111  1  0.63886392  0.14974234  0.42029529  1
  O  O112  1  0.51540302  0.37120438  0.42081075  1
  O  O113  1  0.86992194  0.50078421  0.41867176  1
  O  O114  1  0.34696983  0.47332940  0.08117350  1
  O  O115  1  0.15392418  0.66098620  0.07907159  1
  O  O116  1  0.50649045  0.84693210  0.07896963  1
  O  O117  1  0.34862991  0.85553236  0.58019834  1
  O  O118  1  0.50597810  0.64291976  0.58424188  1
  O  O119  1  0.13800909  0.49934046  0.58082188  1
  O  O120  1  0.29736756  0.81888417  0.25639536  1
  O  O121  1  0.52620864  0.70343357  0.25534224  1
  O  O122  1  0.18035502  0.48307554  0.25651397  1
  O  O123  1  0.30614114  0.46962841  0.74823215  1
  O  O124  1  0.16752708  0.69402429  0.74982297  1
  O  O125  1  0.52070872  0.83449557  0.75126489  1
