# generated using pymatgen
data_K3GeTe3
_symmetry_space_group_name_H-M   'P 1'
_cell_length_a   10.58248872
_cell_length_b   10.58192556
_cell_length_c   9.74556454
_cell_angle_alpha   85.74549152
_cell_angle_beta   85.74528915
_cell_angle_gamma   80.99374954
_symmetry_Int_Tables_number   1
_chemical_formula_structural   K3GeTe3
_chemical_formula_sum   'K12 Ge4 Te12'
_cell_volume   1072.74188936
_cell_formula_units_Z   4
loop_
 _symmetry_equiv_pos_site_id
 _symmetry_equiv_pos_as_xyz
  1  'x, y, z'
loop_
 _atom_site_type_symbol
 _atom_site_label
 _atom_site_symmetry_multiplicity
 _atom_site_fract_x
 _atom_site_fract_y
 _atom_site_fract_z
 _atom_site_occupancy
  K  K0  1  0.22462708  0.24753413  0.77424808  1
  K  K1  1  0.75245627  0.77536800  0.72579375  1
  K  K2  1  0.77536544  0.75246148  0.22579031  1
  K  K3  1  0.24753817  0.22462462  0.27424776  1
  K  K4  1  0.81097253  0.36677227  0.86660722  1
  K  K5  1  0.63322694  0.18901686  0.63339719  1
  K  K6  1  0.18902717  0.63323157  0.13339908  1
  K  K7  1  0.36677558  0.81096905  0.36660820  1
  K  K8  1  0.40361427  0.59639203  0.74999290  1
  K  K9  1  0.59637436  0.40360919  0.25003410  1
  K  K10  1  0.09271448  0.90728372  0.75000400  1
  K  K11  1  0.90727617  0.09272354  0.24999700  1
  Ge  Ge12  1  0.56813162  0.07484229  0.03996352  1
  Ge  Ge13  1  0.92522031  0.43177188  0.46005534  1
  Ge  Ge14  1  0.43180133  0.92516876  0.96004547  1
  Ge  Ge15  1  0.07481145  0.56822421  0.53995572  1
  Te  Te16  1  0.56884256  0.05345355  0.30808091  1
  Te  Te17  1  0.94653992  0.43104503  0.19197203  1
  Te  Te18  1  0.43118036  0.94652024  0.69191592  1
  Te  Te19  1  0.05345011  0.56886292  0.80808834  1
  Te  Te20  1  0.47522588  0.30854486  0.96040673  1
  Te  Te21  1  0.69157297  0.52473482  0.53944554  1
  Te  Te22  1  0.52477594  0.69156040  0.03959585  1
  Te  Te23  1  0.30847688  0.47531873  0.46027094  1
  Te  Te24  1  0.80035933  0.02082403  0.93677602  1
  Te  Te25  1  0.97917078  0.19959387  0.56333664  1
  Te  Te26  1  0.19965639  0.97921365  0.06342173  1
  Te  Te27  1  0.02081673  0.80033628  0.43654773  1
