# generated using pymatgen
data_Na6Ti4Zn4Si3(S3O16)3
_symmetry_space_group_name_H-M   'P 1'
_cell_length_a   17.58777782
_cell_length_b   8.73920847
_cell_length_c   22.47257209
_cell_angle_alpha   90.13088267
_cell_angle_beta   90.06623852
_cell_angle_gamma   119.92948753
_symmetry_Int_Tables_number   1
_chemical_formula_structural   Na6Ti4Zn4Si3(S3O16)3
_chemical_formula_sum   'Na18 Ti12 Zn12 Si9 S27 O144'
_cell_volume   2993.44972250
_cell_formula_units_Z   3
loop_
 _symmetry_equiv_pos_site_id
 _symmetry_equiv_pos_as_xyz
  1  'x, y, z'
loop_
 _atom_site_type_symbol
 _atom_site_label
 _atom_site_symmetry_multiplicity
 _atom_site_fract_x
 _atom_site_fract_y
 _atom_site_fract_z
 _atom_site_occupancy
  Na  Na0  1  0.99870095  0.63251186  0.25200275  1
  Na  Na1  1  0.49891405  0.62278940  0.24525699  1
  Na  Na2  1  0.00023767  0.37411113  0.74514792  1
  Na  Na3  1  0.49950872  0.36869412  0.75134676  1
  Na  Na4  1  0.67187014  0.31581456  0.91215906  1
  Na  Na5  1  0.17022022  0.03162644  0.41493967  1
  Na  Na6  1  0.99270592  0.00119991  0.50171280  1
  Na  Na7  1  0.50058281  0.00188446  0.50042526  1
  Na  Na8  1  0.99854195  0.99455369  0.99422729  1
  Na  Na9  1  0.49318279  0.98481667  0.99734816  1
  Na  Na10  1  0.31726265  0.31520159  0.83206782  1
  Na  Na11  1  0.83541461  0.34947316  0.83472981  1
  Na  Na12  1  0.33270660  0.31962544  0.33662753  1
  Na  Na13  1  0.82226073  0.32726870  0.33773066  1
  Na  Na14  1  0.17599918  0.66127223  0.16460280  1
  Na  Na15  1  0.66713386  0.66311835  0.16513629  1
  Na  Na16  1  0.16621569  0.66329629  0.67116925  1
  Na  Na17  1  0.67796259  0.69285467  0.66665715  1
  Ti  Ti18  1  0.50063076  0.01673170  0.36217248  1
  Ti  Ti19  1  0.00952247  0.99450731  0.85865077  1
  Ti  Ti20  1  0.00300280  0.02543010  0.64787592  1
  Ti  Ti21  1  0.50634056  0.99926835  0.64640564  1
  Ti  Ti22  1  0.00667473  0.01369733  0.14518059  1
  Ti  Ti23  1  0.49737636  0.98551317  0.14357113  1
  Ti  Ti24  1  0.32406109  0.33482584  0.98453716  1
  Ti  Ti25  1  0.82401129  0.31406672  0.48643374  1
  Ti  Ti26  1  0.16385706  0.66390095  0.01589767  1
  Ti  Ti27  1  0.66977479  0.67372942  0.01607830  1
  Ti  Ti28  1  0.16965930  0.66571651  0.51870269  1
  Ti  Ti29  1  0.66563312  0.65978801  0.51892148  1
  Zn  Zn30  1  0.99383044  0.99809951  0.35126556  1
  Zn  Zn31  1  0.49411836  0.98960764  0.85069243  1
  Zn  Zn32  1  0.31840453  0.32419920  0.68634822  1
  Zn  Zn33  1  0.83636404  0.32387692  0.67411394  1
  Zn  Zn34  1  0.33438457  0.34637614  0.17299304  1
  Zn  Zn35  1  0.82798272  0.32727302  0.18113284  1
  Zn  Zn36  1  0.83899312  0.34692009  0.98244624  1
  Zn  Zn37  1  0.33871837  0.33233566  0.48378913  1
  Zn  Zn38  1  0.17377891  0.67202485  0.31949409  1
  Zn  Zn39  1  0.67330310  0.66256399  0.32008421  1
  Zn  Zn40  1  0.17149476  0.67380906  0.81315019  1
  Zn  Zn41  1  0.67866671  0.68078705  0.81747425  1
  Si  Si42  1  0.14812351  0.29728589  0.75419338  1
  Si  Si43  1  0.98101594  0.34028719  0.58417522  1
  Si  Si44  1  0.68650387  0.03284726  0.58642884  1
  Si  Si45  1  0.48198430  0.61677462  0.08495739  1
  Si  Si46  1  0.18747099  0.34285526  0.08613863  1
  Si  Si47  1  0.81441149  0.66674309  0.91450026  1
  Si  Si48  1  0.17397211  0.95965716  0.91440415  1
  Si  Si49  1  0.31044167  0.96111038  0.41555568  1
  Si  Si50  1  0.67410886  0.38257683  0.41526965  1
  S  S51  1  0.14703697  0.00411853  0.25031506  1
  S  S52  1  0.64369231  0.00181523  0.25049374  1
  S  S53  1  0.35717708  0.71578676  0.25145608  1
  S  S54  1  0.85468508  0.71039688  0.24733589  1
  S  S55  1  0.99933366  0.29202486  0.24956073  1
  S  S56  1  0.49892351  0.28362342  0.25013479  1
  S  S57  1  0.64718610  0.29052034  0.75058157  1
  S  S58  1  0.99643728  0.71341842  0.74877134  1
  S  S59  1  0.50182935  0.70891886  0.74967999  1
  S  S60  1  0.35753372  0.00089775  0.74708527  1
  S  S61  1  0.85575316  0.99870964  0.75136693  1
  S  S62  1  0.48140076  0.33333424  0.58681916  1
  S  S63  1  0.18321916  0.03364536  0.58218103  1
  S  S64  1  0.33446797  0.62829835  0.58321572  1
  S  S65  1  0.83294482  0.62662408  0.58257557  1
  S  S66  1  0.98242901  0.63142170  0.08663282  1
  S  S67  1  0.33282996  0.03796340  0.08360522  1
  S  S68  1  0.83396682  0.04027719  0.08391998  1
  S  S69  1  0.68350702  0.33196843  0.08360183  1
  S  S70  1  0.31309870  0.66677270  0.91699157  1
  S  S71  1  0.01968872  0.37248307  0.91531467  1
  S  S72  1  0.51782358  0.37443308  0.91594777  1
  S  S73  1  0.66510107  0.95873652  0.91648987  1
  S  S74  1  0.81260419  0.95896668  0.41703043  1
  S  S75  1  0.16518490  0.37188359  0.41641636  1
  S  S76  1  0.01808844  0.66204235  0.41575891  1
  S  S77  1  0.52128117  0.66844483  0.41409995  1
  O  O78  1  0.10622873  0.02061691  0.30593985  1
  O  O79  1  0.60013616  0.01985664  0.30365292  1
  O  O80  1  0.41264829  0.81180921  0.30322135  1
  O  O81  1  0.90726930  0.78509538  0.30238063  1
  O  O82  1  0.49558355  0.18227986  0.30494804  1
  O  O83  1  0.98827062  0.18989654  0.30358946  1
  O  O84  1  0.09055019  0.16511730  0.80944286  1
  O  O85  1  0.60646669  0.19237094  0.80631483  1
  O  O86  1  0.49053386  0.78917509  0.80407802  1
  O  O87  1  0.98975968  0.79965680  0.80488719  1
  O  O88  1  0.40945088  0.02955922  0.80263876  1
  O  O89  1  0.90842186  0.01072652  0.80373620  1
  O  O90  1  0.40738309  0.98573178  0.69509983  1
  O  O91  1  0.89890515  0.98259188  0.69501702  1
  O  O92  1  0.08328188  0.19257231  0.69354105  1
  O  O93  1  0.58745205  0.18534381  0.69852747  1
  O  O94  1  0.00142331  0.81900095  0.69571774  1
  O  O95  1  0.50956817  0.81959697  0.69584187  1
  O  O96  1  0.40322632  0.82004254  0.19570716  1
  O  O97  1  0.90362974  0.82035690  0.19490264  1
  O  O98  1  0.00717246  0.19836142  0.19562171  1
  O  O99  1  0.50588611  0.19079510  0.19680338  1
  O  O100  1  0.08714895  0.98953313  0.19832210  1
  O  O101  1  0.58844404  0.98070101  0.19574305  1
  O  O102  1  0.44389146  0.36198710  0.64080505  1
  O  O103  1  0.95343337  0.38409327  0.64723934  1
  O  O104  1  0.24001377  0.11174718  0.63410706  1
  O  O105  1  0.74105286  0.10488443  0.64599567  1
  O  O106  1  0.32128271  0.52371871  0.63662960  1
  O  O107  1  0.81350881  0.52238985  0.63722645  1
  O  O108  1  0.45273733  0.52216990  0.14881600  1
  O  O109  1  0.94578003  0.52896047  0.14199828  1
  O  O110  1  0.31673839  0.10664223  0.13882907  1
  O  O111  1  0.81941042  0.11616688  0.13857796  1
  O  O112  1  0.24064835  0.37779081  0.14639354  1
  O  O113  1  0.73835738  0.36364841  0.13688229  1
  O  O114  1  0.22997119  0.29980127  0.02736330  1
  O  O115  1  0.71765290  0.29391153  0.02972022  1
  O  O116  1  0.41343990  0.52002237  0.03020215  1
  O  O117  1  0.92752834  0.55284986  0.03435037  1
  O  O118  1  0.34837739  0.15113835  0.03152332  1
  O  O119  1  0.84933762  0.14804740  0.03103996  1
  O  O120  1  0.21792912  0.13856441  0.52738090  1
  O  O121  1  0.72874776  0.15954415  0.52730531  1
  O  O122  1  0.34986337  0.55356999  0.52890920  1
  O  O123  1  0.84404634  0.53761300  0.52990091  1
  O  O124  1  0.42833717  0.30247684  0.53298236  1
  O  O125  1  0.91293523  0.30846807  0.52912364  1
  O  O126  1  0.26670660  0.68429048  0.97037560  1
  O  O127  1  0.76120070  0.69375224  0.97344112  1
  O  O128  1  0.07735031  0.46598238  0.96898446  1
  O  O129  1  0.57981460  0.47206767  0.96678672  1
  O  O130  1  0.15776329  0.83238930  0.97398071  1
  O  O131  1  0.65363305  0.84599767  0.97007189  1
  O  O132  1  0.26194706  0.83033749  0.47337297  1
  O  O133  1  0.76536573  0.84640459  0.46900343  1
  O  O134  1  0.15445617  0.46242561  0.46938127  1
  O  O135  1  0.65541182  0.47696204  0.47321477  1
  O  O136  1  0.08010933  0.68929555  0.46573414  1
  O  O137  1  0.57810971  0.69269531  0.46657051  1
  O  O138  1  0.05161137  0.63423040  0.35828002  1
  O  O139  1  0.55822589  0.64454954  0.35787903  1
  O  O140  1  0.24832199  0.88716959  0.35779284  1
  O  O141  1  0.76342865  0.89207539  0.36085878  1
  O  O142  1  0.17310951  0.46723035  0.36073696  1
  O  O143  1  0.69023314  0.48736368  0.35477947  1
  O  O144  1  0.05642656  0.47220695  0.86070761  1
  O  O145  1  0.55173547  0.46936885  0.85925597  1
  O  O146  1  0.18956046  0.87762792  0.85618631  1
  O  O147  1  0.67209261  0.87725157  0.86134308  1
  O  O148  1  0.26511636  0.63798369  0.86208931  1
  O  O149  1  0.74592032  0.60567671  0.85969176  1
  O  O150  1  0.01512351  0.83103314  0.41424430  1
  O  O151  1  0.51590315  0.83481948  0.41062535  1
  O  O152  1  0.40813168  0.97234051  0.40898297  1
  O  O153  1  0.90005375  0.97247532  0.41529999  1
  O  O154  1  0.08574591  0.19080289  0.41520374  1
  O  O155  1  0.58297165  0.18259705  0.41034204  1
  O  O156  1  0.01513222  0.19775263  0.91441344  1
  O  O157  1  0.51536663  0.19991624  0.91506963  1
  O  O158  1  0.08433051  0.97875591  0.91237401  1
  O  O159  1  0.58587734  0.98107684  0.91580495  1
  O  O160  1  0.40154270  0.82840981  0.91647294  1
  O  O161  1  0.90877158  0.84879235  0.90860183  1
  O  O162  1  0.49293233  0.17364119  0.59295098  1
  O  O163  1  0.98842121  0.15658597  0.58894680  1
  O  O164  1  0.09313247  0.00795944  0.59158408  1
  O  O165  1  0.58669009  0.01245613  0.59326133  1
  O  O166  1  0.41243402  0.81177067  0.59059630  1
  O  O167  1  0.91231801  0.80295168  0.58692747  1
  O  O168  1  0.49045575  0.81984896  0.09307090  1
  O  O169  1  0.99257058  0.81283508  0.09340624  1
  O  O170  1  0.41417255  0.01981123  0.08954073  1
  O  O171  1  0.91222161  0.01499168  0.09215763  1
  O  O172  1  0.08712410  0.16180594  0.09362086  1
  O  O173  1  0.59296886  0.17474927  0.09375052  1
  O  O174  1  0.35302882  0.16552111  0.74072538  1
  O  O175  1  0.85123495  0.16371475  0.74937324  1
  O  O176  1  0.24083001  0.30585619  0.75041069  1
  O  O177  1  0.73448741  0.31388802  0.74388216  1
  O  O178  1  0.42529344  0.53101931  0.74257908  1
  O  O179  1  0.91651843  0.53589936  0.74788104  1
  O  O180  1  0.35227545  0.54209456  0.24983079  1
  O  O181  1  0.84663124  0.53142375  0.24173384  1
  O  O182  1  0.41819632  0.29588674  0.25000412  1
  O  O183  1  0.92117143  0.31491151  0.24307141  1
  O  O184  1  0.23472721  0.15614177  0.24378083  1
  O  O185  1  0.73144472  0.15955281  0.24490587  1
  O  O186  1  0.32408533  0.50790862  0.92546824  1
  O  O187  1  0.82282382  0.49231772  0.92526010  1
  O  O188  1  0.43066483  0.35128944  0.92685250  1
  O  O189  1  0.93202690  0.34936692  0.92476989  1
  O  O190  1  0.25845379  0.15700927  0.92845327  1
  O  O191  1  0.74420549  0.13319261  0.92386867  1
  O  O192  1  0.32291332  0.15542045  0.42487923  1
  O  O193  1  0.82359367  0.13892317  0.42487609  1
  O  O194  1  0.24425621  0.35506043  0.42313572  1
  O  O195  1  0.75754344  0.35474997  0.42776918  1
  O  O196  1  0.43272749  0.51716036  0.42208006  1
  O  O197  1  0.93058040  0.50963332  0.42556792  1
  O  O198  1  0.17022265  0.50510545  0.07092478  1
  O  O199  1  0.67246768  0.48990254  0.07683168  1
  O  O200  1  0.07188857  0.65455427  0.07913623  1
  O  O201  1  0.58089270  0.65657248  0.06920693  1
  O  O202  1  0.25725845  0.85613212  0.07440432  1
  O  O203  1  0.75461480  0.85992596  0.07739159  1
  O  O204  1  0.17252984  0.85244920  0.57477875  1
  O  O205  1  0.66995870  0.83593802  0.56927789  1
  O  O206  1  0.25451327  0.64835702  0.57681109  1
  O  O207  1  0.75531278  0.65492765  0.57286699  1
  O  O208  1  0.07973016  0.50271285  0.56670252  1
  O  O209  1  0.57164344  0.49136232  0.57895634  1
  O  O210  1  0.14569578  0.83225693  0.24752864  1
  O  O211  1  0.64851340  0.83637960  0.25235472  1
  O  O212  1  0.27026501  0.70115898  0.25137708  1
  O  O213  1  0.76854531  0.70015094  0.24867283  1
  O  O214  1  0.07980232  0.46956849  0.25088801  1
  O  O215  1  0.57739995  0.46351404  0.25150486  1
  O  O216  1  0.14743516  0.48186075  0.75459111  1
  O  O217  1  0.64547406  0.45921316  0.74790278  1
  O  O218  1  0.07588058  0.69736912  0.75006285  1
  O  O219  1  0.58326981  0.69659059  0.75103776  1
  O  O220  1  0.27187118  0.84206181  0.74730488  1
  O  O221  1  0.76726679  0.83999337  0.75121010  1
