# generated using pymatgen
data_Rb2Hg3Te4
_symmetry_space_group_name_H-M   'P 1'
_cell_length_a   7.34360487
_cell_length_b   12.38520372
_cell_length_c   14.80798750
_cell_angle_alpha   90.00000000
_cell_angle_beta   90.00000000
_cell_angle_gamma   90.00000000
_symmetry_Int_Tables_number   1
_chemical_formula_structural   Rb2Hg3Te4
_chemical_formula_sum   'Rb8 Hg12 Te16'
_cell_volume   1346.81670628
_cell_formula_units_Z   4
loop_
 _symmetry_equiv_pos_site_id
 _symmetry_equiv_pos_as_xyz
  1  'x, y, z'
loop_
 _atom_site_type_symbol
 _atom_site_label
 _atom_site_symmetry_multiplicity
 _atom_site_fract_x
 _atom_site_fract_y
 _atom_site_fract_z
 _atom_site_occupancy
  Rb  Rb0  1  0.83763968  0.63283038  0.95845708  1
  Rb  Rb1  1  0.83763968  0.36716962  0.54154292  1
  Rb  Rb2  1  0.66236032  0.13283038  0.04154292  1
  Rb  Rb3  1  0.66236032  0.86716962  0.45845708  1
  Rb  Rb4  1  0.16236032  0.36716962  0.04154292  1
  Rb  Rb5  1  0.16236032  0.63283038  0.45845708  1
  Rb  Rb6  1  0.33763968  0.86716962  0.95845708  1
  Rb  Rb7  1  0.33763968  0.13283038  0.54154292  1
  Hg  Hg8  1  0.10154436  0.00000000  0.75000000  1
  Hg  Hg9  1  0.39845564  0.50000000  0.25000000  1
  Hg  Hg10  1  0.89845564  0.00000000  0.25000000  1
  Hg  Hg11  1  0.60154436  0.50000000  0.75000000  1
  Hg  Hg12  1  0.15579247  0.65817547  0.74831171  1
  Hg  Hg13  1  0.15579247  0.34182453  0.75168829  1
  Hg  Hg14  1  0.34420753  0.15817547  0.25168829  1
  Hg  Hg15  1  0.34420753  0.84182453  0.24831171  1
  Hg  Hg16  1  0.84420753  0.34182453  0.25168829  1
  Hg  Hg17  1  0.84420753  0.65817547  0.24831171  1
  Hg  Hg18  1  0.65579247  0.84182453  0.74831171  1
  Hg  Hg19  1  0.65579247  0.15817547  0.75168829  1
  Te  Te20  1  0.35704988  0.57932635  0.88774098  1
  Te  Te21  1  0.35704988  0.42067365  0.61225902  1
  Te  Te22  1  0.14295012  0.07932635  0.11225902  1
  Te  Te23  1  0.14295012  0.92067365  0.38774098  1
  Te  Te24  1  0.83080255  0.34582634  0.84178618  1
  Te  Te25  1  0.83080255  0.65417366  0.65821382  1
  Te  Te26  1  0.66919745  0.84582634  0.15821382  1
  Te  Te27  1  0.66919745  0.15417366  0.34178618  1
  Te  Te28  1  0.16919745  0.65417366  0.15821382  1
  Te  Te29  1  0.16919745  0.34582634  0.34178618  1
  Te  Te30  1  0.33080255  0.15417366  0.84178618  1
  Te  Te31  1  0.33080255  0.84582634  0.65821382  1
  Te  Te32  1  0.85704988  0.07932635  0.61225902  1
  Te  Te33  1  0.85704988  0.92067365  0.88774098  1
  Te  Te34  1  0.64295012  0.57932635  0.38774098  1
  Te  Te35  1  0.64295012  0.42067365  0.11225902  1
