# generated using pymatgen
data_Na3In2(PO4)3
_symmetry_space_group_name_H-M   'P 1'
_cell_length_a   15.83664875
_cell_length_b   9.13142873
_cell_length_c   9.11812595
_cell_angle_alpha   90.00000000
_cell_angle_beta   125.25394702
_cell_angle_gamma   90.00000000
_symmetry_Int_Tables_number   1
_chemical_formula_structural   Na3In2(PO4)3
_chemical_formula_sum   'Na12 In8 P12 O48'
_cell_volume   1076.75757298
_cell_formula_units_Z   4
loop_
 _symmetry_equiv_pos_site_id
 _symmetry_equiv_pos_as_xyz
  1  'x, y, z'
loop_
 _atom_site_type_symbol
 _atom_site_label
 _atom_site_symmetry_multiplicity
 _atom_site_fract_x
 _atom_site_fract_y
 _atom_site_fract_z
 _atom_site_occupancy
  Na  Na0  1  0.24482398  0.77194614  0.99752560  1
  Na  Na1  1  0.74482398  0.72805386  0.49752560  1
  Na  Na2  1  0.74482398  0.27194614  0.99752560  1
  Na  Na3  1  0.24482398  0.22805386  0.49752560  1
  Na  Na4  1  0.50163055  0.10246721  0.74750685  1
  Na  Na5  1  0.50163055  0.89753279  0.24750685  1
  Na  Na6  1  0.00163055  0.60246721  0.74750685  1
  Na  Na7  1  0.00163055  0.39753279  0.24750685  1
  Na  Na8  1  0.81236742  0.93172890  0.20766622  1
  Na  Na9  1  0.81236742  0.06827110  0.70766622  1
  Na  Na10  1  0.31236742  0.43172890  0.20766622  1
  Na  Na11  1  0.31236742  0.56827110  0.70766622  1
  In  In12  1  0.10207985  0.75820526  0.55075791  1
  In  In13  1  0.89966870  0.75093307  0.94560866  1
  In  In14  1  0.89966870  0.24906693  0.44560866  1
  In  In15  1  0.10207985  0.24179474  0.05075791  1
  In  In16  1  0.60207985  0.25820526  0.55075791  1
  In  In17  1  0.39966870  0.25093307  0.94560866  1
  In  In18  1  0.39966870  0.74906693  0.44560866  1
  In  In19  1  0.60207985  0.74179474  0.05075791  1
  P  P20  1  0.99929583  0.94641694  0.74629276  1
  P  P21  1  0.99929583  0.05358306  0.24629276  1
  P  P22  1  0.49929583  0.44641694  0.74629276  1
  P  P23  1  0.49929583  0.55358306  0.24629276  1
  P  P24  1  0.35366324  0.89840171  0.75751851  1
  P  P25  1  0.65189548  0.90146657  0.74617693  1
  P  P26  1  0.65189548  0.09853343  0.24617693  1
  P  P27  1  0.35366324  0.10159829  0.25751851  1
  P  P28  1  0.85366324  0.39840171  0.75751851  1
  P  P29  1  0.15189548  0.40146657  0.74617693  1
  P  P30  1  0.15189548  0.59853343  0.24617693  1
  P  P31  1  0.85366324  0.60159829  0.25751851  1
  O  O32  1  0.15919105  0.57236908  0.74557355  1
  O  O33  1  0.84608948  0.56804096  0.75351697  1
  O  O34  1  0.84608948  0.43195904  0.25351697  1
  O  O35  1  0.15919105  0.42763092  0.24557355  1
  O  O36  1  0.65919105  0.07236908  0.74557355  1
  O  O37  1  0.34608948  0.06804096  0.75351697  1
  O  O38  1  0.34608948  0.93195904  0.25351697  1
  O  O39  1  0.65919105  0.92763092  0.24557355  1
  O  O40  1  0.43183049  0.53883562  0.57293241  1
  O  O41  1  0.55982293  0.54222711  0.91447711  1
  O  O42  1  0.55982293  0.45777289  0.41447711  1
  O  O43  1  0.43183049  0.46116438  0.07293241  1
  O  O44  1  0.93183049  0.03883562  0.57293241  1
  O  O45  1  0.05982293  0.04222711  0.91447711  1
  O  O46  1  0.05982293  0.95777289  0.41447711  1
  O  O47  1  0.93183049  0.96116438  0.07293241  1
  O  O48  1  0.26293205  0.82218700  0.74748634  1
  O  O49  1  0.74361893  0.83794611  0.74916848  1
  O  O50  1  0.74361893  0.16205389  0.24916848  1
  O  O51  1  0.26293205  0.17781300  0.24748634  1
  O  O52  1  0.76293205  0.32218700  0.74748634  1
  O  O53  1  0.24361893  0.33794611  0.74916848  1
  O  O54  1  0.24361893  0.66205389  0.24916848  1
  O  O55  1  0.76293205  0.67781300  0.24748634  1
  O  O56  1  0.35581577  0.85470954  0.59607708  1
  O  O57  1  0.65704914  0.86568761  0.91808857  1
  O  O58  1  0.65704914  0.13431239  0.41808857  1
  O  O59  1  0.35581577  0.14529046  0.09607708  1
  O  O60  1  0.85581577  0.35470954  0.59607708  1
  O  O61  1  0.15704914  0.36568761  0.91808857  1
  O  O62  1  0.15704914  0.63431239  0.41808857  1
  O  O63  1  0.85581577  0.64529046  0.09607708  1
  O  O64  1  0.45349330  0.84515256  0.93515557  1
  O  O65  1  0.55033901  0.84672863  0.57432261  1
  O  O66  1  0.55033901  0.15327137  0.07432261  1
  O  O67  1  0.45349330  0.15484744  0.43515557  1
  O  O68  1  0.95349330  0.34515256  0.93515557  1
  O  O69  1  0.05033901  0.34672863  0.57432261  1
  O  O70  1  0.05033901  0.65327137  0.07432261  1
  O  O71  1  0.95349330  0.65484744  0.43515557  1
  O  O72  1  0.07584974  0.84125186  0.74560662  1
  O  O73  1  0.91854304  0.84851952  0.74854124  1
  O  O74  1  0.91854304  0.15148048  0.24854124  1
  O  O75  1  0.07584974  0.15874814  0.24560662  1
  O  O76  1  0.57584974  0.34125186  0.74560662  1
  O  O77  1  0.41854304  0.34851952  0.74854124  1
  O  O78  1  0.41854304  0.65148048  0.24854124  1
  O  O79  1  0.57584974  0.65874814  0.24560662  1
