# generated using pymatgen
data_Na10Ta4Ti4Si11SO48
_symmetry_space_group_name_H-M   'P 1'
_cell_length_a   17.85079135
_cell_length_b   8.93270710
_cell_length_c   22.51257703
_cell_angle_alpha   90.04506644
_cell_angle_beta   90.04168334
_cell_angle_gamma   120.00953217
_symmetry_Int_Tables_number   1
_chemical_formula_structural   Na10Ta4Ti4Si11SO48
_chemical_formula_sum   'Na30 Ta12 Ti12 Si33 S3 O144'
_cell_volume   3108.52375135
_cell_formula_units_Z   3
loop_
 _symmetry_equiv_pos_site_id
 _symmetry_equiv_pos_as_xyz
  1  'x, y, z'
loop_
 _atom_site_type_symbol
 _atom_site_label
 _atom_site_symmetry_multiplicity
 _atom_site_fract_x
 _atom_site_fract_y
 _atom_site_fract_z
 _atom_site_occupancy
  Na  Na0  1  0.31757270  0.00022453  0.24986202  1
  Na  Na1  1  0.81739885  0.99978150  0.25010857  1
  Na  Na2  1  0.81960191  0.63792282  0.74973235  1
  Na  Na3  1  0.49645425  0.36175595  0.74890722  1
  Na  Na4  1  0.01622913  0.70205498  0.58423225  1
  Na  Na5  1  0.33302421  0.96935642  0.58462851  1
  Na  Na6  1  0.83479159  0.96734783  0.58407457  1
  Na  Na7  1  0.33425089  0.69925541  0.08508991  1
  Na  Na8  1  0.83450082  0.69971345  0.08567012  1
  Na  Na9  1  0.01603050  0.33030524  0.08489884  1
  Na  Na10  1  0.51465573  0.32869445  0.08506570  1
  Na  Na11  1  0.98566830  0.66818420  0.91467931  1
  Na  Na12  1  0.34852239  0.03087573  0.91603335  1
  Na  Na13  1  0.85206261  0.03322868  0.91567723  1
  Na  Na14  1  0.48448523  0.30062674  0.41473594  1
  Na  Na15  1  0.98475568  0.30073574  0.41443656  1
  Na  Na16  1  0.35093259  0.67027987  0.41497315  1
  Na  Na17  1  0.85055053  0.67066705  0.41478897  1
  Na  Na18  1  0.00565092  0.00614454  0.49938657  1
  Na  Na19  1  0.50535359  0.00086527  0.49886549  1
  Na  Na20  1  0.00622846  0.00582356  0.00052433  1
  Na  Na21  1  0.50433554  0.99850670  0.00121217  1
  Na  Na22  1  0.33065483  0.33723101  0.83129333  1
  Na  Na23  1  0.83252386  0.32932736  0.83238910  1
  Na  Na24  1  0.33273958  0.33622030  0.33003149  1
  Na  Na25  1  0.83255300  0.33601695  0.32981999  1
  Na  Na26  1  0.16472902  0.66422059  0.16969226  1
  Na  Na27  1  0.66443236  0.66387552  0.17034228  1
  Na  Na28  1  0.16717861  0.66397088  0.67116471  1
  Na  Na29  1  0.66414694  0.66733569  0.66536377  1
  Ta  Ta30  1  0.49962861  0.99712943  0.85343894  1
  Ta  Ta31  1  0.49977200  0.99723149  0.64639990  1
  Ta  Ta32  1  0.83537638  0.33134023  0.68831778  1
  Ta  Ta33  1  0.33240192  0.33879219  0.97946853  1
  Ta  Ta34  1  0.83131871  0.33256585  0.98064006  1
  Ta  Ta35  1  0.33103324  0.33000289  0.48006813  1
  Ta  Ta36  1  0.83125967  0.32855731  0.47921186  1
  Ta  Ta37  1  0.16660782  0.66917849  0.01965952  1
  Ta  Ta38  1  0.66578874  0.66937862  0.02093564  1
  Ta  Ta39  1  0.16693374  0.66308791  0.51991392  1
  Ta  Ta40  1  0.66285942  0.66229423  0.51990648  1
  Ta  Ta41  1  0.66612283  0.67218996  0.81212740  1
  Ti  Ti42  1  0.99402579  0.99466907  0.35280701  1
  Ti  Ti43  1  0.49417977  0.99496448  0.35272858  1
  Ti  Ti44  1  0.99820140  0.99841364  0.85357484  1
  Ti  Ti45  1  0.99958336  0.99225067  0.64694368  1
  Ti  Ti46  1  0.99713250  0.00532634  0.14724341  1
  Ti  Ti47  1  0.49593601  0.00449020  0.14717293  1
  Ti  Ti48  1  0.33535486  0.33323120  0.68442981  1
  Ti  Ti49  1  0.33967686  0.34919463  0.18506344  1
  Ti  Ti50  1  0.83972349  0.34968400  0.18550534  1
  Ti  Ti51  1  0.16507446  0.65063363  0.31460504  1
  Ti  Ti52  1  0.66475857  0.65042102  0.31476494  1
  Ti  Ti53  1  0.16838989  0.67827469  0.81485220  1
  Si  Si54  1  0.35432634  0.70613746  0.24969669  1
  Si  Si55  1  0.85438573  0.70682514  0.24957536  1
  Si  Si56  1  0.00113334  0.29336367  0.25034189  1
  Si  Si57  1  0.50107286  0.29333287  0.25031880  1
  Si  Si58  1  0.64502909  0.28659628  0.75006876  1
  Si  Si59  1  0.00478860  0.71470727  0.75096875  1
  Si  Si60  1  0.49618817  0.70597388  0.74936742  1
  Si  Si61  1  0.35012276  0.99533045  0.74991456  1
  Si  Si62  1  0.85882027  0.00365344  0.74991523  1
  Si  Si63  1  0.47872056  0.33587862  0.58429952  1
  Si  Si64  1  0.98021955  0.33005511  0.58394090  1
  Si  Si65  1  0.18747261  0.04829420  0.58569893  1
  Si  Si66  1  0.68654370  0.04338390  0.58383453  1
  Si  Si67  1  0.33325399  0.61778188  0.58495422  1
  Si  Si68  1  0.83177194  0.62118833  0.58408853  1
  Si  Si69  1  0.47924285  0.62967185  0.08459424  1
  Si  Si70  1  0.97992356  0.63000273  0.08443208  1
  Si  Si71  1  0.33135916  0.04719094  0.08539151  1
  Si  Si72  1  0.83177518  0.04631020  0.08619565  1
  Si  Si73  1  0.18743969  0.32556218  0.08564259  1
  Si  Si74  1  0.68696199  0.32532928  0.08602866  1
  Si  Si75  1  0.30904691  0.66272227  0.91438277  1
  Si  Si76  1  0.81084757  0.66442706  0.91590072  1
  Si  Si77  1  0.02505242  0.37636746  0.91427466  1
  Si  Si78  1  0.52209945  0.37733097  0.91657505  1
  Si  Si79  1  0.16550355  0.95955248  0.91511419  1
  Si  Si80  1  0.66456307  0.95739787  0.91688909  1
  Si  Si81  1  0.30857211  0.95443315  0.41386686  1
  Si  Si82  1  0.80795378  0.95203832  0.41442053  1
  Si  Si83  1  0.16472184  0.36952321  0.41512151  1
  Si  Si84  1  0.66451369  0.37038914  0.41547746  1
  Si  Si85  1  0.02502050  0.67471939  0.41476123  1
  Si  Si86  1  0.52423200  0.67431423  0.41411728  1
  S  S87  1  0.14299514  -0.00000202  0.25005143  1
  S  S88  1  0.64297275  0.00001876  0.24995788  1
  S  S89  1  0.14379751  0.28750260  0.74994270  1
  O  O90  1  0.10289486  0.02741685  0.30363319  1
  O  O91  1  0.60316273  0.02766564  0.30361816  1
  O  O92  1  0.41594494  0.80226383  0.30855162  1
  O  O93  1  0.91597780  0.80207697  0.30853913  1
  O  O94  1  0.48454379  0.16469122  0.30793743  1
  O  O95  1  0.98441612  0.16473289  0.30793924  1
  O  O96  1  0.10258491  0.17703632  0.80347015  1
  O  O97  1  0.59886210  0.16688983  0.80784805  1
  O  O98  1  0.48493607  0.80285585  0.80735755  1
  O  O99  1  0.98318458  0.80352422  0.80790052  1
  O  O100  1  0.41637952  0.03499923  0.80738243  1
  O  O101  1  0.91602482  0.02953297  0.80955862  1
  O  O102  1  0.40009661  0.97079331  0.69182373  1
  O  O103  1  0.90092222  0.96598407  0.69143660  1
  O  O104  1  0.08853437  0.20417686  0.69631987  1
  O  O105  1  0.58157160  0.20047079  0.69294274  1
  O  O106  1  0.01419782  0.83224179  0.69154675  1
  O  O107  1  0.51623666  0.83447087  0.69264034  1
  O  O108  1  0.40194897  0.83517885  0.19217133  1
  O  O109  1  0.90212902  0.83528627  0.19199540  1
  O  O110  1  0.01475288  0.19763529  0.19149027  1
  O  O111  1  0.51494130  0.19786563  0.19147367  1
  O  O112  1  0.08913456  0.97238765  0.19639223  1
  O  O113  1  0.58931419  0.97256506  0.19633892  1
  O  O114  1  0.43369908  0.36517988  0.64255637  1
  O  O115  1  0.93300828  0.36984834  0.63946770  1
  O  O116  1  0.25372323  0.13666087  0.64086330  1
  O  O117  1  0.75219640  0.13557642  0.64013954  1
  O  O118  1  0.31778685  0.49461989  0.64154413  1
  O  O119  1  0.81766629  0.50163501  0.64226910  1
  O  O120  1  0.43437136  0.49613224  0.14022822  1
  O  O121  1  0.93346914  0.49536107  0.13958185  1
  O  O122  1  0.31734148  0.13541592  0.14377089  1
  O  O123  1  0.81702623  0.13531911  0.14370362  1
  O  O124  1  0.25440385  0.37074860  0.14071578  1
  O  O125  1  0.75453385  0.37117791  0.14053469  1
  O  O126  1  0.23457366  0.30212105  0.02627690  1
  O  O127  1  0.73481997  0.30295296  0.02619405  1
  O  O128  1  0.41625600  0.53353545  0.02704060  1
  O  O129  1  0.91761050  0.53639624  0.02537502  1
  O  O130  1  0.35134323  0.16692986  0.02542746  1
  O  O131  1  0.85054748  0.16581078  0.02568896  1
  O  O132  1  0.23449053  0.16657410  0.52635330  1
  O  O133  1  0.73501684  0.16707118  0.52608406  1
  O  O134  1  0.34863473  0.53355676  0.52442795  1
  O  O135  1  0.85131602  0.53512799  0.52568972  1
  O  O136  1  0.41707765  0.29899531  0.52538319  1
  O  O137  1  0.91769076  0.29875370  0.52555717  1
  O  O138  1  0.26780175  0.70155269  0.97467909  1
  O  O139  1  0.76763760  0.70149118  0.97426705  1
  O  O140  1  0.08138628  0.46529454  0.97554464  1
  O  O141  1  0.58268313  0.46771273  0.97514973  1
  O  O142  1  0.14857621  0.83103948  0.97294140  1
  O  O143  1  0.65194751  0.83382614  0.97401732  1
  O  O144  1  0.26762076  0.83420442  0.47417048  1
  O  O145  1  0.76786331  0.83349831  0.47466346  1
  O  O146  1  0.14926754  0.46664467  0.47287114  1
  O  O147  1  0.64955116  0.46720723  0.47305968  1
  O  O148  1  0.08183285  0.69682402  0.47565147  1
  O  O149  1  0.58326891  0.69789319  0.47372066  1
  O  O150  1  0.06919881  0.62908176  0.35988046  1
  O  O151  1  0.56913875  0.62924444  0.35944283  1
  O  O152  1  0.24942335  0.86458916  0.35623632  1
  O  O153  1  0.74957891  0.86506802  0.35618369  1
  O  O154  1  0.18594326  0.50406211  0.35995038  1
  O  O155  1  0.68621307  0.50405147  0.35988054  1
  O  O156  1  0.06827142  0.50829706  0.85940980  1
  O  O157  1  0.56772611  0.49892455  0.85814246  1
  O  O158  1  0.18552655  0.86715072  0.85983415  1
  O  O159  1  0.68491741  0.86715353  0.86020743  1
  O  O160  1  0.24754891  0.63544347  0.85831548  1
  O  O161  1  0.75092722  0.63550646  0.85749085  1
  O  O162  1  0.00919201  0.83769604  0.40899355  1
  O  O163  1  0.50933995  0.83825997  0.40860101  1
  O  O164  1  0.40589667  0.97545483  0.40988147  1
  O  O165  1  0.90600046  0.97596733  0.40977341  1
  O  O166  1  0.07819090  0.18494648  0.40814734  1
  O  O167  1  0.57843988  0.18515215  0.40813201  1
  O  O168  1  0.00912930  0.18071071  0.90861907  1
  O  O169  1  0.50931775  0.18412224  0.90989283  1
  O  O170  1  0.07846103  0.97138830  0.90767147  1
  O  O171  1  0.58017434  0.97627947  0.91020263  1
  O  O172  1  0.40410888  0.83989894  0.90942710  1
  O  O173  1  0.90656388  0.83732378  0.90973681  1
  O  O174  1  0.48439195  0.15943383  0.59019276  1
  O  O175  1  0.98567002  0.15676818  0.59207083  1
  O  O176  1  0.09049390  0.01894227  0.59148039  1
  O  O177  1  0.59239561  0.02502758  0.59025547  1
  O  O178  1  0.41623777  0.81475822  0.59019257  1
  O  O179  1  0.91905837  0.81292498  0.59044004  1
  O  O180  1  0.48601850  0.81508092  0.09206394  1
  O  O181  1  0.98545289  0.81443506  0.09163107  1
  O  O182  1  0.41789423  0.02397593  0.09042225  1
  O  O183  1  0.91822276  0.02447816  0.09002991  1
  O  O184  1  0.09022074  0.16187116  0.09154309  1
  O  O185  1  0.59013159  0.16200637  0.09108342  1
  O  O186  1  0.34725296  0.17479163  0.74285317  1
  O  O187  1  0.84570785  0.17064816  0.74309891  1
  O  O188  1  0.23014994  0.30348774  0.74382091  1
  O  O189  1  0.74219332  0.31607288  0.74341039  1
  O  O190  1  0.41394856  0.51290321  0.74324118  1
  O  O191  1  0.91386861  0.52663542  0.74254172  1
  O  O192  1  0.34466676  0.51576482  0.24246257  1
  O  O193  1  0.84477070  0.51612467  0.24238336  1
  O  O194  1  0.41096611  0.29891638  0.24328248  1
  O  O195  1  0.91096521  0.29905220  0.24311148  1
  O  O196  1  0.23133342  0.15423535  0.24461945  1
  O  O197  1  0.73156121  0.15449777  0.24454777  1
  O  O198  1  0.32154647  0.49600901  0.92374376  1
  O  O199  1  0.82449431  0.49771109  0.92279049  1
  O  O200  1  0.42554407  0.35211753  0.92370155  1
  O  O201  1  0.92773221  0.35694857  0.92418018  1
  O  O202  1  0.25404644  0.14386221  0.92405407  1
  O  O203  1  0.75429479  0.14308778  0.92376042  1
  O  O204  1  0.32471351  0.15036723  0.42345734  1
  O  O205  1  0.82463610  0.14952464  0.42359518  1
  O  O206  1  0.25433561  0.36468406  0.42350458  1
  O  O207  1  0.75437580  0.36512965  0.42407364  1
  O  O208  1  0.42827852  0.49805592  0.42400531  1
  O  O209  1  0.92831787  0.49816351  0.42433486  1
  O  O210  1  0.17918133  0.50175054  0.07601851  1
  O  O211  1  0.67955575  0.50212962  0.07577535  1
  O  O212  1  0.07211628  0.63533946  0.07636302  1
  O  O213  1  0.57200514  0.63565575  0.07640968  1
  O  O214  1  0.24941245  0.84995197  0.07630180  1
  O  O215  1  0.74976884  0.85018883  0.07636629  1
  O  O216  1  0.17914878  0.85634235  0.57604044  1
  O  O217  1  0.68275642  0.85780743  0.57612311  1
  O  O218  1  0.24978392  0.64766384  0.57597122  1
  O  O219  1  0.74922099  0.64967890  0.57673471  1
  O  O220  1  0.07239113  0.50897939  0.57654757  1
  O  O221  1  0.57398427  0.50556811  0.57671592  1
  O  O222  1  0.15408643  0.84557135  0.25547459  1
  O  O223  1  0.65431402  0.84576355  0.25543407  1
  O  O224  1  0.26147099  0.70106522  0.25692936  1
  O  O225  1  0.76150531  0.70111833  0.25676925  1
  O  O226  1  0.08665943  0.48420183  0.25761227  1
  O  O227  1  0.58676300  0.48417233  0.25757749  1
  O  O228  1  0.15188496  0.45927137  0.75592675  1
  O  O229  1  0.65455067  0.47947568  0.75671928  1
  O  O230  1  0.08703812  0.68808948  0.75722725  1
  O  O231  1  0.58316634  0.68570695  0.75703357  1
  O  O232  1  0.25761511  0.82139834  0.75725623  1
  O  O233  1  0.76282104  0.82755510  0.75713944  1
