# generated using pymatgen
data_Na2MgInP(SO6)2
_symmetry_space_group_name_H-M   'P 1'
_cell_length_a   8.96575739
_cell_length_b   8.91766481
_cell_length_c   22.81556436
_cell_angle_alpha   90.18150625
_cell_angle_beta   90.00000000
_cell_angle_gamma   120.17855854
_symmetry_Int_Tables_number   1
_chemical_formula_structural   Na2MgInP(SO6)2
_chemical_formula_sum   'Na12 Mg6 In6 P6 S12 O72'
_cell_volume   1576.93150024
_cell_formula_units_Z   6
loop_
 _symmetry_equiv_pos_site_id
 _symmetry_equiv_pos_as_xyz
  1  'x, y, z'
loop_
 _atom_site_type_symbol
 _atom_site_label
 _atom_site_symmetry_multiplicity
 _atom_site_fract_x
 _atom_site_fract_y
 _atom_site_fract_z
 _atom_site_occupancy
  Na  Na0  1  0.00263928  0.64051834  0.24403472  1
  Na  Na1  1  0.63787905  0.64051834  0.74403472  1
  Na  Na2  1  0.66230052  0.96053452  0.58079709  1
  Na  Na3  1  0.29823499  0.96053452  0.08079709  1
  Na  Na4  1  0.69097769  0.02778998  0.91092549  1
  Na  Na5  1  0.33681129  0.02778998  0.41092549  1
  Na  Na6  1  0.98236883  0.98933871  0.49668271  1
  Na  Na7  1  0.00696988  0.98933871  0.99668271  1
  Na  Na8  1  0.65948260  0.31662696  0.83005967  1
  Na  Na9  1  0.65714536  0.31662696  0.33005967  1
  Na  Na10  1  0.33405457  0.66023628  0.16378097  1
  Na  Na11  1  0.32618071  0.66023628  0.66378097  1
  Mg  Mg12  1  0.99501089  0.00399482  0.35122393  1
  Mg  Mg13  1  0.00898393  0.00399482  0.85122393  1
  Mg  Mg14  1  0.66801078  0.32935641  0.68415054  1
  Mg  Mg15  1  0.66134663  0.32935641  0.18415054  1
  Mg  Mg16  1  0.31987698  0.66326547  0.01762994  1
  Mg  Mg17  1  0.34338748  0.66326547  0.51762994  1
  In  In18  1  0.99799180  0.99651575  0.65141503  1
  In  In19  1  0.99852394  0.99651575  0.15141503  1
  In  In20  1  0.66926008  0.34194290  0.98493187  1
  In  In21  1  0.67268382  0.34194290  0.48493187  1
  In  In22  1  0.34450866  0.67717709  0.31786909  1
  In  In23  1  0.33266743  0.67717709  0.81786909  1
  P  P24  1  0.29995270  0.00502526  0.25226589  1
  P  P25  1  0.70507256  0.00502526  0.75226589  1
  P  P26  1  0.66324234  0.62692241  0.58673735  1
  P  P27  1  0.96368107  0.62692241  0.08673735  1
  P  P28  1  0.33109867  0.96715434  0.92072933  1
  P  P29  1  0.63605466  0.96715434  0.42072933  1
  S  S30  1  0.70421736  0.70254371  0.25102895  1
  S  S31  1  0.99794458  0.29430956  0.25115060  1
  S  S32  1  0.29636497  0.29430956  0.75115060  1
  S  S33  1  0.99832635  0.70254371  0.75102895  1
  S  S34  1  0.96675776  0.33900606  0.58469510  1
  S  S35  1  0.36914662  0.03657225  0.58339829  1
  S  S36  1  0.66742663  0.03657225  0.08339829  1
  S  S37  1  0.37224930  0.33900606  0.08469510  1
  S  S38  1  0.62732596  0.66722633  0.91663922  1
  S  S39  1  0.04060820  0.36984009  0.91710395  1
  S  S40  1  0.32923089  0.36984009  0.41710395  1
  S  S41  1  0.03989938  0.66722633  0.41663922  1
  O  O42  1  0.20738180  0.02009085  0.30700994  1
  O  O43  1  0.81391954  0.79153797  0.30201628  1
  O  O44  1  0.97769466  0.18772702  0.30223732  1
  O  O45  1  0.21003236  0.18772702  0.80223732  1
  O  O46  1  0.97761844  0.79153797  0.80201628  1
  O  O47  1  0.81270905  0.02009085  0.80700994  1
  O  O48  1  0.78019923  0.96666216  0.69541432  1
  O  O49  1  0.19670480  0.22104847  0.69589885  1
  O  O50  1  0.03306490  0.80659792  0.69649850  1
  O  O51  1  0.77353302  0.80659792  0.19649850  1
  O  O52  1  0.02434367  0.22104847  0.19589885  1
  O  O53  1  0.18646293  0.96666216  0.19541432  1
  O  O54  1  0.88005291  0.35791688  0.63632410  1
  O  O55  1  0.48578268  0.12672913  0.63294466  1
  O  O56  1  0.64932561  0.52424006  0.64229464  1
  O  O57  1  0.87491544  0.52424006  0.14229464  1
  O  O58  1  0.64094745  0.12672913  0.13294466  1
  O  O59  1  0.47786497  0.35791688  0.13632410  1
  O  O60  1  0.44121628  0.29682545  0.03088514  1
  O  O61  1  0.85552176  0.54802057  0.03029489  1
  O  O62  1  0.69488699  0.13408696  0.02731828  1
  O  O63  1  0.43920097  0.13408696  0.52731828  1
  O  O64  1  0.69249981  0.54802057  0.53029489  1
  O  O65  1  0.85561016  0.29682545  0.53088514  1
  O  O66  1  0.53537530  0.68730686  0.96675620  1
  O  O67  1  0.14555930  0.45569507  0.96878914  1
  O  O68  1  0.31303203  0.86106191  0.97615946  1
  O  O69  1  0.54802887  0.86106191  0.47615946  1
  O  O70  1  0.31013476  0.45569507  0.46878914  1
  O  O71  1  0.15193057  0.68730686  0.46675620  1
  O  O72  1  0.10980738  0.63802630  0.36060929  1
  O  O73  1  0.51528876  0.89127158  0.36580200  1
  O  O74  1  0.35521248  0.47045291  0.36233625  1
  O  O75  1  0.11523943  0.47045291  0.86233625  1
  O  O76  1  0.37598182  0.89127158  0.86580200  1
  O  O77  1  0.52821792  0.63802630  0.86060929  1
  O  O78  1  0.03078475  0.82940631  0.41186329  1
  O  O79  1  0.81372557  0.98594109  0.41147609  1
  O  O80  1  0.17625284  0.19207378  0.41180254  1
  O  O81  1  0.01582094  0.19207378  0.91180254  1
  O  O82  1  0.17221551  0.98594109  0.91147609  1
  O  O83  1  0.79862157  0.82940631  0.91186329  1
  O  O84  1  0.98372033  0.17906252  0.58918150  1
  O  O85  1  0.19587615  0.01918384  0.58963958  1
  O  O86  1  0.82656636  0.81715539  0.58742145  1
  O  O87  1  0.99058903  0.81715539  0.08742145  1
  O  O88  1  0.82330769  0.01918384  0.08963958  1
  O  O89  1  0.19534219  0.17906252  0.08918150  1
  O  O90  1  0.68339150  0.16374162  0.74458899  1
  O  O91  1  0.47296735  0.31878343  0.74579152  1
  O  O92  1  0.83626239  0.53212397  0.74495592  1
  O  O93  1  0.69586258  0.53212397  0.24495592  1
  O  O94  1  0.84581708  0.31878343  0.24579152  1
  O  O95  1  0.48035112  0.16374162  0.24458899  1
  O  O96  1  0.65135278  0.51420536  0.92062021  1
  O  O97  1  0.86232303  0.34731130  0.92070056  1
  O  O98  1  0.50398125  0.15019840  0.92387593  1
  O  O99  1  0.64621815  0.15019840  0.42387593  1
  O  O100  1  0.48498927  0.34731130  0.42070056  1
  O  O101  1  0.86285359  0.51420536  0.42062021  1
  O  O102  1  0.35708040  0.49431507  0.07679698  1
  O  O103  1  0.14698929  0.65022355  0.08076337  1
  O  O104  1  0.50980485  0.86180762  0.07829782  1
  O  O105  1  0.35200177  0.86180762  0.57829782  1
  O  O106  1  0.50323326  0.65022355  0.58076337  1
  O  O107  1  0.13723367  0.49431507  0.57679698  1
  O  O108  1  0.30737761  0.83061290  0.25430206  1
  O  O109  1  0.52572392  0.67402076  0.25565934  1
  O  O110  1  0.15548318  0.47333779  0.25542385  1
  O  O111  1  0.31785361  0.47333779  0.75542385  1
  O  O112  1  0.14829584  0.67402076  0.75565934  1
  O  O113  1  0.52323430  0.83061290  0.75430206  1
