# generated using pymatgen
data_Na2Y3TaP4(SO12)2
_symmetry_space_group_name_H-M   'P 1'
_cell_length_a   9.04943843
_cell_length_b   9.04430838
_cell_length_c   23.89902870
_cell_angle_alpha   90.18262865
_cell_angle_beta   89.91478789
_cell_angle_gamma   120.04070419
_symmetry_Int_Tables_number   1
_chemical_formula_structural   Na2Y3TaP4(SO12)2
_chemical_formula_sum   'Na6 Y9 Ta3 P12 S6 O72'
_cell_volume   1693.27457408
_cell_formula_units_Z   3
loop_
 _symmetry_equiv_pos_site_id
 _symmetry_equiv_pos_as_xyz
  1  'x, y, z'
loop_
 _atom_site_type_symbol
 _atom_site_label
 _atom_site_symmetry_multiplicity
 _atom_site_fract_x
 _atom_site_fract_y
 _atom_site_fract_z
 _atom_site_occupancy
  Na  Na0  1  0.99133627  0.98918643  0.49923535  1
  Na  Na1  1  0.00760735  0.99983556  0.99773398  1
  Na  Na2  1  0.66724690  0.33090263  0.83046761  1
  Na  Na3  1  0.68493277  0.34208547  0.33032733  1
  Na  Na4  1  0.32702622  0.65031671  0.15977063  1
  Na  Na5  1  0.33413318  0.66637084  0.67252181  1
  Y  Y6  1  0.98952079  0.99430041  0.35082069  1
  Y  Y7  1  0.00119133  0.00111938  0.85196538  1
  Y  Y8  1  0.99941307  0.99921851  0.65874275  1
  Y  Y9  1  0.99661930  0.00124617  0.14561818  1
  Y  Y10  1  0.66665799  0.33328068  0.68983152  1
  Y  Y11  1  0.67371367  0.34441608  0.18605338  1
  Y  Y12  1  0.67436564  0.33245787  0.47582624  1
  Y  Y13  1  0.32947191  0.66202070  0.01829168  1
  Y  Y14  1  0.33357634  0.67204228  0.51858464  1
  Ta  Ta15  1  0.66494402  0.34247921  0.97723140  1
  Ta  Ta16  1  0.33250995  0.66788884  0.31480124  1
  Ta  Ta17  1  0.33197250  0.66717714  0.81877357  1
  P  P18  1  0.69379323  0.70258790  0.25197614  1
  P  P19  1  0.00718096  0.30249128  0.25271824  1
  P  P20  1  0.29748448  0.30875237  0.75346229  1
  P  P21  1  0.01095733  0.70290697  0.75341955  1
  P  P22  1  0.69144454  0.98885833  0.75366274  1
  P  P23  1  0.95225385  0.62339625  0.08014602  1
  P  P24  1  0.37824554  0.32919704  0.08103756  1
  P  P25  1  0.62002570  0.66118363  0.91708428  1
  P  P26  1  0.03473142  0.37960582  0.91698512  1
  P  P27  1  0.34406196  0.96358836  0.91801069  1
  P  P28  1  0.61892315  0.95500934  0.41474795  1
  P  P29  1  0.04595427  0.66767857  0.41436020  1
  S  S30  1  0.29659605  0.99128292  0.25258544  1
  S  S31  1  0.96247916  0.32866260  0.58325285  1
  S  S32  1  0.36851762  0.04071509  0.58286610  1
  S  S33  1  0.66943774  0.63013956  0.58274998  1
  S  S34  1  0.66803420  0.05126523  0.08001385  1
  S  S35  1  0.33497959  0.38127677  0.41383006  1
  O  O36  1  0.21742058  0.01589468  0.30216796  1
  O  O37  1  0.80443414  0.78513464  0.30317794  1
  O  O38  1  0.98835771  0.19636100  0.30406135  1
  O  O39  1  0.21302266  0.19502626  0.80312711  1
  O  O40  1  0.98186678  0.78740524  0.80322674  1
  O  O41  1  0.80589910  0.01851938  0.80319147  1
  O  O42  1  0.76058785  0.95169303  0.69935635  1
  O  O43  1  0.19094967  0.23860886  0.69932052  1
  O  O44  1  0.04783956  0.80918673  0.69934876  1
  O  O45  1  0.76740152  0.81064901  0.19909109  1
  O  O46  1  0.04395116  0.23124976  0.19938311  1
  O  O47  1  0.19282303  0.95873279  0.20194174  1
  O  O48  1  0.87862783  0.34788314  0.63312105  1
  O  O49  1  0.46982958  0.12543068  0.63300296  1
  O  O50  1  0.65319501  0.52951494  0.63291339  1
  O  O51  1  0.87178748  0.52189404  0.13327092  1
  O  O52  1  0.65137306  0.12759015  0.13219836  1
  O  O53  1  0.47730920  0.34160616  0.13385103  1
  O  O54  1  0.48432350  0.32139629  0.02739135  1
  O  O55  1  0.83772276  0.51539948  0.02719764  1
  O  O56  1  0.68017427  0.15606942  0.02973525  1
  O  O57  1  0.45496643  0.13912428  0.53169213  1
  O  O58  1  0.68264989  0.54365396  0.53145146  1
  O  O59  1  0.86256396  0.31415136  0.53191516  1
  O  O60  1  0.54206283  0.68394178  0.96958716  1
  O  O61  1  0.13934563  0.45800188  0.96902409  1
  O  O62  1  0.32091847  0.85998871  0.96980902  1
  O  O63  1  0.53794365  0.85444256  0.46794718  1
  O  O64  1  0.31562006  0.45785083  0.46541016  1
  O  O65  1  0.14250364  0.67957434  0.46785977  1
  O  O66  1  0.15093148  0.65584401  0.36256077  1
  O  O67  1  0.50507966  0.84785064  0.36293272  1
  O  O68  1  0.34796400  0.48861142  0.36390667  1
  O  O69  1  0.13124065  0.49919855  0.86513828  1
  O  O70  1  0.36734178  0.86813207  0.86567099  1
  O  O71  1  0.50138169  0.63453550  0.86535666  1
  O  O72  1  0.03319987  0.82863523  0.40909602  1
  O  O73  1  0.79762115  0.97794306  0.41046167  1
  O  O74  1  0.18518725  0.21055985  0.40829191  1
  O  O75  1  0.00370764  0.20036730  0.90834715  1
  O  O76  1  0.19575935  0.99435406  0.90920348  1
  O  O77  1  0.80027251  0.80638372  0.90882121  1
  O  O78  1  0.97860682  0.17367143  0.58652842  1
  O  O79  1  0.19645900  0.02245231  0.58622105  1
  O  O80  1  0.82385250  0.80254704  0.58603437  1
  O  O81  1  0.95641958  0.79557301  0.08074865  1
  O  O82  1  0.82664871  0.04027942  0.08147708  1
  O  O83  1  0.20300673  0.16389647  0.08051536  1
  O  O84  1  0.65995573  0.13963978  0.74621293  1
  O  O85  1  0.47981790  0.34072147  0.74603019  1
  O  O86  1  0.86056940  0.52054185  0.74591136  1
  O  O87  1  0.65778512  0.51859004  0.24770757  1
  O  O88  1  0.85463951  0.33100968  0.24822004  1
  O  O89  1  0.47098865  0.13523416  0.24692719  1
  O  O90  1  0.62987996  0.48905759  0.92458855  1
  O  O91  1  0.85565746  0.37027834  0.92454748  1
  O  O92  1  0.51390671  0.14414076  0.92581457  1
  O  O93  1  0.62278295  0.12718603  0.41382407  1
  O  O94  1  0.49395430  0.37281396  0.41498034  1
  O  O95  1  0.87037079  0.50255322  0.41329242  1
  O  O96  1  0.36390660  0.48980702  0.07686472  1
  O  O97  1  0.12967788  0.64439410  0.07578975  1
  O  O98  1  0.51763297  0.87933277  0.07610233  1
  O  O99  1  0.35098038  0.86781185  0.58027388  1
  O  O100  1  0.51402004  0.64658210  0.57963188  1
  O  O101  1  0.13486870  0.48278866  0.57952531  1
  O  O102  1  0.31257084  0.83188895  0.26125929  1
  O  O103  1  0.51235958  0.68634958  0.26470840  1
  O  O104  1  0.17076443  0.48692666  0.26511578  1
  O  O105  1  0.31333484  0.48868388  0.76577572  1
  O  O106  1  0.17485825  0.68670250  0.76543010  1
  O  O107  1  0.51122567  0.82521165  0.76587500  1
