# generated using pymatgen
data_MgV4As2O13
_symmetry_space_group_name_H-M   'P 1'
_cell_length_a   5.08512193
_cell_length_b   5.28291743
_cell_length_c   9.08590179
_cell_angle_alpha   91.93537999
_cell_angle_beta   80.73464194
_cell_angle_gamma   78.43675252
_symmetry_Int_Tables_number   1
_chemical_formula_structural   MgV4As2O13
_chemical_formula_sum   'Mg1 V4 As2 O13'
_cell_volume   235.46111859
_cell_formula_units_Z   1
loop_
 _symmetry_equiv_pos_site_id
 _symmetry_equiv_pos_as_xyz
  1  'x, y, z'
loop_
 _atom_site_type_symbol
 _atom_site_label
 _atom_site_symmetry_multiplicity
 _atom_site_fract_x
 _atom_site_fract_y
 _atom_site_fract_z
 _atom_site_occupancy
  Mg  Mg0  1  0.35768900  0.28500400  0.21281300  1
  V  V1  1  0.90252800  0.15719100  0.37257400  1
  V  V2  1  0.60329600  0.72619700  0.29028500  1
  V  V3  1  0.74268600  0.95348300  0.68531200  1
  V  V4  1  0.45599400  0.47731700  0.91623500  1
  As  As5  1  0.23856200  0.42962800  0.58268100  1
  As  As6  1  0.99315200  0.02156000  0.00324900  1
  O  O7  1  0.94564100  0.45722100  0.29281900  1
  O  O8  1  0.25257900  0.97256800  0.31275200  1
  O  O9  1  0.70850700  0.92150200  0.47338000  1
  O  O10  1  0.60057000  0.73862000  0.78622000  1
  O  O11  1  0.53350400  0.54790200  0.11053500  1
  O  O12  1  0.42543200  0.28312200  0.71282500  1
  O  O13  1  0.80535400  0.16355800  0.87206600  1
  O  O14  1  0.08990500  0.69966900  0.95596100  1
  O  O15  1  0.77101200  0.03497300  0.17882200  1
  O  O16  1  0.97722700  0.26658900  0.57125100  1
  O  O17  1  0.11950800  0.74662200  0.63958400  1
  O  O18  1  0.46109800  0.41832800  0.41301900  1
  O  O19  1  0.25087700  0.17914800  0.01801700  1
