# generated using pymatgen
data_NaMgSnP(SO6)2
_symmetry_space_group_name_H-M   'P 1'
_cell_length_a   8.66772447
_cell_length_b   8.69649378
_cell_length_c   22.83482378
_cell_angle_alpha   89.61890581
_cell_angle_beta   90.00000000
_cell_angle_gamma   119.89062744
_symmetry_Int_Tables_number   1
_chemical_formula_structural   NaMgSnP(SO6)2
_chemical_formula_sum   'Na6 Mg6 Sn6 P6 S12 O72'
_cell_volume   1492.25275554
_cell_formula_units_Z   6
loop_
 _symmetry_equiv_pos_site_id
 _symmetry_equiv_pos_as_xyz
  1  'x, y, z'
loop_
 _atom_site_type_symbol
 _atom_site_label
 _atom_site_symmetry_multiplicity
 _atom_site_fract_x
 _atom_site_fract_y
 _atom_site_fract_z
 _atom_site_occupancy
  Na  Na0  1  0.97806837  0.98419010  0.50507203  1
  Na  Na1  1  0.00612172  0.98419010  0.00507203  1
  Na  Na2  1  0.65625376  0.31133679  0.83862511  1
  Na  Na3  1  0.65508403  0.31133679  0.33862511  1
  Na  Na4  1  0.32057800  0.67695034  0.17218033  1
  Na  Na5  1  0.35637134  0.67695034  0.67218033  1
  Mg  Mg6  1  0.98655855  0.99040326  0.64647983  1
  Mg  Mg7  1  0.00384471  0.99040326  0.14647983  1
  Mg  Mg8  1  0.66580450  0.33272801  0.98061108  1
  Mg  Mg9  1  0.66692451  0.33272801  0.48061108  1
  Mg  Mg10  1  0.34061460  0.68308050  0.31416935  1
  Mg  Mg11  1  0.34246490  0.68308050  0.81416935  1
  Sn  Sn12  1  0.00321785  0.99977123  0.34932324  1
  Sn  Sn13  1  0.99655339  0.99977123  0.84932324  1
  Sn  Sn14  1  0.66738162  0.33138815  0.68287112  1
  Sn  Sn15  1  0.66400753  0.33138815  0.18287112  1
  Sn  Sn16  1  0.32099701  0.67270990  0.01620805  1
  Sn  Sn17  1  0.35171189  0.67270990  0.51620805  1
  P  P18  1  0.29494909  0.00189649  0.24772620  1
  P  P19  1  0.70694740  0.00189649  0.74772620  1
  P  P20  1  0.66848346  0.62280588  0.58122857  1
  P  P21  1  0.95432343  0.62280588  0.08122857  1
  P  P22  1  0.33319672  0.96768027  0.91381057  1
  P  P23  1  0.63448255  0.96768027  0.41381057  1
  S  S24  1  0.70438558  0.70404140  0.24849023  1
  S  S25  1  0.00118817  0.29465290  0.24789278  1
  S  S26  1  0.29346473  0.29465290  0.74789278  1
  S  S27  1  0.99965582  0.70404140  0.74849023  1
  S  S28  1  0.96673686  0.33758438  0.58070020  1
  S  S29  1  0.36937392  0.03694955  0.58198577  1
  S  S30  1  0.66757663  0.03694955  0.08198577  1
  S  S31  1  0.37084852  0.33758438  0.08070020  1
  S  S32  1  0.62271353  0.66556910  0.91619113  1
  S  S33  1  0.04140112  0.37294084  0.91442140  1
  S  S34  1  0.33153872  0.37294084  0.41442140  1
  S  S35  1  0.04285458  0.66556910  0.41619113  1
  O  O36  1  0.22244999  0.03997404  0.30677804  1
  O  O37  1  0.81142917  0.77747279  0.30402829  1
  O  O38  1  0.96445930  0.18606074  0.30377847  1
  O  O39  1  0.22160144  0.18606074  0.80377847  1
  O  O40  1  0.96604362  0.77747279  0.80402829  1
  O  O41  1  0.81752405  0.03997404  0.80677804  1
  O  O42  1  0.80420939  0.98959290  0.69529598  1
  O  O43  1  0.18973337  0.20390619  0.69684019  1
  O  O44  1  0.02282413  0.81424539  0.69759257  1
  O  O45  1  0.79142126  0.81424539  0.19759257  1
  O  O46  1  0.01417282  0.20390619  0.19684019  1
  O  O47  1  0.18538351  0.98959290  0.19529598  1
  O  O48  1  0.89383166  0.36970315  0.63684343  1
  O  O49  1  0.48007760  0.10655747  0.63716045  1
  O  O50  1  0.63273933  0.51229718  0.64024336  1
  O  O51  1  0.87955885  0.51229718  0.14024336  1
  O  O52  1  0.62648086  0.10655747  0.13716045  1
  O  O53  1  0.47587250  0.36970315  0.13684343  1
  O  O54  1  0.45921968  0.31390155  0.03065249  1
  O  O55  1  0.84680084  0.52643272  0.02849302  1
  O  O56  1  0.68259021  0.14164291  0.03048967  1
  O  O57  1  0.45905371  0.14164291  0.53048967  1
  O  O58  1  0.67963288  0.52643272  0.52849302  1
  O  O59  1  0.85468287  0.31390155  0.53065249  1
  O  O60  1  0.54478491  0.69440508  0.97162560  1
  O  O61  1  0.15004244  0.44362984  0.96998519  1
  O  O62  1  0.29125433  0.85638321  0.97311325  1
  O  O63  1  0.56512787  0.85638321  0.47311325  1
  O  O64  1  0.29358640  0.44362984  0.46998519  1
  O  O65  1  0.14961917  0.69440508  0.47162560  1
  O  O66  1  0.13020135  0.64711974  0.36483113  1
  O  O67  1  0.52161107  0.87297568  0.36179579  1
  O  O68  1  0.34447188  0.47840732  0.36329990  1
  O  O69  1  0.13393444  0.47840732  0.86329990  1
  O  O70  1  0.35136360  0.87297568  0.86179579  1
  O  O71  1  0.51691739  0.64711974  0.86483113  1
  O  O72  1  0.02806977  0.83191331  0.41271406  1
  O  O73  1  0.82498816  0.98347377  0.40967977  1
  O  O74  1  0.17040149  0.18956143  0.41192501  1
  O  O75  1  0.01915993  0.18956143  0.91192501  1
  O  O76  1  0.15848561  0.98347377  0.90967977  1
  O  O77  1  0.80384354  0.83191331  0.91271406  1
  O  O78  1  0.99355908  0.18519028  0.58794859  1
  O  O79  1  0.19630298  0.02423504  0.59025765  1
  O  O80  1  0.83082014  0.80664642  0.58710172  1
  O  O81  1  0.97582628  0.80664642  0.08710172  1
  O  O82  1  0.82793206  0.02423504  0.09025765  1
  O  O83  1  0.19163120  0.18519028  0.08794859  1
  O  O84  1  0.68766559  0.17455137  0.74444334  1
  O  O85  1  0.47793618  0.31628230  0.74524996  1
  O  O86  1  0.83323940  0.52501447  0.74464134  1
  O  O87  1  0.69177608  0.52501447  0.24464134  1
  O  O88  1  0.83834712  0.31628230  0.24524996  1
  O  O89  1  0.48688678  0.17455137  0.24444334  1
  O  O90  1  0.64710603  0.51202101  0.92287182  1
  O  O91  1  0.86634737  0.35746361  0.92116201  1
  O  O92  1  0.49532564  0.15025468  0.92197891  1
  O  O93  1  0.65493003  0.15025468  0.42197891  1
  O  O94  1  0.49111723  0.35746361  0.42116201  1
  O  O95  1  0.86491598  0.51202101  0.42287182  1
  O  O96  1  0.35985306  0.50479410  0.07543218  1
  O  O97  1  0.14604411  0.63947071  0.08027310  1
  O  O98  1  0.50809955  0.85186311  0.07810395  1
  O  O99  1  0.34376256  0.85186311  0.57810395  1
  O  O100  1  0.49342560  0.63947071  0.58027310  1
  O  O101  1  0.14494004  0.50479410  0.57543218  1
  O  O102  1  0.31467949  0.83872867  0.25445965  1
  O  O103  1  0.52552296  0.67836241  0.25562662  1
  O  O104  1  0.16009629  0.46878631  0.25529652  1
  O  O105  1  0.30868902  0.46878631  0.75529652  1
  O  O106  1  0.15283845  0.67836241  0.75562662  1
  O  O107  1  0.52404819  0.83872867  0.75445965  1
