# generated using pymatgen
data_Na3ZnGe(PO4)3
_symmetry_space_group_name_H-M   'P 1'
_cell_length_a   8.79632540
_cell_length_b   8.80788130
_cell_length_c   21.72908358
_cell_angle_alpha   89.99999999
_cell_angle_beta   90.08387115
_cell_angle_gamma   120.04346916
_symmetry_Int_Tables_number   1
_chemical_formula_structural   Na3ZnGe(PO4)3
_chemical_formula_sum   'Na18 Zn6 Ge6 P18 O72'
_cell_volume   1457.31610009
_cell_formula_units_Z   6
loop_
 _symmetry_equiv_pos_site_id
 _symmetry_equiv_pos_as_xyz
  1  'x, y, z'
loop_
 _atom_site_type_symbol
 _atom_site_label
 _atom_site_symmetry_multiplicity
 _atom_site_fract_x
 _atom_site_fract_y
 _atom_site_fract_z
 _atom_site_occupancy
  Na  Na0  1  0.98952537  0.97784702  0.49599296  1
  Na  Na1  1  0.98952537  0.01167835  0.99599296  1
  Na  Na2  1  0.66717075  0.33561436  0.82927199  1
  Na  Na3  1  0.66717075  0.33155539  0.32927199  1
  Na  Na4  1  0.33189777  0.66533022  0.16262695  1
  Na  Na5  1  0.33189777  0.66656855  0.66262695  1
  Na  Na6  1  0.36979200  0.36152725  0.24818081  1
  Na  Na7  1  0.98768116  0.62999446  0.24808625  1
  Na  Na8  1  0.98768116  0.35768670  0.74808625  1
  Na  Na9  1  0.36979200  0.00826475  0.74818081  1
  Na  Na10  1  0.30812474  0.34483461  0.58180190  1
  Na  Na11  1  0.65804959  0.96318094  0.58129272  1
  Na  Na12  1  0.30812474  0.96328913  0.08180190  1
  Na  Na13  1  0.65804959  0.69486765  0.08129272  1
  Na  Na14  1  0.97457454  0.67875077  0.91425964  1
  Na  Na15  1  0.32479757  0.29755396  0.91522217  1
  Na  Na16  1  0.97457454  0.29582477  0.41425964  1
  Na  Na17  1  0.32479757  0.02724462  0.41522217  1
  Zn  Zn18  1  0.99278434  0.99470082  0.35029311  1
  Zn  Zn19  1  0.99278434  0.99808352  0.85029311  1
  Zn  Zn20  1  0.66816419  0.34080160  0.68359986  1
  Zn  Zn21  1  0.66816419  0.32736159  0.18359986  1
  Zn  Zn22  1  0.32930225  0.66129877  0.01699049  1
  Zn  Zn23  1  0.32930225  0.66800448  0.51699049  1
  Ge  Ge24  1  0.99744754  0.99268155  0.64921549  1
  Ge  Ge25  1  0.99744754  0.00476599  0.14921549  1
  Ge  Ge26  1  0.66965233  0.32694309  0.98243537  1
  Ge  Ge27  1  0.66965233  0.34270824  0.48243537  1
  Ge  Ge28  1  0.33901274  0.67191020  0.31582581  1
  Ge  Ge29  1  0.33901274  0.66710353  0.81582581  1
  P  P30  1  0.29220339  0.99555606  0.25185423  1
  P  P31  1  0.70363693  0.71274593  0.25057662  1
  P  P32  1  0.00351359  0.29533451  0.25286511  1
  P  P33  1  0.29220339  0.29664733  0.75185423  1
  P  P34  1  0.00351359  0.70817908  0.75286511  1
  P  P35  1  0.70363693  0.99089100  0.75057662  1
  P  P36  1  0.95845580  0.33018929  0.58542140  1
  P  P37  1  0.36910112  0.04113290  0.58535837  1
  P  P38  1  0.67503681  0.62880694  0.58455062  1
  P  P39  1  0.95845580  0.62826551  0.08542140  1
  P  P40  1  0.67503681  0.04622887  0.08455062  1
  P  P41  1  0.36910112  0.32796723  0.08535837  1
  P  P42  1  0.62537463  0.66374955  0.91956270  1
  P  P43  1  0.03703913  0.37476800  0.91728342  1
  P  P44  1  0.34345435  0.96374136  0.91833263  1
  P  P45  1  0.62537463  0.96162608  0.41956270  1
  P  P46  1  0.34345435  0.37971399  0.41833263  1
  P  P47  1  0.03703913  0.66227213  0.41728342  1
  O  O48  1  0.21359224  0.02695447  0.30917586  1
  O  O49  1  0.82180828  0.79055292  0.30482143  1
  O  O50  1  0.98060636  0.19472957  0.31154898  1
  O  O51  1  0.21359224  0.18663776  0.80917586  1
  O  O52  1  0.98060636  0.78587679  0.81154898  1
  O  O53  1  0.82180828  0.03125536  0.80482143  1
  O  O54  1  0.78411729  0.95793324  0.68922913  1
  O  O55  1  0.16626667  0.21232803  0.69249586  1
  O  O56  1  0.04561573  0.83694507  0.69533879  1
  O  O57  1  0.78411729  0.82618405  0.18922913  1
  O  O58  1  0.04561573  0.20867065  0.19533879  1
  O  O59  1  0.16626667  0.95393864  0.19249586  1
  O  O60  1  0.87869120  0.35261997  0.64348589  1
  O  O61  1  0.47963967  0.11997054  0.64248499  1
  O  O62  1  0.63447177  0.51327038  0.63968819  1
  O  O63  1  0.87869120  0.52607022  0.14348589  1
  O  O64  1  0.63447177  0.12120040  0.13968819  1
  O  O65  1  0.47963967  0.35966813  0.14248499  1
  O  O66  1  0.45270961  0.28634065  0.02603036  1
  O  O67  1  0.83446966  0.54314360  0.02606675  1
  O  O68  1  0.71083805  0.16406246  0.02473449  1
  O  O69  1  0.45270961  0.16636795  0.52603036  1
  O  O70  1  0.71083805  0.54677460  0.52473449  1
  O  O71  1  0.83446966  0.29132506  0.52606675  1
  O  O72  1  0.54896426  0.68919014  0.97806561  1
  O  O73  1  0.15312176  0.45687867  0.97229452  1
  O  O74  1  0.30882770  0.85335561  0.97534172  1
  O  O75  1  0.54896426  0.85977512  0.47806561  1
  O  O76  1  0.30882770  0.45547309  0.47534172  1
  O  O77  1  0.15312176  0.69624409  0.47229452  1
  O  O78  1  0.11733645  0.61960787  0.35698093  1
  O  O79  1  0.49597206  0.87562169  0.36189077  1
  O  O80  1  0.37353324  0.49533920  0.35815587  1
  O  O81  1  0.11733645  0.49772958  0.85698093  1
  O  O82  1  0.37353324  0.87819504  0.85815587  1
  O  O83  1  0.49597206  0.62035138  0.86189077  1
  O  O84  1  0.01605172  0.82213022  0.41002402  1
  O  O85  1  0.81101999  0.99471128  0.41207094  1
  O  O86  1  0.18470348  0.19385442  0.41146871  1
  O  O87  1  0.01605172  0.19392150  0.91002402  1
  O  O88  1  0.18470348  0.99084907  0.91146871  1
  O  O89  1  0.81101999  0.81630871  0.91207094  1
  O  O90  1  0.96806033  0.15234965  0.58757835  1
  O  O91  1  0.18553941  0.03539411  0.58971357  1
  O  O92  1  0.84649184  0.81698894  0.58954541  1
  O  O93  1  0.96806033  0.81571068  0.08757835  1
  O  O94  1  0.84649184  0.02950290  0.08954541  1
  O  O95  1  0.18553941  0.15014530  0.08971357  1
  O  O96  1  0.67404175  0.14805138  0.74380605  1
  O  O97  1  0.47222736  0.31566425  0.74419953  1
  O  O98  1  0.85087714  0.52274725  0.74560563  1
  O  O99  1  0.67404175  0.52598937  0.24380605  1
  O  O100  1  0.85087714  0.32812890  0.24560563  1
  O  O101  1  0.47222736  0.15656211  0.24419953  1
  O  O102  1  0.63510635  0.48593399  0.92221583  1
  O  O103  1  0.85420461  0.37035578  0.92224432  1
  O  O104  1  0.51381291  0.15264092  0.92226058  1
  O  O105  1  0.63510635  0.14917135  0.42221583  1
  O  O106  1  0.51381291  0.36117099  0.42226058  1
  O  O107  1  0.85420461  0.48384783  0.42224432  1
  O  O108  1  0.34942317  0.48864325  0.07778564  1
  O  O109  1  0.14473333  0.66182738  0.07863989  1
  O  O110  1  0.51750402  0.85992601  0.07722083  1
  O  O111  1  0.34942317  0.86078093  0.57778564  1
  O  O112  1  0.51750402  0.65757901  0.57722083  1
  O  O113  1  0.14473333  0.48290695  0.57863989  1
  O  O114  1  0.29753464  0.81787463  0.25597850  1
  O  O115  1  0.51528411  0.69563162  0.25603613  1
  O  O116  1  0.18170920  0.48306248  0.25487532  1
  O  O117  1  0.29753464  0.47966101  0.75597850  1
  O  O118  1  0.18170920  0.69864772  0.75487532  1
  O  O119  1  0.51528411  0.81965349  0.75603613  1
