# generated using pymatgen
data_PH4N3
_symmetry_space_group_name_H-M   'P 1'
_cell_length_a   6.06232977
_cell_length_b   10.67463313
_cell_length_c   13.63145835
_cell_angle_alpha   82.26104507
_cell_angle_beta   90.00000000
_cell_angle_gamma   90.00000000
_symmetry_Int_Tables_number   1
_chemical_formula_structural   PH4N3
_chemical_formula_sum   'P12 H48 N36'
_cell_volume   874.09996517
_cell_formula_units_Z   12
loop_
 _symmetry_equiv_pos_site_id
 _symmetry_equiv_pos_as_xyz
  1  'x, y, z'
loop_
 _atom_site_type_symbol
 _atom_site_label
 _atom_site_symmetry_multiplicity
 _atom_site_fract_x
 _atom_site_fract_y
 _atom_site_fract_z
 _atom_site_occupancy
  P  P0  1  0.49817462  0.85214448  0.83771687  1
  P  P1  1  0.99817462  0.14785552  0.66228313  1
  P  P2  1  0.50182538  0.14785552  0.16228313  1
  P  P3  1  0.00182538  0.85214448  0.33771687  1
  P  P4  1  0.67686273  0.60952136  0.84088766  1
  P  P5  1  0.17686273  0.39047864  0.65911234  1
  P  P6  1  0.32313727  0.39047864  0.15911234  1
  P  P7  1  0.82313727  0.60952136  0.34088766  1
  P  P8  1  0.60844655  0.75991755  0.65757335  1
  P  P9  1  0.10844655  0.24008245  0.84242665  1
  P  P10  1  0.39155345  0.24008245  0.34242665  1
  P  P11  1  0.89155345  0.75991755  0.15757335  1
  H  H12  1  0.56863058  0.55486154  0.15782405  1
  H  H13  1  0.06863058  0.44513846  0.34217595  1
  H  H14  1  0.43136942  0.44513846  0.84217595  1
  H  H15  1  0.93136942  0.55486154  0.65782405  1
  H  H16  1  0.56487604  0.43843849  0.95130886  1
  H  H17  1  0.06487604  0.56156151  0.54869114  1
  H  H18  1  0.43512396  0.56156151  0.04869114  1
  H  H19  1  0.93512396  0.43843849  0.45130886  1
  H  H20  1  0.53165728  0.62443753  0.44623817  1
  H  H21  1  0.03165728  0.37556247  0.05376183  1
  H  H22  1  0.46834272  0.37556247  0.55376183  1
  H  H23  1  0.96834272  0.62443753  0.94623817  1
  H  H24  1  0.53140280  0.46559444  0.64464204  1
  H  H25  1  0.03140280  0.53440556  0.85535796  1
  H  H26  1  0.46859720  0.53440556  0.35535796  1
  H  H27  1  0.96859720  0.46559444  0.14464204  1
  H  H28  1  0.57015098  0.86934678  0.11462096  1
  H  H29  1  0.07015098  0.13065322  0.38537904  1
  H  H30  1  0.42984902  0.13065322  0.88537904  1
  H  H31  1  0.92984902  0.86934678  0.61462096  1
  H  H32  1  0.63747429  0.76657516  0.03248129  1
  H  H33  1  0.13747429  0.23342484  0.46751871  1
  H  H34  1  0.36252571  0.23342484  0.96751871  1
  H  H35  1  0.80161971  0.33052638  0.89611406  1
  H  H36  1  0.67467059  0.03786792  0.65587619  1
  H  H37  1  0.17467059  0.96213208  0.84412381  1
  H  H38  1  0.32532941  0.96213208  0.34412381  1
  H  H39  1  0.82532941  0.03786792  0.15587619  1
  H  H40  1  0.63857309  0.19589647  0.64199571  1
  H  H41  1  0.13857309  0.80410353  0.85800429  1
  H  H42  1  0.36142691  0.80410353  0.35800429  1
  H  H43  1  0.86142691  0.19589647  0.14199571  1
  H  H44  1  0.66698549  0.95778569  0.95093487  1
  H  H45  1  0.16698549  0.04221431  0.54906513  1
  H  H46  1  0.33301451  0.04221431  0.04906513  1
  H  H47  1  0.83301451  0.95778569  0.45093487  1
  H  H48  1  0.76305206  0.00596699  0.83732288  1
  H  H49  1  0.26305206  0.99403301  0.66267712  1
  H  H50  1  0.23694794  0.99403301  0.16267712  1
  H  H51  1  0.73694794  0.00596699  0.33732288  1
  H  H52  1  0.62559056  0.20165680  0.47590439  1
  H  H53  1  0.12559056  0.79834320  0.02409561  1
  H  H54  1  0.37440944  0.79834320  0.52409561  1
  H  H55  1  0.87440944  0.20165680  0.97590439  1
  H  H56  1  0.69838029  0.33052638  0.39611406  1
  H  H57  1  0.19838029  0.66947362  0.10388594  1
  H  H58  1  0.30161971  0.66947362  0.60388594  1
  H  H59  1  0.86252571  0.76657516  0.53248129  1
  N  N60  1  0.65687637  0.62587432  0.72311106  1
  N  N61  1  0.15687637  0.37412568  0.77688894  1
  N  N62  1  0.34312363  0.37412568  0.27688894  1
  N  N63  1  0.84312363  0.62587432  0.22311106  1
  N  N64  1  0.55990749  0.71584192  0.89524662  1
  N  N65  1  0.05990749  0.28415808  0.60475338  1
  N  N66  1  0.44009251  0.28415808  0.10475338  1
  N  N67  1  0.94009251  0.71584192  0.39524662  1
  N  N68  1  0.54036922  0.87060969  0.72062108  1
  N  N69  1  0.04036922  0.12939031  0.77937892  1
  N  N70  1  0.45963078  0.12939031  0.27937892  1
  N  N71  1  0.95963078  0.87060969  0.22062108  1
  N  N72  1  0.57311289  0.46691545  0.87719720  1
  N  N73  1  0.07311289  0.53308455  0.62280280  1
  N  N74  1  0.42688711  0.53308455  0.12280280  1
  N  N75  1  0.92688711  0.46691545  0.37719720  1
  N  N76  1  0.56200719  0.60583044  0.37611595  1
  N  N77  1  0.06200719  0.39416956  0.12388405  1
  N  N78  1  0.43799281  0.39416956  0.62388405  1
  N  N79  1  0.93799281  0.60583044  0.87611595  1
  N  N80  1  0.69033270  0.81869539  0.08545775  1
  N  N81  1  0.19033270  0.18130461  0.41454225  1
  N  N82  1  0.30966730  0.18130461  0.91454225  1
  N  N83  1  0.80966730  0.81869539  0.58545775  1
  N  N84  1  0.92821303  0.27413770  0.92528856  1
  N  N85  1  0.24056097  0.87594203  0.87134845  1
  N  N86  1  0.25943903  0.87594203  0.37134845  1
  N  N87  1  0.75943903  0.12405797  0.12865155  1
  N  N88  1  0.62836199  0.97276977  0.87748671  1
  N  N89  1  0.12836199  0.02723023  0.62251329  1
  N  N90  1  0.37163801  0.02723023  0.12251329  1
  N  N91  1  0.87163801  0.97276977  0.37748671  1
  N  N92  1  0.57178697  0.27413770  0.42528856  1
  N  N93  1  0.07178697  0.72586230  0.07471144  1
  N  N94  1  0.42821303  0.72586230  0.57471144  1
  N  N95  1  0.74056097  0.12405797  0.62865155  1
