# generated using pymatgen
data_RbCdCl3
_symmetry_space_group_name_H-M   'P 1'
_cell_length_a   4.05372776
_cell_length_b   9.04405641
_cell_length_c   15.05258048
_cell_angle_alpha   90.00000000
_cell_angle_beta   90.00000000
_cell_angle_gamma   90.00000000
_symmetry_Int_Tables_number   1
_chemical_formula_structural   RbCdCl3
_chemical_formula_sum   'Rb4 Cd4 Cl12'
_cell_volume   551.85985104
_cell_formula_units_Z   4
loop_
 _symmetry_equiv_pos_site_id
 _symmetry_equiv_pos_as_xyz
  1  'x, y, z'
loop_
 _atom_site_type_symbol
 _atom_site_label
 _atom_site_symmetry_multiplicity
 _atom_site_fract_x
 _atom_site_fract_y
 _atom_site_fract_z
 _atom_site_occupancy
  Rb  Rb0  1  0.75000000  0.06936008  0.67402026  1
  Rb  Rb1  1  0.25000000  0.93063992  0.32597974  1
  Rb  Rb2  1  0.75000000  0.56936008  0.82597974  1
  Rb  Rb3  1  0.25000000  0.43063992  0.17402026  1
  Cd  Cd4  1  0.75000000  0.33474201  0.44459413  1
  Cd  Cd5  1  0.25000000  0.66525799  0.55540587  1
  Cd  Cd6  1  0.75000000  0.83474201  0.05540587  1
  Cd  Cd7  1  0.25000000  0.16525799  0.94459413  1
  Cl  Cl8  1  0.75000000  0.47492797  0.59985257  1
  Cl  Cl9  1  0.75000000  0.82898931  0.49521476  1
  Cl  Cl10  1  0.25000000  0.67101069  0.99521476  1
  Cl  Cl11  1  0.75000000  0.32898931  0.00478524  1
  Cl  Cl12  1  0.25000000  0.28193546  0.79232024  1
  Cl  Cl13  1  0.75000000  0.71806454  0.20767976  1
  Cl  Cl14  1  0.25000000  0.78193546  0.70767976  1
  Cl  Cl15  1  0.25000000  0.52507203  0.40014743  1
  Cl  Cl16  1  0.75000000  0.97492797  0.90014743  1
  Cl  Cl17  1  0.25000000  0.02507203  0.09985257  1
  Cl  Cl18  1  0.75000000  0.21806454  0.29232024  1
  Cl  Cl19  1  0.25000000  0.17101069  0.50478524  1
