# generated using pymatgen
data_Sr8MgMn6O20
_symmetry_space_group_name_H-M   'P 1'
_cell_length_a   5.55907868
_cell_length_b   6.80723852
_cell_length_c   13.74757547
_cell_angle_alpha   90.59029207
_cell_angle_beta   90.81857993
_cell_angle_gamma   114.52876013
_symmetry_Int_Tables_number   1
_chemical_formula_structural   Sr8MgMn6O20
_chemical_formula_sum   'Sr8 Mg1 Mn6 O20'
_cell_volume   473.16205272
_cell_formula_units_Z   1
loop_
 _symmetry_equiv_pos_site_id
 _symmetry_equiv_pos_as_xyz
  1  'x, y, z'
loop_
 _atom_site_type_symbol
 _atom_site_label
 _atom_site_symmetry_multiplicity
 _atom_site_fract_x
 _atom_site_fract_y
 _atom_site_fract_z
 _atom_site_occupancy
  Sr  Sr0  1  0.20930700  0.45551600  0.14843900  1
  Sr  Sr1  1  0.76318300  0.56309200  0.81861000  1
  Sr  Sr2  1  0.73171100  0.47128900  0.39343900  1
  Sr  Sr3  1  0.26326400  0.52847300  0.61366900  1
  Sr  Sr4  1  0.97845000  0.95612400  0.62980600  1
  Sr  Sr5  1  0.03356200  0.05694900  0.36726100  1
  Sr  Sr6  1  0.51857400  0.02478700  0.15792500  1
  Sr  Sr7  1  0.47373100  0.97825400  0.85782200  1
  Mg  Mg8  1  0.71049000  0.44555300  0.02420600  1
  Mn  Mn9  1  0.62472700  0.25450000  0.64486600  1
  Mn  Mn10  1  0.37129800  0.73475200  0.35126100  1
  Mn  Mn11  1  0.85856700  0.73700600  0.16474800  1
  Mn  Mn12  1  0.13871500  0.28886100  0.84226600  1
  Mn  Mn13  1  0.50431500  0.99909600  0.49645200  1
  Mn  Mn14  1  0.97474700  0.99569300  0.00706000  1
  O  O15  1  0.35946900  0.24132400  0.72942300  1
  O  O16  1  0.15018900  0.75830200  0.25003700  1
  O  O17  1  0.66027400  0.77090500  0.26870900  1
  O  O18  1  0.83868700  0.22802100  0.74992200  1
  O  O19  1  0.16114200  0.77544600  0.45595400  1
  O  O20  1  0.38461600  0.21820800  0.52994200  1
  O  O21  1  0.40779100  0.30041400  0.93750800  1
  O  O22  1  0.05910600  0.73945600  0.04469400  1
  O  O23  1  0.84767800  0.21573700  0.53423400  1
  O  O24  1  0.61707700  0.77590600  0.46332200  1
  O  O25  1  0.60493100  0.72697900  0.06866000  1
  O  O26  1  0.84706600  0.21785900  0.99237500  1
  O  O27  1  0.78427600  0.55988600  0.64402500  1
  O  O28  1  0.22536400  0.43908000  0.34242700  1
  O  O29  1  0.03486700  0.05498900  0.14923000  1
  O  O30  1  0.96663800  0.95452500  0.86698000  1
  O  O31  1  0.46270200  0.93059700  0.63165600  1
  O  O32  1  0.70229200  0.42562600  0.16791600  1
  O  O33  1  0.27541500  0.58914500  0.81584400  1
  O  O34  1  0.53911500  0.06912800  0.36014800  1
