# generated using pymatgen
data_Na14Mg2Si9Ge6(SO16)3
_symmetry_space_group_name_H-M   'P 1'
_cell_length_a   17.62785187
_cell_length_b   8.89471935
_cell_length_c   21.76809918
_cell_angle_alpha   90.53715928
_cell_angle_beta   89.63839012
_cell_angle_gamma   120.19127581
_symmetry_Int_Tables_number   1
_chemical_formula_structural   Na14Mg2Si9Ge6(SO16)3
_chemical_formula_sum   'Na42 Mg6 Si27 Ge18 S9 O144'
_cell_volume   2950.00433494
_cell_formula_units_Z   3
loop_
 _symmetry_equiv_pos_site_id
 _symmetry_equiv_pos_as_xyz
  1  'x, y, z'
loop_
 _atom_site_type_symbol
 _atom_site_label
 _atom_site_symmetry_multiplicity
 _atom_site_fract_x
 _atom_site_fract_y
 _atom_site_fract_z
 _atom_site_occupancy
  Na  Na0  1  0.31217445  0.00521089  0.24623764  1
  Na  Na1  1  0.81483246  0.01317060  0.24861509  1
  Na  Na2  1  0.18896004  0.36989125  0.25341946  1
  Na  Na3  1  0.69063429  0.36731104  0.25013458  1
  Na  Na4  1  0.99238109  0.61906604  0.25389044  1
  Na  Na5  1  0.49549934  0.62849214  0.24867713  1
  Na  Na6  1  0.31486464  0.61768304  0.74341953  1
  Na  Na7  1  0.81311992  0.62168259  0.74264467  1
  Na  Na8  1  0.99452475  0.35703363  0.74418692  1
  Na  Na9  1  0.49407277  0.37063624  0.74964287  1
  Na  Na10  1  0.19100115  0.01723598  0.74586301  1
  Na  Na11  1  0.69055557  0.00926670  0.75016714  1
  Na  Na12  1  0.15443496  0.33836928  0.58420772  1
  Na  Na13  1  0.65610260  0.34657837  0.57925844  1
  Na  Na14  1  0.01331987  0.69513766  0.58086558  1
  Na  Na15  1  0.51463885  0.69393604  0.57546226  1
  Na  Na16  1  0.33086091  0.96800566  0.58472086  1
  Na  Na17  1  0.83109874  0.95801919  0.57510042  1
  Na  Na18  1  0.15548469  0.96551143  0.08477824  1
  Na  Na19  1  0.65554131  0.97147193  0.08750897  1
  Na  Na20  1  0.33261613  0.70107151  0.08455542  1
  Na  Na21  1  0.83048723  0.69350642  0.08770280  1
  Na  Na22  1  0.01400943  0.33157790  0.07984719  1
  Na  Na23  1  0.51516944  0.33235521  0.08548408  1
  Na  Na24  1  0.98459853  0.67014069  0.91810452  1
  Na  Na25  1  0.34980913  0.03340472  0.91439556  1
  Na  Na26  1  0.16479907  0.29943226  0.91722176  1
  Na  Na27  1  0.48646446  0.30205750  0.41813598  1
  Na  Na28  1  0.66868397  0.03086307  0.41587983  1
  Na  Na29  1  0.84903733  0.67034812  0.41977758  1
  Na  Na30  1  0.00170298  0.00208961  0.49580997  1
  Na  Na31  1  0.49467316  0.98871449  0.49572822  1
  Na  Na32  1  0.99276049  0.99987192  0.99682349  1
  Na  Na33  1  0.50797563  0.00857059  0.99914761  1
  Na  Na34  1  0.33810117  0.34158416  0.82890164  1
  Na  Na35  1  0.82612267  0.31957047  0.83285313  1
  Na  Na36  1  0.32684318  0.33357062  0.33339312  1
  Na  Na37  1  0.83674190  0.33104699  0.33079947  1
  Na  Na38  1  0.17110786  0.67536776  0.16807344  1
  Na  Na39  1  0.66876242  0.67336407  0.16764131  1
  Na  Na40  1  0.16771978  0.66309231  0.66306051  1
  Na  Na41  1  0.67252620  0.66794312  0.66516226  1
  Mg  Mg42  1  0.32797986  0.33358994  0.68861721  1
  Mg  Mg43  1  0.83544591  0.33388305  0.68449363  1
  Mg  Mg44  1  0.33453109  0.33475602  0.18629331  1
  Mg  Mg45  1  0.82707943  0.32168375  0.18960941  1
  Mg  Mg46  1  0.16512326  0.67318706  0.01498759  1
  Mg  Mg47  1  0.67167596  0.66522910  0.51161143  1
  Si  Si48  1  0.14012581  0.00236331  0.25053820  1
  Si  Si49  1  0.63868441  0.99052673  0.25274934  1
  Si  Si50  1  0.35624488  0.71711997  0.25125317  1
  Si  Si51  1  0.85021816  0.70666176  0.25350692  1
  Si  Si52  1  0.00379142  0.29416528  0.25493665  1
  Si  Si53  1  0.13865235  0.28520135  0.75361389  1
  Si  Si54  1  0.64393205  0.28582365  0.74772406  1
  Si  Si55  1  0.50382829  0.71690329  0.75595502  1
  Si  Si56  1  0.35170164  0.99303386  0.75371701  1
  Si  Si57  1  0.85624037  0.99547644  0.75141975  1
  Si  Si58  1  0.98010743  0.34112260  0.58147294  1
  Si  Si59  1  0.18938812  0.04755689  0.58473287  1
  Si  Si60  1  0.33430814  0.62676583  0.58297119  1
  Si  Si61  1  0.83233179  0.62463915  0.58591514  1
  Si  Si62  1  0.47924752  0.61863615  0.08076093  1
  Si  Si63  1  0.33272330  0.03243549  0.08716165  1
  Si  Si64  1  0.83437834  0.04158977  0.08225674  1
  Si  Si65  1  0.68954304  0.33111037  0.08456351  1
  Si  Si66  1  0.80835119  0.65983658  0.91558351  1
  Si  Si67  1  0.01777978  0.37505081  0.91937967  1
  Si  Si68  1  0.52771164  0.37756482  0.91442933  1
  Si  Si69  1  0.16631802  0.96382306  0.91751868  1
  Si  Si70  1  0.30863522  0.95642705  0.41615905  1
  Si  Si71  1  0.82150902  0.97522614  0.41870762  1
  Si  Si72  1  0.66501558  0.37143913  0.41627245  1
  Si  Si73  1  0.02889136  0.67926164  0.41457687  1
  Si  Si74  1  0.51797961  0.66002284  0.41958327  1
  Ge  Ge75  1  0.99616605  0.99082214  0.35163092  1
  Ge  Ge76  1  0.49730523  0.97929697  0.35918789  1
  Ge  Ge77  1  0.99613490  0.01300335  0.85863471  1
  Ge  Ge78  1  0.50503573  0.01877139  0.84713030  1
  Ge  Ge79  1  0.99624145  0.01622627  0.64022069  1
  Ge  Ge80  1  0.49374023  0.97709594  0.65636673  1
  Ge  Ge81  1  0.99030489  0.00637501  0.15938885  1
  Ge  Ge82  1  0.49748542  0.98027919  0.14292756  1
  Ge  Ge83  1  0.34845169  0.32121099  0.98050152  1
  Ge  Ge84  1  0.82806116  0.31900060  0.97789786  1
  Ge  Ge85  1  0.32730180  0.33613659  0.47734606  1
  Ge  Ge86  1  0.84947058  0.35752752  0.47309772  1
  Ge  Ge87  1  0.66904768  0.65183753  0.02081878  1
  Ge  Ge88  1  0.16904053  0.68348192  0.51968571  1
  Ge  Ge89  1  0.16612910  0.68507230  0.30921559  1
  Ge  Ge90  1  0.67346217  0.68643553  0.32158564  1
  Ge  Ge91  1  0.16468831  0.66669851  0.81603712  1
  Ge  Ge92  1  0.66632760  0.64920445  0.80916079  1
  S  S93  1  0.50112613  0.28772262  0.25019629  1
  S  S94  1  0.00224372  0.71376029  0.75175911  1
  S  S95  1  0.47926103  0.33104277  0.58480623  1
  S  S96  1  0.68377073  0.03982557  0.58426261  1
  S  S97  1  0.97879960  0.62579342  0.08397037  1
  S  S98  1  0.18708828  0.33049694  0.08194838  1
  S  S99  1  0.31579340  0.66632777  0.91654931  1
  S  S100  1  0.66519265  0.95574674  0.91644668  1
  S  S101  1  0.16704840  0.37874190  0.41667622  1
  O  O102  1  0.09438025  0.03675961  0.30937797  1
  O  O103  1  0.59303925  0.02846775  0.31133337  1
  O  O104  1  0.42079898  0.81259203  0.30850196  1
  O  O105  1  0.91512040  0.79703217  0.31155747  1
  O  O106  1  0.48756568  0.18316419  0.30532617  1
  O  O107  1  0.98354446  0.15499219  0.30855995  1
  O  O108  1  0.09412873  0.15802320  0.81271274  1
  O  O109  1  0.60161622  0.16347240  0.80835630  1
  O  O110  1  0.48295065  0.81553700  0.81217130  1
  O  O111  1  0.98991881  0.79313741  0.80788214  1
  O  O112  1  0.41335137  0.02733083  0.81449202  1
  O  O113  1  0.92027831  0.02998533  0.80944256  1
  O  O114  1  0.39317673  0.94634683  0.69228161  1
  O  O115  1  0.89712889  0.95237671  0.68877693  1
  O  O116  1  0.07689321  0.20277815  0.69103296  1
  O  O117  1  0.57530706  0.19115281  0.68840365  1
  O  O118  1  0.01696560  0.81798253  0.69607085  1
  O  O119  1  0.52630434  0.83720182  0.69235391  1
  O  O120  1  0.39553070  0.83879705  0.18794747  1
  O  O121  1  0.89010167  0.83473049  0.19084497  1
  O  O122  1  0.02691961  0.21915899  0.18940952  1
  O  O123  1  0.51413578  0.20635012  0.19323131  1
  O  O124  1  0.07520286  0.96166752  0.18746413  1
  O  O125  1  0.57758954  0.95193371  0.18914214  1
  O  O126  1  0.43710977  0.35168748  0.64022299  1
  O  O127  1  0.94887803  0.38542775  0.64490467  1
  O  O128  1  0.24845021  0.11320755  0.64511252  1
  O  O129  1  0.73694114  0.11915925  0.63991113  1
  O  O130  1  0.31421462  0.51683684  0.64459154  1
  O  O131  1  0.81541222  0.50802395  0.64558940  1
  O  O132  1  0.44553877  0.50582102  0.14181428  1
  O  O133  1  0.93725680  0.52218674  0.13840803  1
  O  O134  1  0.31139200  0.11866721  0.14399601  1
  O  O135  1  0.81402247  0.11327261  0.14339837  1
  O  O136  1  0.24012506  0.35836233  0.13705164  1
  O  O137  1  0.74932821  0.38461499  0.14387554  1
  O  O138  1  0.22870953  0.30621456  0.02509339  1
  O  O139  1  0.73303039  0.28477029  0.02406166  1
  O  O140  1  0.40784440  0.52356857  0.02254417  1
  O  O141  1  0.92502991  0.54662896  0.02667669  1
  O  O142  1  0.35525499  0.15597872  0.02287075  1
  O  O143  1  0.85810265  0.17597162  0.02305577  1
  O  O144  1  0.23356695  0.18287211  0.52584602  1
  O  O145  1  0.72287046  0.14368233  0.52865714  1
  O  O146  1  0.35769670  0.53725999  0.52418838  1
  O  O147  1  0.85257481  0.53565389  0.52334026  1
  O  O148  1  0.42469802  0.30042248  0.52826340  1
  O  O149  1  0.91085931  0.29497490  0.52469090  1
  O  O150  1  0.27396991  0.69176194  0.97141547  1
  O  O151  1  0.76737853  0.70078761  0.97673305  1
  O  O152  1  0.07886849  0.45180885  0.97848971  1
  O  O153  1  0.58350323  0.46419261  0.97644408  1
  O  O154  1  0.14585537  0.84896843  0.97752200  1
  O  O155  1  0.65462142  0.85570398  0.97261674  1
  O  O156  1  0.26838378  0.83516726  0.47712456  1
  O  O157  1  0.78186368  0.85167221  0.47691140  1
  O  O158  1  0.15733775  0.46109699  0.47353421  1
  O  O159  1  0.63908485  0.43685109  0.47717159  1
  O  O160  1  0.08431281  0.69948260  0.47671717  1
  O  O161  1  0.57656380  0.70133481  0.47969825  1
  O  O162  1  0.06903494  0.63527663  0.35347105  1
  O  O163  1  0.56436582  0.62179579  0.35795359  1
  O  O164  1  0.24904790  0.87067287  0.35427599  1
  O  O165  1  0.75455486  0.88906264  0.35754649  1
  O  O166  1  0.18095343  0.48257543  0.36077085  1
  O  O167  1  0.68633368  0.50605687  0.35659807  1
  O  O168  1  0.06426805  0.50955256  0.85867488  1
  O  O169  1  0.56758104  0.49603517  0.85321541  1
  O  O170  1  0.18996912  0.87557167  0.85703261  1
  O  O171  1  0.67850375  0.87720575  0.86017800  1
  O  O172  1  0.25946763  0.63786134  0.85995659  1
  O  O173  1  0.74843119  0.62712599  0.85413637  1
  O  O174  1  0.01521517  0.84856372  0.41018480  1
  O  O175  1  0.51038917  0.83633671  0.41232558  1
  O  O176  1  0.40959204  0.99000886  0.40815951  1
  O  O177  1  0.91707062  0.98619022  0.40946574  1
  O  O178  1  0.08951894  0.20391692  0.41366534  1
  O  O179  1  0.57727846  0.17499581  0.40659338  1
  O  O180  1  0.01014883  0.18372596  0.91232482  1
  O  O181  1  0.51040155  0.17314294  0.91005164  1
  O  O182  1  0.07863928  0.98166364  0.90785260  1
  O  O183  1  0.58613275  0.97514661  0.91287780  1
  O  O184  1  0.40272681  0.82698754  0.91242498  1
  O  O185  1  0.90965318  0.82914751  0.90804097  1
  O  O186  1  0.48855823  0.17227128  0.58708870  1
  O  O187  1  0.98758244  0.16127793  0.58397220  1
  O  O188  1  0.09042522  0.02680138  0.59141561  1
  O  O189  1  0.59461561  0.02780707  0.58864210  1
  O  O190  1  0.42644951  0.82928864  0.58944350  1
  O  O191  1  0.92560922  0.82076261  0.58872378  1
  O  O192  1  0.48641243  0.81215342  0.08361336  1
  O  O193  1  0.98905512  0.80348347  0.08597808  1
  O  O194  1  0.42589575  0.02711131  0.08939786  1
  O  O195  1  0.92631972  0.02149023  0.08936269  1
  O  O196  1  0.09915927  0.16775875  0.08454449  1
  O  O197  1  0.59066271  0.15436598  0.09052075  1
  O  O198  1  0.34480235  0.16429881  0.74981548  1
  O  O199  1  0.84491095  0.16378706  0.74680586  1
  O  O200  1  0.23566288  0.31264092  0.75129690  1
  O  O201  1  0.74004494  0.31003682  0.74632447  1
  O  O202  1  0.42001157  0.52697178  0.74911107  1
  O  O203  1  0.92530839  0.53680770  0.74875439  1
  O  O204  1  0.34514604  0.52616895  0.24602355  1
  O  O205  1  0.84372291  0.52224001  0.24769282  1
  O  O206  1  0.42272546  0.30786247  0.24641346  1
  O  O207  1  0.92038502  0.31738324  0.24692190  1
  O  O208  1  0.23695709  0.16984991  0.24754077  1
  O  O209  1  0.73491783  0.15858515  0.25010318  1
  O  O210  1  0.32110431  0.50673162  0.91876038  1
  O  O211  1  0.82243791  0.49035196  0.92578007  1
  O  O212  1  0.42664861  0.34989725  0.91968886  1
  O  O213  1  0.92081166  0.36324288  0.92201777  1
  O  O214  1  0.25622880  0.16596269  0.92456373  1
  O  O215  1  0.74696588  0.13449934  0.91918566  1
  O  O216  1  0.32162980  0.15384529  0.42633154  1
  O  O217  1  0.82244726  0.16188482  0.42319995  1
  O  O218  1  0.24944672  0.36431124  0.41990649  1
  O  O219  1  0.75434688  0.35441008  0.42244976  1
  O  O220  1  0.42042536  0.47738091  0.42186500  1
  O  O221  1  0.92891542  0.50708174  0.41809277  1
  O  O222  1  0.17563669  0.48416981  0.07769692  1
  O  O223  1  0.67467454  0.50099850  0.07614359  1
  O  O224  1  0.06695391  0.64280644  0.07959012  1
  O  O225  1  0.57962562  0.65331711  0.06894544  1
  O  O226  1  0.25023014  0.83726150  0.07806300  1
  O  O227  1  0.74750630  0.84457506  0.07248192  1
  O  O228  1  0.17505390  0.84879780  0.57605239  1
  O  O229  1  0.67087286  0.86190734  0.58057835  1
  O  O230  1  0.24854077  0.65239282  0.57319687  1
  O  O231  1  0.74846622  0.65269364  0.58020217  1
  O  O232  1  0.08088519  0.50719824  0.57053838  1
  O  O233  1  0.56660112  0.48919826  0.58094313  1
  O  O234  1  0.14662127  0.82179004  0.25139561  1
  O  O235  1  0.64488692  0.80935121  0.25831783  1
  O  O236  1  0.25822048  0.70029983  0.25734316  1
  O  O237  1  0.75324374  0.69564561  0.25803761  1
  O  O238  1  0.09588175  0.48537699  0.25841608  1
  O  O239  1  0.58156334  0.46278259  0.25257542  1
  O  O240  1  0.14671014  0.48216463  0.76080870  1
  O  O241  1  0.64760492  0.47577064  0.75064679  1
  O  O242  1  0.08505809  0.70034910  0.75514399  1
  O  O243  1  0.59496074  0.70711923  0.76025334  1
  O  O244  1  0.25424056  0.80939215  0.75854794  1
  O  O245  1  0.75832413  0.81685000  0.75791544  1
