# generated using pymatgen
data_Na5TiAl3(PO4)6
_symmetry_space_group_name_H-M   'P 1'
_cell_length_a   8.57837482
_cell_length_b   8.57186515
_cell_length_c   21.71965109
_cell_angle_alpha   89.98323686
_cell_angle_beta   89.99623281
_cell_angle_gamma   120.00652582
_symmetry_Int_Tables_number   1
_chemical_formula_structural   Na5TiAl3(PO4)6
_chemical_formula_sum   'Na15 Ti3 Al9 P18 O72'
_cell_volume   1383.04155943
_cell_formula_units_Z   3
loop_
 _symmetry_equiv_pos_site_id
 _symmetry_equiv_pos_as_xyz
  1  'x, y, z'
loop_
 _atom_site_type_symbol
 _atom_site_label
 _atom_site_symmetry_multiplicity
 _atom_site_fract_x
 _atom_site_fract_y
 _atom_site_fract_z
 _atom_site_occupancy
  Na  Na0  1  0.63422032  0.99961236  0.25193955  1
  Na  Na1  1  0.36478779  0.36517368  0.25224099  1
  Na  Na2  1  0.00068716  0.63562770  0.25196264  1
  Na  Na3  1  0.63653654  0.63390165  0.74933644  1
  Na  Na4  1  0.00017336  0.36368042  0.74940588  1
  Na  Na5  1  0.03127727  0.69902160  0.58221676  1
  Na  Na6  1  0.66547197  0.96805807  0.58212448  1
  Na  Na7  1  0.66579573  0.69809685  0.08243143  1
  Na  Na8  1  0.03128757  0.33219662  0.08255266  1
  Na  Na9  1  0.00576043  0.00635062  0.49720571  1
  Na  Na10  1  0.00538182  0.99924982  0.99686465  1
  Na  Na11  1  0.66082469  0.32716366  0.83358792  1
  Na  Na12  1  0.66646961  0.33332605  0.33708043  1
  Na  Na13  1  0.33271615  0.67224016  0.16593731  1
  Na  Na14  1  0.33325541  0.66605055  0.66499927  1
  Ti  Ti15  1  0.66557164  0.33298610  0.97701097  1
  Ti  Ti16  1  0.66387509  0.33195089  0.47666434  1
  Ti  Ti17  1  0.33406072  0.67317103  0.81518202  1
  Al  Al18  1  0.00088978  0.00023293  0.35659264  1
  Al  Al19  1  0.00199201  0.00120687  0.85349880  1
  Al  Al20  1  0.00604771  0.00568748  0.64754834  1
  Al  Al21  1  0.00485922  0.99910124  0.14859468  1
  Al  Al22  1  0.66056090  0.32797762  0.68440039  1
  Al  Al23  1  0.66588087  0.33225165  0.18411317  1
  Al  Al24  1  0.33276055  0.67167003  0.01700233  1
  Al  Al25  1  0.33254943  0.66104322  0.51638683  1
  Al  Al26  1  0.33315065  0.66647707  0.31952953  1
  P  P27  1  0.28717514  0.99985256  0.25042447  1
  P  P28  1  0.71264853  0.71264769  0.25008677  1
  P  P29  1  -0.00000529  0.28746164  0.25011978  1
  P  P30  1  0.28810415  0.27951904  0.74994164  1
  P  P31  1  0.99952335  0.71624017  0.74939865  1
  P  P32  1  0.71533361  0.00464267  0.74942394  1
  P  P33  1  0.96039564  0.33370981  0.58444154  1
  P  P34  1  0.37499286  0.04553807  0.58432026  1
  P  P35  1  0.66206690  0.62102768  0.58457507  1
  P  P36  1  0.96108176  0.62751863  0.08433071  1
  P  P37  1  0.66210401  0.04055184  0.08448426  1
  P  P38  1  0.37408417  0.32894878  0.08443956  1
  P  P39  1  0.62685849  0.67403682  0.91787486  1
  P  P40  1  0.04693781  0.37332905  0.91808260  1
  P  P41  1  0.32580598  0.95349227  0.91843179  1
  P  P42  1  0.62318191  0.95025198  0.41628108  1
  P  P43  1  0.32705447  0.37725629  0.41597240  1
  P  P44  1  0.04926903  0.67212674  0.41642674  1
  O  O45  1  0.20339229  0.03859014  0.30623924  1
  O  O46  1  0.83579020  0.79787049  0.30550475  1
  O  O47  1  0.96203687  0.16406295  0.30551035  1
  O  O48  1  0.20149881  0.16825289  0.80749370  1
  O  O49  1  0.96289787  0.79855532  0.80610545  1
  O  O50  1  0.83392889  0.03715087  0.80612043  1
  O  O51  1  0.79394645  0.96310293  0.69164191  1
  O  O52  1  0.16549926  0.20261756  0.69340350  1
  O  O53  1  0.03198864  0.82855667  0.69090474  1
  O  O54  1  0.79295216  0.82985714  0.19140272  1
  O  O55  1  0.03647939  0.20705280  0.19140790  1
  O  O56  1  0.16735527  0.96219365  0.19315199  1
  O  O57  1  0.87507881  0.37055511  0.64197925  1
  O  O58  1  0.50003214  0.12899198  0.64013444  1
  O  O59  1  0.63429069  0.50650296  0.64266253  1
  O  O60  1  0.87488860  0.50456168  0.14157156  1
  O  O61  1  0.63386984  0.12754206  0.14229039  1
  O  O62  1  0.49690606  0.36981761  0.14154761  1
  O  O63  1  0.46368420  0.29988691  0.02756784  1
  O  O64  1  0.83529587  0.53936535  0.02825290  1
  O  O65  1  0.70366576  0.16608292  0.02822889  1
  O  O66  1  0.46287633  0.16324321  0.52695327  1
  O  O67  1  0.70357460  0.53764319  0.52832060  1
  O  O68  1  0.83518251  0.29588220  0.52836157  1
  O  O69  1  0.53747951  0.69837393  0.97536209  1
  O  O70  1  0.16132214  0.46246354  0.97544120  1
  O  O71  1  0.30006011  0.83641715  0.97408540  1
  O  O72  1  0.53704444  0.83843506  0.47478222  1
  O  O73  1  0.30052140  0.46518798  0.47295142  1
  O  O74  1  0.16196614  0.69901926  0.47477386  1
  O  O75  1  0.12861884  0.63447463  0.35799635  1
  O  O76  1  0.50602674  0.87107777  0.35792430  1
  O  O77  1  0.36580871  0.49336457  0.35710763  1
  O  O78  1  0.12829878  0.49393739  0.85952448  1
  O  O79  1  0.36562626  0.86957034  0.86037107  1
  O  O80  1  0.50631450  0.63467184  0.85938543  1
  O  O81  1  0.02570719  0.83700124  0.40842037  1
  O  O82  1  0.81160913  0.97417931  0.40832316  1
  O  O83  1  0.16289915  0.18842254  0.40815696  1
  O  O84  1  0.02480518  0.18697171  0.90899830  1
  O  O85  1  0.16171255  0.97461574  0.90850705  1
  O  O86  1  0.81308955  0.83839389  0.90870252  1
  O  O87  1  0.97260688  0.16107630  0.59208937  1
  O  O88  1  0.18509226  0.02056476  0.59162176  1
  O  O89  1  0.83403866  0.81128163  0.59143058  1
  O  O90  1  0.97280051  0.81189232  0.09186739  1
  O  O91  1  0.83420475  0.02303931  0.09136678  1
  O  O92  1  0.18440753  0.16405762  0.09162817  1
  O  O93  1  0.69481003  0.17259461  0.74190718  1
  O  O94  1  0.48130072  0.31205437  0.74224603  1
  O  O95  1  0.83249952  0.52252459  0.74278227  1
  O  O96  1  0.69020626  0.52110135  0.24170047  1
  O  O97  1  0.83124183  0.31022214  0.24193102  1
  O  O98  1  0.47855107  0.16894506  0.24179106  1
  O  O99  1  0.64124623  0.50028329  0.92387557  1
  O  O100  1  0.85904593  0.35912004  0.92417923  1
  O  O101  1  0.50007276  0.14075198  0.92394674  1
  O  O102  1  0.64122034  0.14029921  0.42315796  1
  O  O103  1  0.49937736  0.35955591  0.42328359  1
  O  O104  1  0.85954640  0.50024693  0.42356608  1
  O  O105  1  0.35627470  0.50031689  0.07651565  1
  O  O106  1  0.14503501  0.63977931  0.07591455  1
  O  O107  1  0.49798649  0.85098178  0.07609949  1
  O  O108  1  0.35597192  0.85562241  0.57630837  1
  O  O109  1  0.49796508  0.64705122  0.57623142  1
  O  O110  1  0.14527223  0.50542427  0.57600370  1
  O  O111  1  0.31080735  0.83164602  0.25698881  1
  O  O112  1  0.52127482  0.68950524  0.25661101  1
  O  O113  1  0.16826903  0.47902903  0.25666047  1
  O  O114  1  0.31017499  0.47409355  0.75633341  1
  O  O115  1  0.16502210  0.68741541  0.75602725  1
  O  O116  1  0.52616653  0.83198125  0.75622898  1
