# generated using pymatgen
data_Sr4MgFe4O11
_symmetry_space_group_name_H-M   'P 1'
_cell_length_a   5.61623976
_cell_length_b   6.97594704
_cell_length_c   7.04238894
_cell_angle_alpha   103.92883542
_cell_angle_beta   89.81549191
_cell_angle_gamma   92.01384460
_symmetry_Int_Tables_number   1
_chemical_formula_structural   Sr4MgFe4O11
_chemical_formula_sum   'Sr4 Mg1 Fe4 O11'
_cell_volume   267.62853927
_cell_formula_units_Z   1
loop_
 _symmetry_equiv_pos_site_id
 _symmetry_equiv_pos_as_xyz
  1  'x, y, z'
loop_
 _atom_site_type_symbol
 _atom_site_label
 _atom_site_symmetry_multiplicity
 _atom_site_fract_x
 _atom_site_fract_y
 _atom_site_fract_z
 _atom_site_occupancy
  Sr  Sr0  1  0.99749610  0.74563271  0.24878999  1
  Sr  Sr1  1  0.03746787  0.25679326  0.75198966  1
  Sr  Sr2  1  0.51007533  0.03964706  0.02289431  1
  Sr  Sr3  1  0.52856688  0.38999978  0.40212779  1
  Mg  Mg4  1  0.47057189  0.69870989  0.73869926  1
  Fe  Fe5  1  0.50103275  0.94860866  0.46265373  1
  Fe  Fe6  1  0.50385513  0.52074646  0.01750343  1
  Fe  Fe7  1  0.01424967  0.26128151  0.26531570  1
  Fe  Fe8  1  0.98412912  0.73596011  0.73634638  1
  O  O9  1  0.24881916  0.90022289  0.65453155  1
  O  O10  1  0.25818164  0.08788464  0.33973621  1
  O  O11  1  0.72843220  0.70910630  0.94349830  1
  O  O12  1  0.78359578  0.33762457  0.08886141  1
  O  O13  1  0.76086690  0.08283744  0.34085687  1
  O  O14  1  0.72899272  0.89165731  0.66078631  1
  O  O15  1  0.26364235  0.33578539  0.08924782  1
  O  O16  1  0.21435391  0.71557822  0.93838437  1
  O  O17  1  0.99605253  0.49094424  0.50887167  1
  O  O18  1  0.49728645  0.69204563  0.28977415  1
  O  O19  1  0.47232263  0.39967193  0.73986707  1
