# generated using pymatgen
data_MgVMoO5
_symmetry_space_group_name_H-M   'P 1'
_cell_length_a   3.97958096
_cell_length_b   5.39932296
_cell_length_c   5.37609224
_cell_angle_alpha   94.43262318
_cell_angle_beta   111.72716988
_cell_angle_gamma   68.37705240
_symmetry_Int_Tables_number   1
_chemical_formula_structural   MgVMoO5
_chemical_formula_sum   'Mg1 V1 Mo1 O5'
_cell_volume   99.52413175
_cell_formula_units_Z   1
loop_
 _symmetry_equiv_pos_site_id
 _symmetry_equiv_pos_as_xyz
  1  'x, y, z'
loop_
 _atom_site_type_symbol
 _atom_site_label
 _atom_site_symmetry_multiplicity
 _atom_site_fract_x
 _atom_site_fract_y
 _atom_site_fract_z
 _atom_site_occupancy
  Mg  Mg0  1  0.12057100  0.02439400  0.12188600  1
  V  V1  1  0.86579600  0.63082900  0.21887100  1
  Mo  Mo2  1  0.27474100  0.37623700  0.78227800  1
  O  O3  1  0.97601700  0.73556900  0.54385900  1
  O  O4  1  0.33196100  0.61705700  0.13741900  1
  O  O5  1  0.59027400  0.99140000  0.02837400  1
  O  O6  1  0.15724100  0.25620600  0.42748100  1
  O  O7  1  0.82625600  0.38080900  0.88983300  1
