# generated using pymatgen
data_Na4Mg(NiO3)2
_symmetry_space_group_name_H-M   'P 1'
_cell_length_a   5.38944865
_cell_length_b   5.38944865
_cell_length_c   6.74008465
_cell_angle_alpha   80.99939534
_cell_angle_beta   99.00060466
_cell_angle_gamma   57.56709779
_symmetry_Int_Tables_number   1
_chemical_formula_structural   Na4Mg(NiO3)2
_chemical_formula_sum   'Na4 Mg1 Ni2 O6'
_cell_volume   156.27187303
_cell_formula_units_Z   1
loop_
 _symmetry_equiv_pos_site_id
 _symmetry_equiv_pos_as_xyz
  1  'x, y, z'
loop_
 _atom_site_type_symbol
 _atom_site_label
 _atom_site_symmetry_multiplicity
 _atom_site_fract_x
 _atom_site_fract_y
 _atom_site_fract_z
 _atom_site_occupancy
  Na  Na0  1  0.03860814  0.35289913  0.52148741  1
  Na  Na1  1  0.64710087  0.96139186  0.52148741  1
  Na  Na2  1  0.54964779  0.45035221  0.72682097  1
  Na  Na3  1  0.08428230  0.91571770  0.88948966  1
  Mg  Mg4  1  0.13304275  0.86695725  0.28997067  1
  Ni  Ni5  1  0.75156313  0.62271268  0.04876334  1
  Ni  Ni6  1  0.37728732  0.24843687  0.04876334  1
  O  O7  1  0.11261048  0.88738952  0.56758378  1
  O  O8  1  0.17214103  0.49197427  0.22671980  1
  O  O9  1  0.50802573  0.82785897  0.22671980  1
  O  O10  1  0.97192168  0.44904073  0.85686359  1
  O  O11  1  0.55095927  0.02807832  0.85686359  1
  O  O12  1  0.74030951  0.25969049  0.11132364  1
