# generated using pymatgen
data_Na3Mg(CoO2)5
_symmetry_space_group_name_H-M   'P 1'
_cell_length_a   5.64709182
_cell_length_b   7.99199110
_cell_length_c   5.12109219
_cell_angle_alpha   71.65055865
_cell_angle_beta   71.81028404
_cell_angle_gamma   84.16921473
_symmetry_Int_Tables_number   1
_chemical_formula_structural   Na3Mg(CoO2)5
_chemical_formula_sum   'Na3 Mg1 Co5 O10'
_cell_volume   208.40719462
_cell_formula_units_Z   1
loop_
 _symmetry_equiv_pos_site_id
 _symmetry_equiv_pos_as_xyz
  1  'x, y, z'
loop_
 _atom_site_type_symbol
 _atom_site_label
 _atom_site_symmetry_multiplicity
 _atom_site_fract_x
 _atom_site_fract_y
 _atom_site_fract_z
 _atom_site_occupancy
  Na  Na0  1  0.48665100  0.18661500  0.57636100  1
  Na  Na1  1  0.49367800  0.38007100  0.97475100  1
  Na  Na2  1  0.49323000  0.81919500  0.76699000  1
  Mg  Mg3  1  0.50752100  0.60963100  0.36307100  1
  Co  Co4  1  0.96805900  0.00530000  0.00725900  1
  Co  Co5  1  0.00985000  0.20113500  0.39386200  1
  Co  Co6  1  0.01810100  0.59733600  0.19413600  1
  Co  Co7  1  0.99632700  0.40943200  0.79754200  1
  Co  Co8  1  0.01503200  0.80076200  0.58749000  1
  O  O9  1  0.17930200  0.20847000  0.00535500  1
  O  O10  1  0.18153600  0.99822900  0.63043600  1
  O  O11  1  0.80732200  0.99740500  0.39585600  1
  O  O12  1  0.22276000  0.41475200  0.38731300  1
  O  O13  1  0.78471900  0.41546800  0.20351000  1
  O  O14  1  0.22658600  0.78098400  0.22376800  1
  O  O15  1  0.80744600  0.21353100  0.77624800  1
  O  O16  1  0.22503200  0.59458600  0.77422400  1
  O  O17  1  0.78612200  0.60225800  0.58846100  1
  O  O18  1  0.80430200  0.78091000  0.00786400  1
