# generated using pymatgen
data_Na3Ca3SnPS5O24
_symmetry_space_group_name_H-M   'P 1'
_cell_length_a   9.16982986
_cell_length_b   9.15942623
_cell_length_c   23.57946709
_cell_angle_alpha   90.01520938
_cell_angle_beta   89.99959067
_cell_angle_gamma   120.29470361
_symmetry_Int_Tables_number   1
_chemical_formula_structural   Na3Ca3SnPS5O24
_chemical_formula_sum   'Na9 Ca9 Sn3 P3 S15 O72'
_cell_volume   1710.00262016
_cell_formula_units_Z   3
loop_
 _symmetry_equiv_pos_site_id
 _symmetry_equiv_pos_as_xyz
  1  'x, y, z'
loop_
 _atom_site_type_symbol
 _atom_site_label
 _atom_site_symmetry_multiplicity
 _atom_site_fract_x
 _atom_site_fract_y
 _atom_site_fract_z
 _atom_site_occupancy
  Na  Na0  1  0.35843405  0.35655206  0.25441889  1
  Na  Na1  1  0.02828621  0.69781618  0.58470082  1
  Na  Na2  1  0.29669420  0.96158314  0.07281554  1
  Na  Na3  1  0.98396987  0.99996333  0.50298923  1
  Na  Na4  1  0.00095175  0.01762726  0.98564302  1
  Na  Na5  1  0.66702859  0.32402569  0.83172482  1
  Na  Na6  1  0.68580207  0.33317915  0.33567877  1
  Na  Na7  1  0.33337827  0.66748130  0.17129244  1
  Na  Na8  1  0.37106076  0.66234624  0.66949213  1
  Ca  Ca9  1  0.99284716  0.99082546  0.35317133  1
  Ca  Ca10  1  0.00521271  0.00277493  0.85145058  1
  Ca  Ca11  1  0.99170699  0.00401694  0.65349968  1
  Ca  Ca12  1  0.98613149  0.99448691  0.14720918  1
  Ca  Ca13  1  0.65966650  0.33190737  0.68858080  1
  Ca  Ca14  1  0.68120707  0.33778434  0.18588315  1
  Ca  Ca15  1  0.33088337  0.65830587  0.01386745  1
  Ca  Ca16  1  0.34473261  0.66359740  0.51650453  1
  Ca  Ca17  1  0.33517688  0.67927050  0.32298089  1
  Sn  Sn18  1  0.67236774  0.33231645  0.97617008  1
  Sn  Sn19  1  0.66170075  0.33645032  0.48626058  1
  Sn  Sn20  1  0.32482517  0.66815025  0.82378196  1
  P  P21  1  0.67506237  0.63091246  0.58272791  1
  P  P22  1  0.02767122  0.37123082  0.91730419  1
  P  P23  1  0.34176560  0.97021224  0.92158826  1
  S  S24  1  0.29815168  0.99906519  0.24678953  1
  S  S25  1  0.68838879  0.69284548  0.25082227  1
  S  S26  1  0.00828216  0.30408923  0.25166714  1
  S  S27  1  0.30239484  0.32140634  0.75492601  1
  S  S28  1  0.01556099  0.69800495  0.75177216  1
  S  S29  1  0.67948473  0.98329517  0.75583585  1
  S  S30  1  0.95236062  0.32931306  0.58006194  1
  S  S31  1  0.36723087  0.03898979  0.58067090  1
  S  S32  1  0.95924191  0.62922426  0.07814680  1
  S  S33  1  0.66744240  0.04459717  0.07912505  1
  S  S34  1  0.38103798  0.32951409  0.08171550  1
  S  S35  1  0.62584052  0.65377852  0.91713121  1
  S  S36  1  0.64048831  0.99100954  0.42083207  1
  S  S37  1  0.34513947  0.35849064  0.41669477  1
  S  S38  1  0.01602688  0.65380185  0.42286899  1
  O  O39  1  0.20301432  0.01115080  0.29547074  1
  O  O40  1  0.78498580  0.77963126  0.30194700  1
  O  O41  1  0.99578435  0.20433738  0.30242214  1
  O  O42  1  0.21543682  0.21872861  0.80444211  1
  O  O43  1  0.99976652  0.79022157  0.79966014  1
  O  O44  1  0.78400653  0.00013643  0.80482027  1
  O  O45  1  0.74877223  0.95888703  0.70209901  1
  O  O46  1  0.20673115  0.24889180  0.70168628  1
  O  O47  1  0.03638700  0.78786911  0.69700172  1
  O  O48  1  0.77202523  0.78576569  0.19835674  1
  O  O49  1  0.02109112  0.22019916  0.19934357  1
  O  O50  1  0.20887158  0.98567209  0.19243115  1
  O  O51  1  0.86499129  0.34187310  0.62993047  1
  O  O52  1  0.47126644  0.12194393  0.63002180  1
  O  O53  1  0.66544863  0.52560942  0.63368506  1
  O  O54  1  0.87413953  0.53460825  0.12958961  1
  O  O55  1  0.65420580  0.13056567  0.12971289  1
  O  O56  1  0.47049251  0.34131896  0.13492277  1
  O  O57  1  0.47569674  0.31227587  0.03115130  1
  O  O58  1  0.85809582  0.54065631  0.02556581  1
  O  O59  1  0.68531159  0.14743723  0.02633492  1
  O  O60  1  0.45084511  0.13694748  0.52607426  1
  O  O61  1  0.70075506  0.54482354  0.52612799  1
  O  O62  1  0.84716426  0.30272243  0.52630362  1
  O  O63  1  0.55084906  0.67201607  0.96906644  1
  O  O64  1  0.12676555  0.45278067  0.97060763  1
  O  O65  1  0.33179557  0.88372152  0.97777072  1
  O  O66  1  0.55409371  0.88945078  0.47080076  1
  O  O67  1  0.33123120  0.44946052  0.46556320  1
  O  O68  1  0.11035564  0.66802986  0.47504440  1
  O  O69  1  0.09910736  0.63544362  0.37189917  1
  O  O70  1  0.54396900  0.91743970  0.36813349  1
  O  O71  1  0.36823289  0.45194532  0.36285325  1
  O  O72  1  0.11531028  0.48301877  0.86255599  1
  O  O73  1  0.37202569  0.87803264  0.86948326  1
  O  O74  1  0.51723310  0.62772199  0.86566731  1
  O  O75  1  0.98917509  0.79944402  0.41863682  1
  O  O76  1  0.81346559  0.01837234  0.41774710  1
  O  O77  1  0.19855650  0.18537634  0.41504201  1
  O  O78  1  0.99345679  0.19197625  0.91059442  1
  O  O79  1  0.18883185  0.99085566  0.91323839  1
  O  O80  1  0.79701552  0.79838977  0.91018689  1
  O  O81  1  0.97978223  0.18422431  0.58184469  1
  O  O82  1  0.19944104  0.02649652  0.58271988  1
  O  O83  1  0.84174892  0.80517149  0.58271448  1
  O  O84  1  0.97901800  0.80088908  0.07783110  1
  O  O85  1  0.81719365  0.02454532  0.07984870  1
  O  O86  1  0.21379778  0.16938503  0.08048442  1
  O  O87  1  0.65203569  0.12895287  0.75235697  1
  O  O88  1  0.47539233  0.34814168  0.75204799  1
  O  O89  1  0.87014103  0.52322042  0.75054151  1
  O  O90  1  0.66496373  0.51836400  0.25040928  1
  O  O91  1  0.86047834  0.32849042  0.25042473  1
  O  O92  1  0.46617040  0.15992932  0.24731593  1
  O  O93  1  0.63508423  0.49213984  0.91956464  1
  O  O94  1  0.85145842  0.36838152  0.91840227  1
  O  O95  1  0.50851563  0.15334159  0.92054546  1
  O  O96  1  0.65355470  0.16468059  0.42480854  1
  O  O97  1  0.50539144  0.34600773  0.42191041  1
  O  O98  1  0.84292091  0.49162318  0.42401909  1
  O  O99  1  0.36140911  0.47858968  0.07689989  1
  O  O100  1  0.13092045  0.65028138  0.07696147  1
  O  O101  1  0.50926324  0.87759336  0.07690736  1
  O  O102  1  0.33973813  0.86484194  0.57594921  1
  O  O103  1  0.51839149  0.64823388  0.57765347  1
  O  O104  1  0.11507658  0.49133077  0.57479157  1
  O  O105  1  0.32204114  0.85088357  0.25127330  1
  O  O106  1  0.51459043  0.67059606  0.25233186  1
  O  O107  1  0.16858912  0.47280609  0.25389833  1
  O  O108  1  0.31690219  0.49574992  0.76008015  1
  O  O109  1  0.17812178  0.68999641  0.75785925  1
  O  O110  1  0.50611049  0.82108716  0.76148099  1
