# generated using pymatgen
data_Na6Mg2Ti6Si5S7O48
_symmetry_space_group_name_H-M   'P 1'
_cell_length_a   17.48828600
_cell_length_b   8.79749838
_cell_length_c   22.46766131
_cell_angle_alpha   89.97885151
_cell_angle_beta   90.04313213
_cell_angle_gamma   120.21152359
_symmetry_Int_Tables_number   1
_chemical_formula_structural   Na6Mg2Ti6Si5S7O48
_chemical_formula_sum   'Na18 Mg6 Ti18 Si15 S21 O144'
_cell_volume   2987.20611767
_cell_formula_units_Z   3
loop_
 _symmetry_equiv_pos_site_id
 _symmetry_equiv_pos_as_xyz
  1  'x, y, z'
loop_
 _atom_site_type_symbol
 _atom_site_label
 _atom_site_symmetry_multiplicity
 _atom_site_fract_x
 _atom_site_fract_y
 _atom_site_fract_z
 _atom_site_occupancy
  Na  Na0  1  0.65715439  0.34804104  0.58379720  1
  Na  Na1  1  0.51923492  0.68923309  0.58578815  1
  Na  Na2  1  0.82412497  0.96183365  0.58386101  1
  Na  Na3  1  0.15625996  0.96402860  0.08669198  1
  Na  Na4  1  0.32412059  0.68843460  0.08641776  1
  Na  Na5  1  0.01941394  0.35070353  0.08845524  1
  Na  Na6  1  0.00709882  0.99929019  0.49546737  1
  Na  Na7  1  0.49443836  0.00118673  0.49840818  1
  Na  Na8  1  0.99606461  0.98937251  0.00080121  1
  Na  Na9  1  0.50529010  0.01096078  0.99890711  1
  Na  Na10  1  0.32986245  0.32633459  0.82491709  1
  Na  Na11  1  0.82996694  0.32886034  0.83356477  1
  Na  Na12  1  0.32739532  0.32878181  0.33392128  1
  Na  Na13  1  0.83455273  0.33815749  0.32687161  1
  Na  Na14  1  0.16433080  0.66431090  0.16341298  1
  Na  Na15  1  0.66929952  0.66928992  0.16781167  1
  Na  Na16  1  0.16969992  0.66824752  0.66372006  1
  Na  Na17  1  0.66493159  0.66471144  0.65866860  1
  Mg  Mg18  1  0.33355421  0.32855655  0.69141166  1
  Mg  Mg19  1  0.83000162  0.33079152  0.68396065  1
  Mg  Mg20  1  0.32971783  0.32847517  0.18539712  1
  Mg  Mg21  1  0.83474426  0.34007979  0.19275414  1
  Mg  Mg22  1  0.16622818  0.66925425  0.02058319  1
  Mg  Mg23  1  0.66636995  0.66452994  0.52010455  1
  Ti  Ti24  1  0.00151735  0.98963728  0.35700206  1
  Ti  Ti25  1  0.50174498  0.99936600  0.35372932  1
  Ti  Ti26  1  0.00258899  0.00332714  0.85343947  1
  Ti  Ti27  1  0.50133803  0.99892778  0.85144833  1
  Ti  Ti28  1  0.00695958  0.00815706  0.64424413  1
  Ti  Ti29  1  0.49136788  0.00263026  0.64143424  1
  Ti  Ti30  1  0.99393542  0.98241385  0.14607886  1
  Ti  Ti31  1  0.50377836  0.00618343  0.14861341  1
  Ti  Ti32  1  0.32830684  0.31430153  0.98647320  1
  Ti  Ti33  1  0.83206720  0.35039097  0.97647250  1
  Ti  Ti34  1  0.33178582  0.31338470  0.47506699  1
  Ti  Ti35  1  0.83219580  0.35380578  0.48356554  1
  Ti  Ti36  1  0.67183905  0.67996911  0.01443949  1
  Ti  Ti37  1  0.16737397  0.66693775  0.51056378  1
  Ti  Ti38  1  0.16368072  0.65945749  0.31981238  1
  Ti  Ti39  1  0.67347321  0.68328913  0.30799320  1
  Ti  Ti40  1  0.17214793  0.66370666  0.80692916  1
  Ti  Ti41  1  0.67243332  0.67933905  0.81642685  1
  Si  Si42  1  0.64584569  0.00276905  0.25069967  1
  Si  Si43  1  0.85779835  0.70985333  0.25271689  1
  Si  Si44  1  0.14571331  0.28830607  0.75033604  1
  Si  Si45  1  0.35821436  0.00695029  0.75155221  1
  Si  Si46  1  0.47323875  0.33502104  0.58554823  1
  Si  Si47  1  0.68827617  0.04306198  0.58535387  1
  Si  Si48  1  0.83714455  0.63074482  0.58787469  1
  Si  Si49  1  0.97359386  0.61548270  0.08580719  1
  Si  Si50  1  0.33794744  0.04407144  0.08717496  1
  Si  Si51  1  0.18608013  0.33396268  0.08725781  1
  Si  Si52  1  0.81455512  0.67373942  0.91488802  1
  Si  Si53  1  0.66643744  0.96208685  0.91692157  1
  Si  Si54  1  0.31292159  0.95202345  0.41399857  1
  Si  Si55  1  0.16697384  0.37461302  0.41657977  1
  Si  Si56  1  0.01722860  0.65674283  0.41686140  1
  S  S57  1  0.14520237  0.99793365  0.25066118  1
  S  S58  1  0.35527433  0.71117057  0.24959871  1
  S  S59  1  0.00390131  0.28949970  0.24989091  1
  S  S60  1  0.49935970  0.28849124  0.25201914  1
  S  S61  1  0.64469623  0.29231215  0.75073426  1
  S  S62  1  -0.00049404  0.71164025  0.75163217  1
  S  S63  1  0.50358585  0.71418158  0.74990494  1
  S  S64  1  0.85562729  -0.00029052  0.75014447  1
  S  S65  1  0.98193207  0.34063235  0.58482074  1
  S  S66  1  0.18960713  0.04028126  0.58412833  1
  S  S67  1  0.32783271  0.61620571  0.58420362  1
  S  S68  1  0.48109441  0.62200939  0.08374799  1
  S  S69  1  0.82896943  0.04138148  0.08345890  1
  S  S70  1  0.68808961  0.33657469  0.08321112  1
  S  S71  1  0.31279313  0.66462107  0.91600149  1
  S  S72  1  0.02165506  0.37663317  0.91590801  1
  S  S73  1  0.52203949  0.37985851  0.91593076  1
  S  S74  1  0.16813252  0.95859295  0.91515818  1
  S  S75  1  0.81156954  0.95928347  0.41641872  1
  S  S76  1  0.66637189  0.37734504  0.41488057  1
  S  S77  1  0.52139369  0.66628528  0.41573976  1
  O  O78  1  0.10043623  0.01569953  0.30409302  1
  O  O79  1  0.58926632  0.01705829  0.30715062  1
  O  O80  1  0.40973226  0.80793753  0.30233104  1
  O  O81  1  0.91837465  0.82506185  0.30893132  1
  O  O82  1  0.48720334  0.17864886  0.30523695  1
  O  O83  1  0.99873348  0.18402172  0.30233344  1
  O  O84  1  0.08922519  0.16170485  0.80737833  1
  O  O85  1  0.59914606  0.18166554  0.80474725  1
  O  O86  1  0.49861794  0.81288830  0.80343996  1
  O  O87  1  0.98746647  0.79701521  0.80574698  1
  O  O88  1  0.41843558  0.01233966  0.80918904  1
  O  O89  1  0.90882177  0.01017374  0.80346759  1
  O  O90  1  0.40410673  0.96748300  0.69406332  1
  O  O91  1  0.89413637  0.97365067  0.69483183  1
  O  O92  1  0.08056126  0.18950868  0.69284350  1
  O  O93  1  0.59296751  0.20828380  0.69603739  1
  O  O94  1  0.01184004  0.82024516  0.69793907  1
  O  O95  1  0.51798746  0.81820219  0.69501838  1
  O  O96  1  0.39770771  0.81807361  0.19352537  1
  O  O97  1  0.90297368  0.83822186  0.19373641  1
  O  O98  1  0.01544172  0.21071542  0.19319965  1
  O  O99  1  0.51119292  0.20201511  0.19749542  1
  O  O100  1  0.09283830  0.98049169  0.19510268  1
  O  O101  1  0.58065352  0.97192271  0.19234632  1
  O  O102  1  0.43403427  0.38388203  0.64087352  1
  O  O103  1  0.94389560  0.36223080  0.63989026  1
  O  O104  1  0.24038631  0.12215084  0.63742243  1
  O  O105  1  0.75235033  0.11951910  0.64155556  1
  O  O106  1  0.31567199  0.51818092  0.63884016  1
  O  O107  1  0.81709347  0.50759932  0.64379563  1
  O  O108  1  0.44405891  0.52344992  0.13811090  1
  O  O109  1  0.93171525  0.48125950  0.13896609  1
  O  O110  1  0.31853539  0.13071413  0.14211424  1
  O  O111  1  0.81287338  0.10850227  0.13745613  1
  O  O112  1  0.25375322  0.38658406  0.14090736  1
  O  O113  1  0.74012528  0.36423375  0.13604439  1
  O  O114  1  0.23628980  0.29254475  0.02779071  1
  O  O115  1  0.72583651  0.30518302  0.02768021  1
  O  O116  1  0.42373901  0.53949255  0.02976439  1
  O  O117  1  0.91065037  0.52143028  0.02456815  1
  O  O118  1  0.35474090  0.17215535  0.02554730  1
  O  O119  1  0.84160231  0.14794638  0.02928737  1
  O  O120  1  0.22566645  0.14487121  0.52871549  1
  O  O121  1  0.73677953  0.18124370  0.52703986  1
  O  O122  1  0.34280755  0.53776967  0.53053467  1
  O  O123  1  0.85604732  0.54272696  0.52655507  1
  O  O124  1  0.41049858  0.30261655  0.52514970  1
  O  O125  1  0.92500567  0.30671487  0.53159076  1
  O  O126  1  0.27478814  0.69244364  0.97001712  1
  O  O127  1  0.76363703  0.69560328  0.97301252  1
  O  O128  1  0.07249932  0.44919096  0.97052648  1
  O  O129  1  0.57638751  0.46213506  0.97024615  1
  O  O130  1  0.15558963  0.86114291  0.97040632  1
  O  O131  1  0.65043667  0.83010633  0.97407937  1
  O  O132  1  0.26797969  0.83442388  0.47380832  1
  O  O133  1  0.77290496  0.85212991  0.47016737  1
  O  O134  1  0.15048511  0.46959553  0.47433432  1
  O  O135  1  0.65359742  0.44960897  0.47046783  1
  O  O136  1  0.08202608  0.69471736  0.47473562  1
  O  O137  1  0.57215977  0.69556635  0.47081456  1
  O  O138  1  0.06705740  0.63271572  0.35864666  1
  O  O139  1  0.56433065  0.64198222  0.36328661  1
  O  O140  1  0.24991165  0.86146097  0.35614234  1
  O  O141  1  0.75435911  0.86485830  0.36306414  1
  O  O142  1  0.18435973  0.50235643  0.35852957  1
  O  O143  1  0.67510650  0.48526838  0.36247657  1
  O  O144  1  0.06461007  0.48771420  0.86316940  1
  O  O145  1  0.56544851  0.48718076  0.86220100  1
  O  O146  1  0.17741029  0.86966112  0.86252612  1
  O  O147  1  0.67888509  0.85702904  0.85965655  1
  O  O148  1  0.25556804  0.64117585  0.86293813  1
  O  O149  1  0.75043927  0.64146322  0.85711524  1
  O  O150  1  0.00975509  0.83438182  0.40968673  1
  O  O151  1  0.51030922  0.82488408  0.40848322  1
  O  O152  1  0.41147023  0.97750672  0.40669000  1
  O  O153  1  0.90084964  0.98027397  0.40876835  1
  O  O154  1  0.07928496  0.18304681  0.40776224  1
  O  O155  1  0.58608772  0.19635073  0.40823872  1
  O  O156  1  0.01031017  0.19591411  0.90807959  1
  O  O157  1  0.51374561  0.20327160  0.91094442  1
  O  O158  1  0.08819665  0.98016451  0.90855752  1
  O  O159  1  0.57865613  0.97906559  0.90891256  1
  O  O160  1  0.40246102  0.82468287  0.90807094  1
  O  O161  1  0.91145331  0.84667669  0.90829604  1
  O  O162  1  0.48065774  0.15195488  0.59092303  1
  O  O163  1  0.98742747  0.17209980  0.58879701  1
  O  O164  1  0.09783259  0.02078915  0.58912745  1
  O  O165  1  0.58939471  0.02868002  0.59239305  1
  O  O166  1  0.41393764  0.79580390  0.58822053  1
  O  O167  1  0.92593190  0.83165615  0.59403839  1
  O  O168  1  0.48814695  0.80058560  0.08674211  1
  O  O169  1  0.98193450  0.81315214  0.09183943  1
  O  O170  1  0.42655538  0.01999046  0.09197271  1
  O  O171  1  0.91204381  0.02903603  0.08686256  1
  O  O172  1  0.08876312  0.15121741  0.09114210  1
  O  O173  1  0.59761202  0.17353344  0.08824181  1
  O  O174  1  0.34791214  0.17367232  0.75030504  1
  O  O175  1  0.84877787  0.15889418  0.74904359  1
  O  O176  1  0.24187362  0.31935561  0.74716619  1
  O  O177  1  0.73270422  0.30990006  0.75014254  1
  O  O178  1  0.42258466  0.54523631  0.74976909  1
  O  O179  1  0.92237613  0.53429110  0.74764347  1
  O  O180  1  0.35205594  0.54173501  0.24730272  1
  O  O181  1  0.84656924  0.52171798  0.25001590  1
  O  O182  1  0.42215207  0.31005733  0.24666135  1
  O  O183  1  0.92369237  0.30136794  0.24721577  1
  O  O184  1  0.23281771  0.15792007  0.24839945  1
  O  O185  1  0.74177592  0.16438126  0.24640060  1
  O  O186  1  0.32305533  0.50777554  0.91969886  1
  O  O187  1  0.82025977  0.49481968  0.92141907  1
  O  O188  1  0.43418811  0.36460825  0.92118034  1
  O  O189  1  0.93111527  0.35254989  0.92033501  1
  O  O190  1  0.24889591  0.13916807  0.91874598  1
  O  O191  1  0.75527804  0.14938684  0.92584545  1
  O  O192  1  0.32184255  0.14638969  0.42166480  1
  O  O193  1  0.81809626  0.13142818  0.41952385  1
  O  O194  1  0.25445995  0.35805529  0.42745295  1
  O  O195  1  0.74623903  0.35823137  0.41836218  1
  O  O196  1  0.43090552  0.50982271  0.42020709  1
  O  O197  1  0.92143813  0.48012833  0.42449401  1
  O  O198  1  0.17093702  0.49477437  0.07296106  1
  O  O199  1  0.67388017  0.48936426  0.07415328  1
  O  O200  1  0.07342773  0.65988067  0.07369201  1
  O  O201  1  0.57046261  0.64388641  0.07497258  1
  O  O202  1  0.25541508  0.85286460  0.07363598  1
  O  O203  1  0.75126697  0.85509968  0.07542945  1
  O  O204  1  0.17653759  0.86100285  0.57802264  1
  O  O205  1  0.66988168  0.84773697  0.57301247  1
  O  O206  1  0.25263706  0.64903986  0.57778584  1
  O  O207  1  0.75511098  0.65922837  0.57443676  1
  O  O208  1  0.07199964  0.49327427  0.57793810  1
  O  O209  1  0.57374229  0.48777885  0.57391399  1
  O  O210  1  0.15089992  0.83562884  0.25338651  1
  O  O211  1  0.64497292  0.81349489  0.25963137  1
  O  O212  1  0.26752789  0.69590664  0.25256187  1
  O  O213  1  0.75928490  0.69874923  0.25981644  1
  O  O214  1  0.08520277  0.46953184  0.25341885  1
  O  O215  1  0.58215414  0.46097372  0.25683298  1
  O  O216  1  0.14559567  0.47692921  0.75991382  1
  O  O217  1  0.64916733  0.46519716  0.75703055  1
  O  O218  1  0.08232032  0.70339016  0.75805498  1
  O  O219  1  0.58317294  0.69382713  0.75766050  1
  O  O220  1  0.25997297  0.82156356  0.76040141  1
  O  O221  1  0.76554927  0.83693878  0.75560289  1
