# generated using pymatgen
data_Na3Ca2Sn2P3(SO8)3
_symmetry_space_group_name_H-M   'P 1'
_cell_length_a   9.01251514
_cell_length_b   8.98998214
_cell_length_c   23.48678141
_cell_angle_alpha   90.09420223
_cell_angle_beta   89.72297162
_cell_angle_gamma   120.06947794
_symmetry_Int_Tables_number   1
_chemical_formula_structural   Na3Ca2Sn2P3(SO8)3
_chemical_formula_sum   'Na9 Ca6 Sn6 P9 S9 O72'
_cell_volume   1646.83179694
_cell_formula_units_Z   3
loop_
 _symmetry_equiv_pos_site_id
 _symmetry_equiv_pos_as_xyz
  1  'x, y, z'
loop_
 _atom_site_type_symbol
 _atom_site_label
 _atom_site_symmetry_multiplicity
 _atom_site_fract_x
 _atom_site_fract_y
 _atom_site_fract_z
 _atom_site_occupancy
  Na  Na0  1  0.66100286  0.68480790  0.08471687  1
  Na  Na1  1  0.33209774  0.29621424  0.91584558  1
  Na  Na2  1  0.33178150  0.03557279  0.41578504  1
  Na  Na3  1  0.99589232  0.00157269  0.50295204  1
  Na  Na4  1  0.00759916  0.99666816  0.00276135  1
  Na  Na5  1  0.68049390  0.33402169  0.82965839  1
  Na  Na6  1  0.68005892  0.34538597  0.32913634  1
  Na  Na7  1  0.31198873  0.65592195  0.16600598  1
  Na  Na8  1  0.33447994  0.67764827  0.66580861  1
  Ca  Ca9  1  0.99650631  0.00185217  0.34459843  1
  Ca  Ca10  1  0.99340186  0.99131445  0.84408848  1
  Ca  Ca11  1  0.67450528  0.33785833  0.98481374  1
  Ca  Ca12  1  0.66769790  0.33497850  0.48477290  1
  Ca  Ca13  1  0.31825251  0.66379189  0.02377454  1
  Ca  Ca14  1  0.33310268  0.66939770  0.52456312  1
  Sn  Sn15  1  0.00717387  0.00126518  0.65639894  1
  Sn  Sn16  1  0.01088432  0.00403109  0.15660745  1
  Sn  Sn17  1  0.66010808  0.32723651  0.68504104  1
  Sn  Sn18  1  0.66588230  0.33532736  0.18519163  1
  Sn  Sn19  1  0.33334844  0.66236037  0.30943787  1
  Sn  Sn20  1  0.33388037  0.67096636  0.80925234  1
  P  P21  1  0.30624827  0.00127485  0.25164694  1
  P  P22  1  0.69926015  0.69946896  0.24827202  1
  P  P23  1  0.99676347  0.30012657  0.24866618  1
  P  P24  1  0.30294185  0.30317108  0.75139916  1
  P  P25  1  0.99667613  0.69383513  0.74830969  1
  P  P26  1  0.70200144  0.00105159  0.74832774  1
  P  P27  1  0.36127159  0.04001327  0.58625733  1
  P  P28  1  0.95859244  0.63675720  0.08942891  1
  P  P29  1  0.36525963  0.32280889  0.08563753  1
  S  S30  1  0.95795994  0.32134790  0.58829842  1
  S  S31  1  0.67841487  0.63739012  0.58845645  1
  S  S32  1  0.67805882  0.04059873  0.08792451  1
  S  S33  1  0.62027320  0.66643868  0.91573211  1
  S  S34  1  0.04373027  0.37746829  0.91268831  1
  S  S35  1  0.33537961  0.95968983  0.91360949  1
  S  S36  1  0.62102205  0.95467515  0.41435986  1
  S  S37  1  0.33488896  0.37720763  0.41444568  1
  S  S38  1  0.04442357  0.66479560  0.41362706  1
  O  O39  1  0.24219602  0.03447842  0.30708718  1
  O  O40  1  0.80405863  0.77376992  0.30063993  1
  O  O41  1  0.96515190  0.19976247  0.30244333  1
  O  O42  1  0.23801514  0.20633833  0.80676919  1
  O  O43  1  0.96119866  0.76002938  0.80210724  1
  O  O44  1  0.80203415  0.03351982  0.80194537  1
  O  O45  1  0.78656187  0.96843882  0.69482616  1
  O  O46  1  0.18298637  0.21571065  0.69935830  1
  O  O47  1  0.03139549  0.81162593  0.69521963  1
  O  O48  1  0.78031116  0.81168672  0.19310671  1
  O  O49  1  0.02988389  0.21632793  0.19513170  1
  O  O50  1  0.18627660  0.96792292  0.19961980  1
  O  O51  1  0.87107009  0.34745729  0.63905873  1
  O  O52  1  0.48273907  0.14067753  0.63714069  1
  O  O53  1  0.65894326  0.52804615  0.63947534  1
  O  O54  1  0.86622768  0.51805974  0.14126241  1
  O  O55  1  0.65261436  0.12446162  0.13887142  1
  O  O56  1  0.48902084  0.34697919  0.13586946  1
  O  O57  1  0.43040621  0.29372602  0.02858685  1
  O  O58  1  0.85100014  0.56756925  0.03534593  1
  O  O59  1  0.70251943  0.13818788  0.03553691  1
  O  O60  1  0.42931200  0.13421147  0.52950377  1
  O  O61  1  0.70537237  0.56540421  0.53620192  1
  O  O62  1  0.86139197  0.29753686  0.53600432  1
  O  O63  1  0.53962369  0.67899304  0.96859810  1
  O  O64  1  0.14536772  0.46022912  0.96363678  1
  O  O65  1  0.32180150  0.86160117  0.96441669  1
  O  O66  1  0.53699000  0.85674032  0.46573983  1
  O  O67  1  0.32105235  0.46197762  0.46531469  1
  O  O68  1  0.14652450  0.68325191  0.46437885  1
  O  O69  1  0.13050996  0.64676788  0.36028099  1
  O  O70  1  0.51162921  0.86831188  0.36183002  1
  O  O71  1  0.35148760  0.47856450  0.36077820  1
  O  O72  1  0.13097734  0.48307766  0.85978306  1
  O  O73  1  0.35104433  0.87367196  0.85998544  1
  O  O74  1  0.50858301  0.64543815  0.86416906  1
  O  O75  1  0.03627022  0.82610309  0.40969332  1
  O  O76  1  0.79211173  0.97543231  0.40991324  1
  O  O77  1  0.18200384  0.20198090  0.41135328  1
  O  O78  1  0.03545146  0.20811694  0.90866250  1
  O  O79  1  0.18203317  0.98071913  0.91067180  1
  O  O80  1  0.79150954  0.81772746  0.91080589  1
  O  O81  1  0.96747888  0.15948277  0.59553361  1
  O  O82  1  0.18196694  0.03068496  0.59514811  1
  O  O83  1  0.83633669  0.81205362  0.59513994  1
  O  O84  1  0.96371847  0.81520698  0.09742917  1
  O  O85  1  0.83469599  0.02273185  0.09443324  1
  O  O86  1  0.18365536  0.16183761  0.09559873  1
  O  O87  1  0.67626555  0.15879916  0.73870161  1
  O  O88  1  0.48513613  0.32783819  0.74035278  1
  O  O89  1  0.83968375  0.51053899  0.73734425  1
  O  O90  1  0.67169019  0.51478194  0.24027266  1
  O  O91  1  0.83903052  0.32404911  0.23868113  1
  O  O92  1  0.48783791  0.15871390  0.23996766  1
  O  O93  1  0.62769952  0.50389539  0.91531489  1
  O  O94  1  0.87244870  0.35814558  0.91460554  1
  O  O95  1  0.49036621  0.13422893  0.91410412  1
  O  O96  1  0.62881266  0.12509649  0.41567640  1
  O  O97  1  0.48996007  0.35785465  0.41491684  1
  O  O98  1  0.87255839  0.51254076  0.41559635  1
  O  O99  1  0.35933314  0.49127730  0.08572557  1
  O  O100  1  0.13848108  0.66408117  0.08769490  1
  O  O101  1  0.52820345  0.86506429  0.08504676  1
  O  O102  1  0.33920062  0.86039046  0.58771809  1
  O  O103  1  0.52510770  0.65387532  0.58673805  1
  O  O104  1  0.13081582  0.47094811  0.58643631  1
  O  O105  1  0.32390623  0.83616813  0.25456562  1
  O  O106  1  0.51595683  0.68073867  0.25268287  1
  O  O107  1  0.16212769  0.48425179  0.25248312  1
  O  O108  1  0.32252672  0.48698625  0.75423602  1
  O  O109  1  0.16191599  0.67633731  0.75274635  1
  O  O110  1  0.51745201  0.83642075  0.75235424  1
