# generated using pymatgen
data_MgMn5SbO12
_symmetry_space_group_name_H-M   'P 1'
_cell_length_a   5.40874169
_cell_length_b   5.18094093
_cell_length_c   9.98938150
_cell_angle_alpha   93.45645106
_cell_angle_beta   94.69037206
_cell_angle_gamma   121.33105311
_symmetry_Int_Tables_number   1
_chemical_formula_structural   MgMn5SbO12
_chemical_formula_sum   'Mg1 Mn5 Sb1 O12'
_cell_volume   236.56165558
_cell_formula_units_Z   1
loop_
 _symmetry_equiv_pos_site_id
 _symmetry_equiv_pos_as_xyz
  1  'x, y, z'
loop_
 _atom_site_type_symbol
 _atom_site_label
 _atom_site_symmetry_multiplicity
 _atom_site_fract_x
 _atom_site_fract_y
 _atom_site_fract_z
 _atom_site_occupancy
  Mg  Mg0  1  0.73062087  0.41735392  0.25269491  1
  Mn  Mn1  1  0.16083633  0.81092912  0.49940780  1
  Mn  Mn2  1  0.35710954  0.67926123  0.00694887  1
  Mn  Mn3  1  0.50052190  0.48356408  0.51070303  1
  Mn  Mn4  1  0.68294842  0.33648921  0.96995784  1
  Mn  Mn5  1  0.83030101  0.14984024  0.49953919  1
  Sb  Sb6  1  0.02197796  0.01257919  0.00819413  1
  O  O7  1  0.99447135  0.68370937  0.11323875  1
  O  O8  1  0.30289677  0.96650456  0.90404911  1
  O  O9  1  0.07547785  0.44866858  0.38645355  1
  O  O10  1  0.51360074  0.84260407  0.58996677  1
  O  O11  1  0.17758628  0.16807111  0.58975354  1
  O  O12  1  0.37657338  0.37344705  0.11923601  1
  O  O13  1  0.67308591  0.65997852  0.89336939  1
  O  O14  1  0.80098713  0.77053949  0.40221964  1
  O  O15  1  0.48539072  0.13745983  0.40124168  1
  O  O16  1  0.90077360  0.50826429  0.60226572  1
  O  O17  1  0.70854099  0.06142826  0.10008971  1
  O  O18  1  0.03129927  0.32680789  0.90067036  1
