# generated using pymatgen
data_MgFe2(NiO3)2
_symmetry_space_group_name_H-M   'P 1'
_cell_length_a   5.79502317
_cell_length_b   5.79502073
_cell_length_c   5.79502031
_cell_angle_alpha   52.59980350
_cell_angle_beta   52.59972029
_cell_angle_gamma   52.59975126
_symmetry_Int_Tables_number   1
_chemical_formula_structural   MgFe2(NiO3)2
_chemical_formula_sum   'Mg1 Fe2 Ni2 O6'
_cell_volume   113.71077635
_cell_formula_units_Z   1
loop_
 _symmetry_equiv_pos_site_id
 _symmetry_equiv_pos_as_xyz
  1  'x, y, z'
loop_
 _atom_site_type_symbol
 _atom_site_label
 _atom_site_symmetry_multiplicity
 _atom_site_fract_x
 _atom_site_fract_y
 _atom_site_fract_z
 _atom_site_occupancy
  Mg  Mg0  1  0.00000000  0.00000000  0.00000000  1
  Fe  Fe1  1  0.17574000  0.17574000  0.17574000  1
  Fe  Fe2  1  0.82426000  0.82426000  0.82426000  1
  Ni  Ni3  1  0.35947200  0.35947100  0.35947200  1
  Ni  Ni4  1  0.64052800  0.64052900  0.64052800  1
  O  O5  1  0.05424400  0.77849200  0.41531300  1
  O  O6  1  0.58468600  0.94575700  0.22150800  1
  O  O7  1  0.22150800  0.58468700  0.94575600  1
  O  O8  1  0.77849200  0.41531300  0.05424400  1
  O  O9  1  0.41531400  0.05424300  0.77849200  1
  O  O10  1  0.94575600  0.22150800  0.58468700  1
