# generated using pymatgen
data_Co(ClO4)2
_symmetry_space_group_name_H-M   'P 1'
_cell_length_a   7.66579265
_cell_length_b   8.32799388
_cell_length_c   9.61837577
_cell_angle_alpha   90.06690035
_cell_angle_beta   90.02670284
_cell_angle_gamma   111.19824519
_symmetry_Int_Tables_number   1
_chemical_formula_structural   Co(ClO4)2
_chemical_formula_sum   'Co4 Cl8 O32'
_cell_volume   572.49360911
_cell_formula_units_Z   4
loop_
 _symmetry_equiv_pos_site_id
 _symmetry_equiv_pos_as_xyz
  1  'x, y, z'
loop_
 _atom_site_type_symbol
 _atom_site_label
 _atom_site_symmetry_multiplicity
 _atom_site_fract_x
 _atom_site_fract_y
 _atom_site_fract_z
 _atom_site_occupancy
  Co  Co0  1  0.00003962  0.50017316  0.74990448  1
  Co  Co1  1  -0.00007681  -0.00025489  0.49992514  1
  Co  Co2  1  -0.00004212  0.49994328  0.24994899  1
  Co  Co3  1  0.00019913  0.00020611  -0.00024322  1
  Cl  Cl4  1  0.24232354  0.24745043  0.75018154  1
  Cl  Cl5  1  0.24209106  0.24719833  0.25031679  1
  Cl  Cl6  1  0.24240584  0.74721496  0.50019587  1
  Cl  Cl7  1  0.24209938  0.74737884  0.00032918  1
  Cl  Cl8  1  0.75764862  0.75282221  0.74980327  1
  Cl  Cl9  1  0.75787721  0.75258581  0.24972193  1
  Cl  Cl10  1  0.75760099  0.25263340  0.49980518  1
  Cl  Cl11  1  0.75793336  0.25275925  -0.00033856  1
  O  O12  1  0.43829936  0.31273804  0.75004367  1
  O  O13  1  0.43809424  0.31261164  0.25039108  1
  O  O14  1  0.43838261  0.81251917  0.50026456  1
  O  O15  1  0.43807590  0.81276182  0.00022395  1
  O  O16  1  0.56165897  0.68754435  0.74977022  1
  O  O17  1  0.56188233  0.68709214  0.25002368  1
  O  O18  1  0.56161502  0.18735942  0.49995559  1
  O  O19  1  0.56195426  0.18722943  -0.00038888  1
  O  O20  1  0.17050412  0.08585029  0.82785866  1
  O  O21  1  0.17018296  0.08551920  0.32781871  1
  O  O22  1  0.17036526  0.58561052  0.57777315  1
  O  O23  1  0.17027278  0.58573870  0.07791158  1
  O  O24  1  0.82990738  0.78578778  0.89196529  1
  O  O25  1  0.83040044  0.78554689  0.39184083  1
  O  O26  1  0.83006658  0.28571806  0.64189647  1
  O  O27  1  0.83011958  0.28568406  0.14183972  1
  O  O28  1  0.82992551  0.63035214  0.68533219  1
  O  O29  1  0.83013087  0.63015481  0.18520862  1
  O  O30  1  0.82974631  0.13004946  0.43539914  1
  O  O31  1  0.83037491  0.13045350  0.93515448  1
  O  O32  1  0.82973665  0.91447075  0.67228743  1
  O  O33  1  0.82967100  0.91413550  0.17205288  1
  O  O34  1  0.82953152  0.41420035  0.42215988  1
  O  O35  1  0.82987293  0.41443088  0.92218179  1
  O  O36  1  0.16965717  0.21429114  0.60815818  1
  O  O37  1  0.16988643  0.21430636  0.10815219  1
  O  O38  1  0.17018033  0.71420250  0.35805852  1
  O  O39  1  0.16961954  0.71444505  0.85824002  1
  O  O40  1  0.17022448  0.37004069  0.81467026  1
  O  O41  1  0.16965117  0.36954187  0.31477689  1
  O  O42  1  0.17009489  0.86969753  0.56460751  1
  O  O43  1  0.16981466  0.86980508  0.06482318  1
