# generated using pymatgen
data_Na14Mg6Ti2Si5S7O48
_symmetry_space_group_name_H-M   'P 1'
_cell_length_a   18.04965124
_cell_length_b   9.03612201
_cell_length_c   22.17720682
_cell_angle_alpha   89.95025918
_cell_angle_beta   90.05834076
_cell_angle_gamma   120.15849159
_symmetry_Int_Tables_number   1
_chemical_formula_structural   Na14Mg6Ti2Si5S7O48
_chemical_formula_sum   'Na42 Mg18 Ti6 Si15 S21 O144'
_cell_volume   3127.46387988
_cell_formula_units_Z   3
loop_
 _symmetry_equiv_pos_site_id
 _symmetry_equiv_pos_as_xyz
  1  'x, y, z'
loop_
 _atom_site_type_symbol
 _atom_site_label
 _atom_site_symmetry_multiplicity
 _atom_site_fract_x
 _atom_site_fract_y
 _atom_site_fract_z
 _atom_site_occupancy
  Na  Na0  1  0.81226880  0.00328696  0.24952061  1
  Na  Na1  1  0.68599822  0.35405475  0.24481475  1
  Na  Na2  1  0.50272114  0.64507167  0.24738263  1
  Na  Na3  1  0.30968065  0.61797820  0.74951644  1
  Na  Na4  1  0.00357446  0.37302514  0.74627983  1
  Na  Na5  1  0.17786038  0.00361572  0.74450843  1
  Na  Na6  1  0.15098119  0.32504806  0.57963432  1
  Na  Na7  1  0.66591044  0.35857238  0.58448628  1
  Na  Na8  1  0.01474128  0.69810849  0.57785374  1
  Na  Na9  1  0.52133546  0.68764181  0.58953678  1
  Na  Na10  1  0.32724380  0.98345337  0.58577682  1
  Na  Na11  1  0.82792020  0.95832357  0.58961001  1
  Na  Na12  1  0.16173249  0.96976189  0.08228960  1
  Na  Na13  1  0.65591753  0.98097663  0.07422185  1
  Na  Na14  1  0.32342582  0.69288411  0.08591259  1
  Na  Na15  1  0.82977125  0.67543770  0.08221909  1
  Na  Na16  1  0.02156201  0.35618841  0.08641588  1
  Na  Na17  1  0.51447852  0.33127825  0.07167396  1
  Na  Na18  1  0.48908680  0.66868255  0.91788701  1
  Na  Na19  1  0.98098051  0.66556310  0.91326344  1
  Na  Na20  1  0.35554740  0.04708300  0.92159397  1
  Na  Na21  1  0.84647042  0.03611996  0.91251806  1
  Na  Na22  1  0.16679810  0.29480847  0.91437425  1
  Na  Na23  1  0.66174512  0.28967203  0.92260183  1
  Na  Na24  1  0.48086621  0.30159493  0.42574857  1
  Na  Na25  1  0.98967541  0.31069650  0.42187761  1
  Na  Na26  1  0.16012216  0.03146259  0.42665057  1
  Na  Na27  1  0.66911987  0.04123543  0.41962751  1
  Na  Na28  1  0.34385152  0.65574179  0.41734779  1
  Na  Na29  1  0.85645179  0.66409637  0.42464049  1
  Na  Na30  1  0.00474014  0.99211816  0.50041654  1
  Na  Na31  1  0.50427816  0.01041512  0.50356795  1
  Na  Na32  1  0.00427944  0.99723320  0.99936344  1
  Na  Na33  1  0.50474601  0.01798357  0.99319993  1
  Na  Na34  1  0.33652809  0.33236435  0.82974978  1
  Na  Na35  1  0.82941773  0.33500718  0.82660608  1
  Na  Na36  1  0.32003974  0.32357366  0.33200498  1
  Na  Na37  1  0.83937166  0.34239320  0.33168627  1
  Na  Na38  1  0.16813469  0.67197087  0.16023477  1
  Na  Na39  1  0.66735671  0.66241097  0.16461144  1
  Na  Na40  1  0.16035477  0.67129196  0.66920283  1
  Na  Na41  1  0.67059564  0.66737554  0.66158321  1
  Mg  Mg42  1  0.00489801  0.00233513  0.35347713  1
  Mg  Mg43  1  0.50224986  0.00244167  0.34463105  1
  Mg  Mg44  1  0.00241641  0.99505569  0.83922897  1
  Mg  Mg45  1  0.50460116  0.00740121  0.85257518  1
  Mg  Mg46  1  0.33158266  0.32072057  0.68287816  1
  Mg  Mg47  1  0.82955633  0.33996954  0.68331456  1
  Mg  Mg48  1  0.32297577  0.31778115  0.18057690  1
  Mg  Mg49  1  0.83277199  0.34074858  0.18260524  1
  Mg  Mg50  1  0.33271533  0.31750854  0.98589074  1
  Mg  Mg51  1  0.82707650  0.33507399  0.98510366  1
  Mg  Mg52  1  0.32669916  0.32179091  0.48796714  1
  Mg  Mg53  1  0.83429285  0.34761630  0.48965165  1
  Mg  Mg54  1  0.16681520  0.66935508  0.02247016  1
  Mg  Mg55  1  0.66262917  0.65504840  0.01337665  1
  Mg  Mg56  1  0.16055542  0.66666993  0.51596440  1
  Mg  Mg57  1  0.66803579  0.66814327  0.52452853  1
  Mg  Mg58  1  0.66616966  0.67365133  0.31420139  1
  Mg  Mg59  1  0.16157374  0.65980444  0.80980913  1
  Ti  Ti60  1  0.00720190  0.98593334  0.65073595  1
  Ti  Ti61  1  0.50941868  0.02325439  0.64546042  1
  Ti  Ti62  1  0.00927971  0.99784865  0.14506730  1
  Ti  Ti63  1  0.50563547  0.00830317  0.14553933  1
  Ti  Ti64  1  0.15942662  0.64696795  0.31899205  1
  Ti  Ti65  1  0.66100674  0.67454348  0.81854048  1
  Si  Si66  1  0.65006584  0.00121047  0.25138915  1
  Si  Si67  1  0.15074493  0.29701451  0.75084883  1
  Si  Si68  1  0.99524920  0.69045766  0.75468834  1
  Si  Si69  1  0.47751821  0.33569583  0.58204814  1
  Si  Si70  1  0.18564272  0.03059566  0.58402466  1
  Si  Si71  1  0.69016817  0.04401927  0.58206586  1
  Si  Si72  1  0.83621253  0.63503793  0.58325842  1
  Si  Si73  1  0.97738957  0.61927458  0.08227398  1
  Si  Si74  1  0.33561365  0.03945764  0.08429256  1
  Si  Si75  1  0.18952195  0.33827722  0.08149028  1
  Si  Si76  1  0.68690329  0.34237921  0.08540740  1
  Si  Si77  1  0.51566653  0.36837908  0.91750346  1
  Si  Si78  1  0.66800484  0.96589575  0.92087905  1
  Si  Si79  1  0.16815310  0.37042413  0.42062448  1
  Si  Si80  1  0.01491137  0.66256130  0.41775338  1
  S  S81  1  0.14839530  0.99898801  0.25130535  1
  S  S82  1  0.35200977  0.70503103  0.25085293  1
  S  S83  1  0.85517918  0.71090132  0.25155147  1
  S  S84  1  0.00091543  0.29095266  0.25086239  1
  S  S85  1  0.49811156  0.29276383  0.25120562  1
  S  S86  1  0.64685205  0.29685123  0.75171731  1
  S  S87  1  0.50151815  0.71173530  0.75065242  1
  S  S88  1  0.35745389  0.00148798  0.75133140  1
  S  S89  1  0.85033895  0.99347041  0.75124925  1
  S  S90  1  0.98049880  0.33037488  0.58355768  1
  S  S91  1  0.33511416  0.63194076  0.58406587  1
  S  S92  1  0.48008611  0.62863420  0.08605495  1
  S  S93  1  0.83475681  0.03803390  0.08494794  1
  S  S94  1  0.31156637  0.66585612  0.91571482  1
  S  S95  1  0.81282795  0.67166590  0.91588840  1
  S  S96  1  0.01916446  0.37069482  0.91741996  1
  S  S97  1  0.16617803  0.95740844  0.91618500  1
  S  S98  1  0.31408833  0.95644894  0.41406095  1
  S  S99  1  0.81189907  0.95839458  0.41530547  1
  S  S100  1  0.66418256  0.37438369  0.41405360  1
  S  S101  1  0.51936433  0.66748584  0.41572946  1
  O  O102  1  0.10370954  0.01647060  0.30367120  1
  O  O103  1  0.60642495  0.03213880  0.31020687  1
  O  O104  1  0.40411758  0.78904700  0.30581845  1
  O  O105  1  0.90519335  0.80007896  0.30533991  1
  O  O106  1  0.48534282  0.18989200  0.30604663  1
  O  O107  1  0.98971795  0.18510526  0.30463245  1
  O  O108  1  0.10904317  0.18624770  0.81189004  1
  O  O109  1  0.60251116  0.19176853  0.80465370  1
  O  O110  1  0.49053195  0.79468490  0.80483400  1
  O  O111  1  0.98249724  0.77509938  0.81483414  1
  O  O112  1  0.40823310  0.01544773  0.80535294  1
  O  O113  1  0.90226524  0.01697970  0.80681711  1
  O  O114  1  0.39907081  0.97574896  0.69634008  1
  O  O115  1  0.89282127  0.97359685  0.69715314  1
  O  O116  1  0.08422348  0.19277952  0.69260695  1
  O  O117  1  0.59146515  0.20801189  0.69574685  1
  O  O118  1  0.00999519  0.82558172  0.69579070  1
  O  O119  1  0.51237038  0.81734269  0.69557506  1
  O  O120  1  0.39510905  0.81035338  0.19647420  1
  O  O121  1  0.89585739  0.82021306  0.19639353  1
  O  O122  1  0.01131017  0.20635594  0.19560392  1
  O  O123  1  0.51014571  0.20681670  0.19747190  1
  O  O124  1  0.09436005  0.97828958  0.19492595  1
  O  O125  1  0.58260141  0.97567517  0.19352788  1
  O  O126  1  0.43421651  0.37519177  0.63762457  1
  O  O127  1  0.94024317  0.35396569  0.63803954  1
  O  O128  1  0.24408346  0.11506458  0.64304390  1
  O  O129  1  0.75187714  0.12908952  0.63845148  1
  O  O130  1  0.32241280  0.52712071  0.63822148  1
  O  O131  1  0.81536950  0.50335970  0.63744669  1
  O  O132  1  0.44090953  0.52759584  0.14101565  1
  O  O133  1  0.93464572  0.49503624  0.13860928  1
  O  O134  1  0.31941031  0.12911885  0.14068981  1
  O  O135  1  0.82166907  0.11551053  0.13928641  1
  O  O136  1  0.24971173  0.37823162  0.13899263  1
  O  O137  1  0.74214163  0.36989271  0.14564672  1
  O  O138  1  0.21944716  0.27997358  0.02123461  1
  O  O139  1  0.71937962  0.28736113  0.02566399  1
  O  O140  1  0.42757565  0.54926696  0.03129306  1
  O  O141  1  0.91913694  0.56078343  0.02136445  1
  O  O142  1  0.36440687  0.15595216  0.02299976  1
  O  O143  1  0.85095612  0.14544844  0.03046702  1
  O  O144  1  0.22004757  0.14811470  0.52322698  1
  O  O145  1  0.71815381  0.15650705  0.51980077  1
  O  O146  1  0.35223711  0.55843921  0.52929135  1
  O  O147  1  0.86159031  0.57187642  0.52108668  1
  O  O148  1  0.42029913  0.28037437  0.52021885  1
  O  O149  1  0.92849475  0.30717969  0.52842578  1
  O  O150  1  0.27220159  0.69294644  0.97022950  1
  O  O151  1  0.77477570  0.69359586  0.97202268  1
  O  O152  1  0.07338073  0.45236092  0.97130559  1
  O  O153  1  0.57421362  0.44717176  0.97669017  1
  O  O154  1  0.15664064  0.85414914  0.97080498  1
  O  O155  1  0.65448441  0.84931466  0.97963881  1
  O  O156  1  0.27877987  0.85713886  0.47009779  1
  O  O157  1  0.77077499  0.84990140  0.46849998  1
  O  O158  1  0.15633578  0.46353330  0.47837079  1
  O  O159  1  0.65401125  0.45781612  0.46800788  1
  O  O160  1  0.07589179  0.70246968  0.47516244  1
  O  O161  1  0.57408197  0.69462350  0.46886155  1
  O  O162  1  0.07442728  0.64204130  0.35962552  1
  O  O163  1  0.55914672  0.64410084  0.36045598  1
  O  O164  1  0.25781607  0.86580008  0.36123983  1
  O  O165  1  0.75914445  0.87783318  0.36007043  1
  O  O166  1  0.18008699  0.50517111  0.36081698  1
  O  O167  1  0.67345838  0.47709006  0.35899368  1
  O  O168  1  0.05987413  0.47406717  0.86277497  1
  O  O169  1  0.57545170  0.50742427  0.86031687  1
  O  O170  1  0.17598181  0.87359518  0.86193838  1
  O  O171  1  0.67987626  0.85492185  0.86187161  1
  O  O172  1  0.25861524  0.64269243  0.86151055  1
  O  O173  1  0.75704231  0.64915350  0.86295429  1
  O  O174  1  0.00434701  0.82852680  0.40711210  1
  O  O175  1  0.50806017  0.82166697  0.41106746  1
  O  O176  1  0.40177620  0.97588123  0.40680651  1
  O  O177  1  0.89859103  0.97807806  0.40909882  1
  O  O178  1  0.08168699  0.18749988  0.40994578  1
  O  O179  1  0.58378810  0.19982327  0.41095188  1
  O  O180  1  0.00723650  0.19376161  0.91316611  1
  O  O181  1  0.50463711  0.18017162  0.90797354  1
  O  O182  1  0.08785700  0.97542715  0.91443965  1
  O  O183  1  0.58137127  0.97588050  0.91054578  1
  O  O184  1  0.39912256  0.81996568  0.91004619  1
  O  O185  1  0.89906022  0.82985008  0.91112010  1
  O  O186  1  0.48664483  0.15477068  0.59544042  1
  O  O187  1  0.98831047  0.17378618  0.58749814  1
  O  O188  1  0.08857729  0.01456960  0.59124038  1
  O  O189  1  0.58879903  0.02225610  0.59602286  1
  O  O190  1  0.41442947  0.80854685  0.59050377  1
  O  O191  1  0.92099252  0.83259600  0.59467447  1
  O  O192  1  0.48694429  0.80323243  0.08963762  1
  O  O193  1  0.98714661  0.81997900  0.09666405  1
  O  O194  1  0.42077952  0.01066345  0.09787443  1
  O  O195  1  0.91385005  0.01960531  0.09136515  1
  O  O196  1  0.08826866  0.15758091  0.09591988  1
  O  O197  1  0.58756053  0.16369980  0.09451200  1
  O  O198  1  0.34802150  0.15356428  0.74712123  1
  O  O199  1  0.84275120  0.14871716  0.74654947  1
  O  O200  1  0.24687891  0.31962790  0.74459468  1
  O  O201  1  0.72987556  0.30756971  0.74590865  1
  O  O202  1  0.42426924  0.54173722  0.74528372  1
  O  O203  1  0.91760609  0.49583034  0.74572559  1
  O  O204  1  0.34820304  0.53639353  0.24691502  1
  O  O205  1  0.84605294  0.54028273  0.24759039  1
  O  O206  1  0.42624015  0.32561352  0.24506996  1
  O  O207  1  0.92380595  0.30621501  0.24547081  1
  O  O208  1  0.23265626  0.15364376  0.24631678  1
  O  O209  1  0.74618898  0.16823277  0.24446496  1
  O  O210  1  0.32083239  0.51155352  0.92151774  1
  O  O211  1  0.82110024  0.51617483  0.91761450  1
  O  O212  1  0.42471428  0.36717892  0.91574153  1
  O  O213  1  0.93311708  0.35473089  0.92317041  1
  O  O214  1  0.24421291  0.13109060  0.91914315  1
  O  O215  1  0.75619302  0.15207737  0.91838590  1
  O  O216  1  0.32275525  0.12840667  0.41551666  1
  O  O217  1  0.82081984  0.13073104  0.42062944  1
  O  O218  1  0.25657753  0.36149339  0.41731260  1
  O  O219  1  0.74068623  0.35401305  0.41662073  1
  O  O220  1  0.43317634  0.51202416  0.42110601  1
  O  O221  1  0.92407465  0.48181225  0.41526161  1
  O  O222  1  0.16796233  0.49101837  0.07519803  1
  O  O223  1  0.67360914  0.50815783  0.08020659  1
  O  O224  1  0.07591201  0.66518306  0.07607635  1
  O  O225  1  0.56769521  0.65504400  0.08144625  1
  O  O226  1  0.25372078  0.84789742  0.07689887  1
  O  O227  1  0.75930557  0.86445527  0.07868157  1
  O  O228  1  0.17443540  0.83935403  0.57902610  1
  O  O229  1  0.66707354  0.84696475  0.57545602  1
  O  O230  1  0.25993891  0.65373108  0.57734522  1
  O  O231  1  0.75365330  0.66180299  0.57627224  1
  O  O232  1  0.06770520  0.48372394  0.57931423  1
  O  O233  1  0.57568129  0.48814281  0.57504562  1
  O  O234  1  0.15514281  0.84181450  0.25383915  1
  O  O235  1  0.65417130  0.82258816  0.25114791  1
  O  O236  1  0.26567537  0.68719944  0.25515288  1
  O  O237  1  0.76699193  0.69071796  0.25452976  1
  O  O238  1  0.08044742  0.46454840  0.25506805  1
  O  O239  1  0.58017474  0.46243246  0.25520464  1
  O  O240  1  0.15907820  0.48639180  0.75134464  1
  O  O241  1  0.65361039  0.46720860  0.75384472  1
  O  O242  1  0.08824957  0.69794736  0.75252602  1
  O  O243  1  0.58090051  0.69720569  0.75537488  1
  O  O244  1  0.27101530  0.84442431  0.75467792  1
  O  O245  1  0.76384229  0.83466602  0.75669514  1
