# generated using pymatgen
data_Si(PH2)4
_symmetry_space_group_name_H-M   'P 1'
_cell_length_a   7.44443316
_cell_length_b   10.87565666
_cell_length_c   11.11948761
_cell_angle_alpha   78.54946961
_cell_angle_beta   90.00000000
_cell_angle_gamma   90.00000000
_symmetry_Int_Tables_number   1
_chemical_formula_structural   Si(PH2)4
_chemical_formula_sum   'Si4 P16 H32'
_cell_volume   882.34966686
_cell_formula_units_Z   4
loop_
 _symmetry_equiv_pos_site_id
 _symmetry_equiv_pos_as_xyz
  1  'x, y, z'
loop_
 _atom_site_type_symbol
 _atom_site_label
 _atom_site_symmetry_multiplicity
 _atom_site_fract_x
 _atom_site_fract_y
 _atom_site_fract_z
 _atom_site_occupancy
  Si  Si0  1  0.93511602  0.75580063  0.35363368  1
  Si  Si1  1  0.43511602  0.24419937  0.14636632  1
  Si  Si2  1  0.06488398  0.24419937  0.64636632  1
  Si  Si3  1  0.56488398  0.75580063  0.85363368  1
  P  P4  1  0.85338966  0.70323257  0.90399794  1
  P  P5  1  0.35338966  0.29676743  0.59600206  1
  P  P6  1  0.14661034  0.29676743  0.09600206  1
  P  P7  1  0.64661034  0.70323257  0.40399794  1
  P  P8  1  0.06311091  0.80929849  0.52015095  1
  P  P9  1  0.56311091  0.19070151  0.97984905  1
  P  P10  1  0.93688909  0.19070151  0.47984905  1
  P  P11  1  0.43688909  0.80929849  0.02015095  1
  P  P12  1  0.54299243  0.92304679  0.69783730  1
  P  P13  1  0.04299243  0.07695321  0.80216270  1
  P  P14  1  0.45700757  0.07695321  0.30216270  1
  P  P15  1  0.95700757  0.92304679  0.19783730  1
  P  P16  1  0.07894569  0.58903317  0.30561746  1
  P  P17  1  0.57894569  0.41096683  0.19438254  1
  P  P18  1  0.92105431  0.41096683  0.69438254  1
  P  P19  1  0.42105431  0.58903317  0.80561746  1
  H  H20  1  0.26000729  0.81234032  0.97223697  1
  H  H21  1  0.76000729  0.18765968  0.52776303  1
  H  H22  1  0.73999271  0.18765968  0.02776303  1
  H  H23  1  0.23999271  0.81234032  0.47223697  1
  H  H24  1  0.42364610  0.68218522  0.08154811  1
  H  H25  1  0.92364610  0.31781478  0.41845189  1
  H  H26  1  0.57635390  0.31781478  0.91845189  1
  H  H27  1  0.07635390  0.68218522  0.58154811  1
  H  H28  1  0.83272155  0.99673851  0.24942976  1
  H  H29  1  0.33272155  0.00326149  0.25057024  1
  H  H30  1  0.16727845  0.00326149  0.75057024  1
  H  H31  1  0.66727845  0.99673851  0.74942976  1
  H  H32  1  0.82628581  0.87739803  0.12501551  1
  H  H33  1  0.32628581  0.12260197  0.37498449  1
  H  H34  1  0.17371419  0.12260197  0.87498449  1
  H  H35  1  0.67371419  0.87739803  0.62501551  1
  H  H36  1  0.49515558  0.60396129  0.68604383  1
  H  H37  1  -0.00484442  0.39603871  0.81395617  1
  H  H38  1  0.50484442  0.39603871  0.31395617  1
  H  H39  1  0.00484442  0.60396129  0.18604383  1
  H  H40  1  0.68990756  0.58056579  0.46851541  1
  H  H41  1  0.18990756  0.41943421  0.03148459  1
  H  H42  1  0.31009244  0.41943421  0.53148459  1
  H  H43  1  0.81009244  0.58056579  0.96851541  1
  H  H44  1  0.61207642  0.66325467  0.29231250  1
  H  H45  1  0.11207642  0.33674533  0.20768750  1
  H  H46  1  0.38792358  0.33674533  0.70768750  1
  H  H47  1  0.88792358  0.66325467  0.79231250  1
  H  H48  1  0.26245588  0.65693159  0.76525995  1
  H  H49  1  0.76245588  0.34306841  0.73474005  1
  H  H50  1  0.73754412  0.34306841  0.23474005  1
  H  H51  1  0.23754412  0.65693159  0.26525995  1
