# generated using pymatgen
data_Na3InSn3(PO4)6
_symmetry_space_group_name_H-M   'P 1'
_cell_length_a   8.83385325
_cell_length_b   8.83532708
_cell_length_c   22.86079715
_cell_angle_alpha   89.92351213
_cell_angle_beta   90.05654942
_cell_angle_gamma   120.20539103
_symmetry_Int_Tables_number   1
_chemical_formula_structural   Na3InSn3(PO4)6
_chemical_formula_sum   'Na9 In3 Sn9 P18 O72'
_cell_volume   1542.02648195
_cell_formula_units_Z   3
loop_
 _symmetry_equiv_pos_site_id
 _symmetry_equiv_pos_as_xyz
  1  'x, y, z'
loop_
 _atom_site_type_symbol
 _atom_site_label
 _atom_site_symmetry_multiplicity
 _atom_site_fract_x
 _atom_site_fract_y
 _atom_site_fract_z
 _atom_site_occupancy
  Na  Na0  1  0.36534659  0.36100075  0.24781092  1
  Na  Na1  1  0.63598517  0.63233411  0.74888235  1
  Na  Na2  1  0.96927601  0.29879328  0.41503607  1
  Na  Na3  1  0.00066301  0.99227180  0.49981916  1
  Na  Na4  1  0.99991626  0.99995693  0.00157422  1
  Na  Na5  1  0.66731024  0.32552431  0.83395754  1
  Na  Na6  1  0.66709662  0.33352968  0.32996208  1
  Na  Na7  1  0.33285930  0.67457561  0.16454704  1
  Na  Na8  1  0.32581046  0.66760807  0.66512360  1
  In  In9  1  0.99871097  0.99223036  0.35145707  1
  In  In10  1  0.66708964  0.32747314  0.68411505  1
  In  In11  1  0.67261195  0.33294385  0.18220858  1
  Sn  Sn12  1  0.00172901  0.00171266  0.85419152  1
  Sn  Sn13  1  0.00171392  0.00213288  0.64695948  1
  Sn  Sn14  1  0.99782141  0.99779271  0.14713786  1
  Sn  Sn15  1  0.66663832  0.33335348  0.98253636  1
  Sn  Sn16  1  0.66195336  0.33385201  0.48328991  1
  Sn  Sn17  1  0.33329045  0.66646589  0.01844141  1
  Sn  Sn18  1  0.33534486  0.66846323  0.51949187  1
  Sn  Sn19  1  0.33474879  0.67350941  0.31427436  1
  Sn  Sn20  1  0.32874011  0.66730331  0.81625723  1
  P  P21  1  0.29249539  0.99847188  0.24955841  1
  P  P22  1  0.70527467  0.70612342  0.24995919  1
  P  P23  1  0.99872492  0.29334797  0.25173425  1
  P  P24  1  0.28936782  0.29170646  0.75099326  1
  P  P25  1  0.00383439  0.71196279  0.75056346  1
  P  P26  1  0.70977316  0.00020622  0.75143335  1
  P  P27  1  0.96238380  0.33347765  0.58238376  1
  P  P28  1  0.37043522  0.03726237  0.58326147  1
  P  P29  1  0.66672818  0.62896345  0.58424314  1
  P  P30  1  0.96233304  0.62921293  0.08228332  1
  P  P31  1  0.66693477  0.03808697  0.08245680  1
  P  P32  1  0.37104281  0.33319705  0.08340094  1
  P  P33  1  0.62561373  0.66509953  0.91619029  1
  P  P34  1  0.03901223  0.37385842  0.91701055  1
  P  P35  1  0.33475760  0.96047128  0.91688037  1
  P  P36  1  0.62362575  0.95967326  0.41799782  1
  P  P37  1  0.33747916  0.37776882  0.41679833  1
  P  P38  1  0.04188698  0.66604385  0.41840247  1
  O  O39  1  0.21860476  0.03692616  0.30484073  1
  O  O40  1  0.81103013  0.78076652  0.30591874  1
  O  O41  1  0.97375131  0.19173862  0.30914240  1
  O  O42  1  0.20762829  0.17908014  0.80591862  1
  O  O43  1  0.96693570  0.79301994  0.80511522  1
  O  O44  1  0.82172512  0.02697205  0.80632820  1
  O  O45  1  0.78651961  0.95821769  0.69629467  1
  O  O46  1  0.17687272  0.21357760  0.69536249  1
  O  O47  1  0.03581444  0.82439265  0.69493397  1
  O  O48  1  0.78509432  0.82097214  0.19490072  1
  O  O49  1  0.04031176  0.21207554  0.19763119  1
  O  O50  1  0.17751842  0.96526536  0.19448042  1
  O  O51  1  0.88638248  0.36886067  0.63692600  1
  O  O52  1  0.47954609  0.11120656  0.63830157  1
  O  O53  1  0.63339233  0.52380877  0.64091478  1
  O  O54  1  0.89009329  0.52116957  0.13777544  1
  O  O55  1  0.63018515  0.10994291  0.13781520  1
  O  O56  1  0.47526161  0.36689958  0.14030579  1
  O  O57  1  0.45372093  0.30038230  0.02852201  1
  O  O58  1  0.84809547  0.54884296  0.02678458  1
  O  O59  1  0.70102194  0.15194925  0.02690698  1
  O  O60  1  0.44963172  0.15081209  0.52729756  1
  O  O61  1  0.70028970  0.54720818  0.52903918  1
  O  O62  1  0.85210963  0.30091181  0.52518148  1
  O  O63  1  0.54201230  0.69875477  0.96996733  1
  O  O64  1  0.15531363  0.45537492  0.97139998  1
  O  O65  1  0.29997566  0.84448478  0.97130483  1
  O  O66  1  0.54191529  0.84659541  0.47254299  1
  O  O67  1  0.30167940  0.46157599  0.47046638  1
  O  O68  1  0.15409694  0.69342644  0.47288556  1
  O  O69  1  0.11853702  0.62410264  0.36327920  1
  O  O70  1  0.51139344  0.88174065  0.36241466  1
  O  O71  1  0.36781825  0.48693407  0.35987382  1
  O  O72  1  0.11733509  0.48561564  0.86097366  1
  O  O73  1  0.36877615  0.88265489  0.86096348  1
  O  O74  1  0.51713417  0.63370677  0.85881351  1
  O  O75  1  0.02196942  0.82742841  0.41426191  1
  O  O76  1  0.80981067  0.98672657  0.41391289  1
  O  O77  1  0.16892956  0.19772327  0.41316219  1
  O  O78  1  0.02280419  0.19127737  0.91136843  1
  O  O79  1  0.16827998  0.97647742  0.91102891  1
  O  O80  1  0.80893041  0.83166782  0.91088146  1
  O  O81  1  0.97799304  0.16629327  0.58752929  1
  O  O82  1  0.18680864  0.02030978  0.58768298  1
  O  O83  1  0.83347748  0.81319753  0.58816667  1
  O  O84  1  0.97965656  0.81280920  0.08712304  1
  O  O85  1  0.83354443  0.02133838  0.08766787  1
  O  O86  1  0.18656756  0.16665188  0.08784306  1
  O  O87  1  0.68930089  0.16064081  0.74703960  1
  O  O88  1  0.47559373  0.31922694  0.74652790  1
  O  O89  1  0.83521437  0.53166495  0.74609307  1
  O  O90  1  0.67497654  0.51919848  0.24454946  1
  O  O91  1  0.84013135  0.31559201  0.24597254  1
  O  O92  1  0.47349189  0.16462008  0.24403100  1
  O  O93  1  0.64228567  0.49979386  0.92230568  1
  O  O94  1  0.85652006  0.35612287  0.92272029  1
  O  O95  1  0.49965792  0.14373122  0.92269096  1
  O  O96  1  0.64510805  0.14640399  0.42336640  1
  O  O97  1  0.50372436  0.36250524  0.42274871  1
  O  O98  1  0.86023843  0.49268052  0.42370607  1
  O  O99  1  0.35296479  0.49849435  0.07571839  1
  O  O100  1  0.14652657  0.64834510  0.07533226  1
  O  O101  1  0.50211726  0.85311768  0.07538650  1
  O  O102  1  0.35104103  0.85368948  0.57650967  1
  O  O103  1  0.50191613  0.64678257  0.57670209  1
  O  O104  1  0.14687740  0.49738610  0.57599199  1
  O  O105  1  0.30687991  0.83047360  0.25465147  1
  O  O106  1  0.51751268  0.68532086  0.25471228  1
  O  O107  1  0.17476834  0.47559970  0.25569819  1
  O  O108  1  0.31140131  0.47907041  0.75646022  1
  O  O109  1  0.16936456  0.69507822  0.75617822  1
  O  O110  1  0.52776354  0.82619927  0.75679713  1
