# generated using pymatgen
data_Na5Zr2Si3Sn2(PO8)3
_symmetry_space_group_name_H-M   'P 1'
_cell_length_a   9.03920102
_cell_length_b   9.04348057
_cell_length_c   22.92468989
_cell_angle_alpha   89.93795936
_cell_angle_beta   90.15006044
_cell_angle_gamma   119.99112986
_symmetry_Int_Tables_number   1
_chemical_formula_structural   Na5Zr2Si3Sn2(PO8)3
_chemical_formula_sum   'Na15 Zr6 Si9 Sn6 P9 O72'
_cell_volume   1623.06929509
_cell_formula_units_Z   3
loop_
 _symmetry_equiv_pos_site_id
 _symmetry_equiv_pos_as_xyz
  1  'x, y, z'
loop_
 _atom_site_type_symbol
 _atom_site_label
 _atom_site_symmetry_multiplicity
 _atom_site_fract_x
 _atom_site_fract_y
 _atom_site_fract_z
 _atom_site_occupancy
  Na  Na0  1  0.00089642  0.63206557  0.25002858  1
  Na  Na1  1  0.36984812  0.99913472  0.75168268  1
  Na  Na2  1  0.03044671  0.70081799  0.58074603  1
  Na  Na3  1  0.66079368  0.96475101  0.58530440  1
  Na  Na4  1  0.29701524  0.96875344  0.08000949  1
  Na  Na5  1  0.03725770  0.33968359  0.08516026  1
  Na  Na6  1  0.97043371  0.66862618  0.91899755  1
  Na  Na7  1  0.96453467  0.30214643  0.41352100  1
  Na  Na8  1  0.33678393  0.02830416  0.41743471  1
  Na  Na9  1  0.99766821  0.99147418  0.49995788  1
  Na  Na10  1  0.99757773  0.99946896  0.99843098  1
  Na  Na11  1  0.66502859  0.32447586  0.83441697  1
  Na  Na12  1  0.66443169  0.33171887  0.33166188  1
  Na  Na13  1  0.34610897  0.65959585  0.16746150  1
  Na  Na14  1  0.34129626  0.65353574  0.66824892  1
  Zr  Zr15  1  0.99015271  0.99584096  0.35069032  1
  Zr  Zr16  1  0.99927377  0.00237845  0.64983130  1
  Zr  Zr17  1  0.99896868  0.00078365  0.14761134  1
  Zr  Zr18  1  0.66657044  0.33331372  0.68767525  1
  Zr  Zr19  1  0.66565635  0.34085358  0.48049705  1
  Zr  Zr20  1  0.34032650  0.67023085  0.51890682  1
  Si  Si21  1  0.99980264  0.30026751  0.24932413  1
  Si  Si22  1  0.70452014  0.99596584  0.75219661  1
  Si  Si23  1  0.37036839  0.04074956  0.58328486  1
  Si  Si24  1  0.66558592  0.62670698  0.58532051  1
  Si  Si25  1  0.95644690  0.62252693  0.08097832  1
  Si  Si26  1  0.38031862  0.33909875  0.08326064  1
  Si  Si27  1  0.33541775  0.96265557  0.91583971  1
  Si  Si28  1  0.62609848  0.95844797  0.41562591  1
  Si  Si29  1  0.04143330  0.66712673  0.41520623  1
  Sn  Sn30  1  0.00035860  0.00561550  0.85310153  1
  Sn  Sn31  1  0.66635304  0.33319107  0.18441694  1
  Sn  Sn32  1  0.65723604  0.32869749  0.98027641  1
  Sn  Sn33  1  0.33483337  0.66629688  0.01733807  1
  Sn  Sn34  1  0.33405753  0.66552910  0.31391721  1
  Sn  Sn35  1  0.33963109  0.66896540  0.81586642  1
  P  P36  1  0.29950432  0.00276605  0.25021281  1
  P  P37  1  0.70061247  0.70207368  0.24905558  1
  P  P38  1  0.28979529  0.29497510  0.75282961  1
  P  P39  1  0.00211998  0.70722670  0.75329898  1
  P  P40  1  0.95816784  0.33307380  0.58285350  1
  P  P41  1  0.66420608  0.04364068  0.08207335  1
  P  P42  1  0.62586219  0.66676386  0.91657502  1
  P  P43  1  0.04212226  0.37468821  0.91694654  1
  P  P44  1  0.33360282  0.37669631  0.41443177  1
  O  O45  1  0.21319789  0.02364873  0.30515481  1
  O  O46  1  0.81690607  0.78685540  0.30306387  1
  O  O47  1  0.97597971  0.18599618  0.30758826  1
  O  O48  1  0.21297701  0.17668216  0.80668464  1
  O  O49  1  0.97730165  0.79024905  0.80879829  1
  O  O50  1  0.82689473  0.02883647  0.80845926  1
  O  O51  1  0.78958425  0.97240318  0.69251473  1
  O  O52  1  0.18110203  0.21111230  0.69834406  1
  O  O53  1  0.03424541  0.82219203  0.69896088  1
  O  O54  1  0.78991662  0.81354728  0.19539324  1
  O  O55  1  0.02178689  0.20752463  0.19145553  1
  O  O56  1  0.18329833  0.97244885  0.19590148  1
  O  O57  1  0.87119626  0.36221230  0.63593110  1
  O  O58  1  0.49245843  0.12624629  0.64068894  1
  O  O59  1  0.64557138  0.50968136  0.64145169  1
  O  O60  1  0.88057311  0.50255956  0.13952677  1
  O  O61  1  0.62382051  0.11747765  0.13663533  1
  O  O62  1  0.49337138  0.36809290  0.14166696  1
  O  O63  1  0.45291423  0.28406095  0.02718893  1
  O  O64  1  0.84559151  0.53773789  0.02152482  1
  O  O65  1  0.70609037  0.16066437  0.02822474  1
  O  O66  1  0.45983142  0.15061238  0.52436634  1
  O  O67  1  0.70572406  0.54300044  0.52852517  1
  O  O68  1  0.84896813  0.30188052  0.52708050  1
  O  O69  1  0.54540860  0.69623070  0.97144242  1
  O  O70  1  0.14744228  0.44985540  0.97376318  1
  O  O71  1  0.29450482  0.84081821  0.97434039  1
  O  O72  1  0.54463888  0.84725639  0.47499024  1
  O  O73  1  0.30072278  0.45688893  0.46822562  1
  O  O74  1  0.15668290  0.69580437  0.47387141  1
  O  O75  1  0.12163330  0.62718670  0.35692615  1
  O  O76  1  0.49912418  0.87086822  0.35997298  1
  O  O77  1  0.36488615  0.48559431  0.35957494  1
  O  O78  1  0.12744555  0.49308346  0.86386937  1
  O  O79  1  0.35983264  0.87542373  0.85699808  1
  O  O80  1  0.51417464  0.63269113  0.86212347  1
  O  O81  1  0.03804844  0.84561567  0.40948014  1
  O  O82  1  0.82054975  0.98939016  0.41147670  1
  O  O83  1  0.17264739  0.19645682  0.40889129  1
  O  O84  1  0.02285697  0.19560137  0.91156541  1
  O  O85  1  0.15379498  0.96818511  0.91086497  1
  O  O86  1  0.80878175  0.82597670  0.91146184  1
  O  O87  1  0.97055083  0.17053447  0.58975725  1
  O  O88  1  0.17821576  0.01124313  0.58908583  1
  O  O89  1  0.83658869  0.81752569  0.58981186  1
  O  O90  1  0.98663081  0.81586007  0.08823163  1
  O  O91  1  0.82526365  0.02771799  0.08969084  1
  O  O92  1  0.18655823  0.16895447  0.09013123  1
  O  O93  1  0.67517616  0.16117628  0.74802006  1
  O  O94  1  0.46707861  0.30898773  0.74646065  1
  O  O95  1  0.84444328  0.52975937  0.74689157  1
  O  O96  1  0.69268725  0.52695844  0.24499714  1
  O  O97  1  0.83022856  0.32481061  0.24530901  1
  O  O98  1  0.47698250  0.16314732  0.24429412  1
  O  O99  1  0.65412231  0.51022111  0.92131585  1
  O  O100  1  0.86583736  0.36668558  0.92151751  1
  O  O101  1  0.50821036  0.15065310  0.92027141  1
  O  O102  1  0.64270252  0.14712905  0.42033151  1
  O  O103  1  0.48827493  0.34922303  0.42045559  1
  O  O104  1  0.85639963  0.49282413  0.42017990  1
  O  O105  1  0.35057838  0.50345269  0.07612736  1
  O  O106  1  0.15007438  0.64335910  0.07658463  1
  O  O107  1  0.50042191  0.86668979  0.07490553  1
  O  O108  1  0.35052757  0.84930025  0.57954099  1
  O  O109  1  0.50042706  0.65212197  0.58097021  1
  O  O110  1  0.13363301  0.49527078  0.57770627  1
  O  O111  1  0.30782905  0.83506008  0.25373421  1
  O  O112  1  0.52412589  0.68689270  0.25500599  1
  O  O113  1  0.16936247  0.49393474  0.25292646  1
  O  O114  1  0.30334820  0.47158610  0.75915156  1
  O  O115  1  0.16828058  0.69544446  0.75744210  1
  O  O116  1  0.51010452  0.82585916  0.75501029  1
