# generated using pymatgen
data_Na6Zr4In4Si5S7O48
_symmetry_space_group_name_H-M   'P 1'
_cell_length_a   18.14424057
_cell_length_b   9.04562228
_cell_length_c   23.49494688
_cell_angle_alpha   90.01431794
_cell_angle_beta   89.81391855
_cell_angle_gamma   119.97801160
_symmetry_Int_Tables_number   1
_chemical_formula_structural   Na6Zr4In4Si5S7O48
_chemical_formula_sum   'Na18 Zr12 In12 Si15 S21 O144'
_cell_volume   3340.22476374
_cell_formula_units_Z   3
loop_
 _symmetry_equiv_pos_site_id
 _symmetry_equiv_pos_as_xyz
  1  'x, y, z'
loop_
 _atom_site_type_symbol
 _atom_site_label
 _atom_site_symmetry_multiplicity
 _atom_site_fract_x
 _atom_site_fract_y
 _atom_site_fract_z
 _atom_site_occupancy
  Na  Na0  1  0.00049839  0.63221821  0.25495297  1
  Na  Na1  1  0.49541423  0.62795387  0.25054981  1
  Na  Na2  1  0.99537083  0.36627030  0.74950036  1
  Na  Na3  1  0.50350965  0.36432474  0.75301487  1
  Na  Na4  1  0.66298533  0.29902788  0.91624452  1
  Na  Na5  1  0.16471771  0.02419580  0.42530532  1
  Na  Na6  1  0.00305852  0.99603866  0.50379349  1
  Na  Na7  1  0.50321661  0.99473731  0.50289579  1
  Na  Na8  1  0.00428060  0.00929963  0.99669984  1
  Na  Na9  1  0.50403548  0.01220957  0.99912482  1
  Na  Na10  1  0.33156668  0.32393407  0.83607983  1
  Na  Na11  1  0.82916166  0.32787048  0.82220304  1
  Na  Na12  1  0.33836271  0.34456476  0.32800915  1
  Na  Na13  1  0.82862770  0.33652565  0.33943450  1
  Na  Na14  1  0.18019433  0.66160375  0.16743897  1
  Na  Na15  1  0.67148079  0.65866720  0.16380152  1
  Na  Na16  1  0.17251246  0.68538707  0.66608472  1
  Na  Na17  1  0.67798547  0.68375613  0.67389351  1
  Zr  Zr18  1  0.49844640  0.01189934  0.35070196  1
  Zr  Zr19  1  0.99844710  0.98437466  0.84993409  1
  Zr  Zr20  1  0.99946847  0.98724147  0.65011238  1
  Zr  Zr21  1  0.50763735  0.99969155  0.64397907  1
  Zr  Zr22  1  0.00116838  0.01411133  0.14059670  1
  Zr  Zr23  1  0.49902808  0.01157604  0.14932833  1
  Zr  Zr24  1  0.32788375  0.32223581  0.97727249  1
  Zr  Zr25  1  0.82849176  0.33532380  0.47864683  1
  Zr  Zr26  1  0.16560395  0.66502194  0.01731992  1
  Zr  Zr27  1  0.66555105  0.65486186  0.02190794  1
  Zr  Zr28  1  0.16489191  0.67527946  0.52439917  1
  Zr  Zr29  1  0.66456079  0.66246842  0.51944104  1
  In  In30  1  0.99626829  0.99146041  0.35332758  1
  In  In31  1  0.50118712  0.01115849  0.85068489  1
  In  In32  1  0.32397685  0.33145609  0.67779166  1
  In  In33  1  0.82359637  0.31470763  0.69113609  1
  In  In34  1  0.33187067  0.34430995  0.18654330  1
  In  In35  1  0.82131054  0.31536375  0.17624418  1
  In  In36  1  0.82924122  0.31677137  0.98782542  1
  In  In37  1  0.33106935  0.34394706  0.49168038  1
  In  In38  1  0.17111115  0.66680065  0.31732246  1
  In  In39  1  0.66401113  0.64532088  0.31663363  1
  In  In40  1  0.16623603  0.68556992  0.81536151  1
  In  In41  1  0.66881527  0.66117356  0.81260755  1
  Si  Si42  1  0.35176328  0.70978473  0.25132227  1
  Si  Si43  1  0.49927475  0.30056669  0.24887864  1
  Si  Si44  1  0.64505372  0.29253589  0.75108199  1
  Si  Si45  1  0.00114450  0.69906102  0.74865031  1
  Si  Si46  1  0.85336950  0.99591255  0.75127602  1
  Si  Si47  1  0.18367010  0.04256178  0.58219902  1
  Si  Si48  1  0.69116997  0.04284114  0.58290203  1
  Si  Si49  1  0.33406877  0.63336085  0.58338546  1
  Si  Si50  1  0.83070863  0.03648698  0.08276105  1
  Si  Si51  1  0.19150427  0.34055394  0.08373250  1
  Si  Si52  1  0.68375623  0.32785161  0.08204785  1
  Si  Si53  1  0.52025966  0.37609055  0.91478506  1
  Si  Si54  1  0.16280445  0.95768961  0.91724335  1
  Si  Si55  1  0.66416001  0.36914531  0.41685805  1
  Si  Si56  1  0.02161566  0.66372954  0.41332227  1
  S  S57  1  0.14390230  0.99901904  0.25017323  1
  S  S58  1  0.64731399  0.00148897  0.25169099  1
  S  S59  1  0.85532848  0.70748441  0.24835148  1
  S  S60  1  0.99761822  0.28989604  0.25019178  1
  S  S61  1  0.14745094  0.29324748  0.75179776  1
  S  S62  1  0.49607913  0.70336575  0.75036116  1
  S  S63  1  0.35364773  0.00156472  0.74827080  1
  S  S64  1  0.48093383  0.33299157  0.58414014  1
  S  S65  1  0.97753980  0.33013190  0.58315006  1
  S  S66  1  0.83297842  0.62567114  0.58279767  1
  S  S67  1  0.47925675  0.62738946  0.08281961  1
  S  S68  1  0.98178846  0.62797451  0.08514321  1
  S  S69  1  0.33212300  0.04025469  0.08322664  1
  S  S70  1  0.31246747  0.66811954  0.91504149  1
  S  S71  1  0.81452769  0.66473939  0.91864291  1
  S  S72  1  0.01799484  0.37325354  0.91665158  1
  S  S73  1  0.66688785  0.95794031  0.91656637  1
  S  S74  1  0.31406754  0.96440110  0.41805015  1
  S  S75  1  0.81126664  0.95668028  0.41545651  1
  S  S76  1  0.16739969  0.37125303  0.41622533  1
  S  S77  1  0.51769867  0.66269452  0.41660534  1
  O  O78  1  0.10654073  0.02485445  0.30352886  1
  O  O79  1  0.60495504  0.02242075  0.30273643  1
  O  O80  1  0.41485552  0.80478164  0.30628867  1
  O  O81  1  0.90713082  0.78363882  0.30087748  1
  O  O82  1  0.48961393  0.18322388  0.30496811  1
  O  O83  1  0.98670060  0.18789456  0.30231142  1
  O  O84  1  0.10507899  0.18754313  0.80293556  1
  O  O85  1  0.60800122  0.18526433  0.81084444  1
  O  O86  1  0.48154927  0.77764961  0.80244152  1
  O  O87  1  0.99148935  0.79759566  0.80492700  1
  O  O88  1  0.40296769  0.02652963  0.80158111  1
  O  O89  1  0.91647368  0.02440538  0.80644527  1
  O  O90  1  0.39573152  0.98149953  0.69783520  1
  O  O91  1  0.90380559  0.97761469  0.69513737  1
  O  O92  1  0.09542815  0.21517945  0.70003657  1
  O  O93  1  0.57900533  0.18901983  0.69820210  1
  O  O94  1  0.01740591  0.82677676  0.69452395  1
  O  O95  1  0.50422741  0.80722105  0.69944661  1
  O  O96  1  0.40191415  0.82550153  0.19491517  1
  O  O97  1  0.89988998  0.81348569  0.19823896  1
  O  O98  1  0.00688654  0.20170706  0.19973168  1
  O  O99  1  0.51528890  0.20685397  0.19448055  1
  O  O100  1  0.08786383  0.97579084  0.20098952  1
  O  O101  1  0.59537932  0.97559677  0.19999743  1
  O  O102  1  0.44541421  0.36256606  0.63665358  1
  O  O103  1  0.94436635  0.36392434  0.63572162  1
  O  O104  1  0.24330057  0.11299128  0.63808801  1
  O  O105  1  0.74765209  0.11823671  0.63860772  1
  O  O106  1  0.31539036  0.52181645  0.64109359  1
  O  O107  1  0.81986997  0.52645748  0.63407219  1
  O  O108  1  0.44661421  0.52742399  0.13639132  1
  O  O109  1  0.94604093  0.52846427  0.13821413  1
  O  O110  1  0.31862970  0.11315055  0.13531476  1
  O  O111  1  0.81782632  0.10920561  0.14289190  1
  O  O112  1  0.24383622  0.36790446  0.14151569  1
  O  O113  1  0.74202646  0.37800206  0.13923478  1
  O  O114  1  0.23555405  0.31092275  0.02798670  1
  O  O115  1  0.72225977  0.30384020  0.02195132  1
  O  O116  1  0.42505970  0.54026098  0.03339682  1
  O  O117  1  0.92937176  0.55324558  0.03398029  1
  O  O118  1  0.34516586  0.14655499  0.03221176  1
  O  O119  1  0.85982500  0.15784300  0.02706095  1
  O  O120  1  0.22098650  0.13755769  0.52036682  1
  O  O121  1  0.73596638  0.16048714  0.52635054  1
  O  O122  1  0.35964666  0.56794674  0.52581101  1
  O  O123  1  0.84572558  0.54592287  0.53095224  1
  O  O124  1  0.42986516  0.30748857  0.53229009  1
  O  O125  1  0.92512898  0.31078430  0.53241927  1
  O  O126  1  0.26993770  0.69016761  0.96644258  1
  O  O127  1  0.77397323  0.69036122  0.96959351  1
  O  O128  1  0.07358824  0.46194953  0.96722871  1
  O  O129  1  0.58516388  0.47383131  0.96824919  1
  O  O130  1  0.15351022  0.83780919  0.97289021  1
  O  O131  1  0.66027169  0.85872353  0.96805682  1
  O  O132  1  0.27287925  0.85594814  0.46837703  1
  O  O133  1  0.76956356  0.84942765  0.46609740  1
  O  O134  1  0.15743349  0.45460613  0.46674745  1
  O  O135  1  0.65338494  0.46895488  0.47174170  1
  O  O136  1  0.08737138  0.69944163  0.46595954  1
  O  O137  1  0.57308464  0.68494733  0.46647533  1
  O  O138  1  0.06023171  0.63939169  0.35233757  1
  O  O139  1  0.55678757  0.64456874  0.36285871  1
  O  O140  1  0.26151038  0.89122149  0.36603348  1
  O  O141  1  0.76108284  0.88388841  0.36300228  1
  O  O142  1  0.17992306  0.47053675  0.36347437  1
  O  O143  1  0.68860577  0.48702655  0.36032388  1
  O  O144  1  0.05798687  0.47075518  0.86374054  1
  O  O145  1  0.55842605  0.48377153  0.85594857  1
  O  O146  1  0.18733687  0.88658163  0.86181646  1
  O  O147  1  0.67873866  0.88104375  0.86455346  1
  O  O148  1  0.26025279  0.63699775  0.86358651  1
  O  O149  1  0.76223232  0.63432192  0.86722301  1
  O  O150  1  0.01790879  0.84520930  0.41129308  1
  O  O151  1  0.51022425  0.81843272  0.41278148  1
  O  O152  1  0.39856796  0.97768460  0.41177754  1
  O  O153  1  0.89779112  0.97477510  0.41131943  1
  O  O154  1  0.08846914  0.19748392  0.41112215  1
  O  O155  1  0.58000681  0.17849405  0.41120158  1
  O  O156  1  0.01045993  0.20260171  0.91377777  1
  O  O157  1  0.51370433  0.18588800  0.91521222  1
  O  O158  1  0.07930106  0.98107751  0.91305759  1
  O  O159  1  0.58820336  0.97322626  0.91425591  1
  O  O160  1  0.39802852  0.82201501  0.91062683  1
  O  O161  1  0.89951435  0.82043531  0.91314155  1
  O  O162  1  0.49087646  0.18119690  0.58928898  1
  O  O163  1  0.98748835  0.17734532  0.58772992  1
  O  O164  1  0.08984267  0.02658170  0.58870061  1
  O  O165  1  0.59527013  0.02122493  0.58801530  1
  O  O166  1  0.41536226  0.82559728  0.59293612  1
  O  O167  1  0.90957404  0.80024520  0.58625951  1
  O  O168  1  0.48794850  0.79861899  0.08866683  1
  O  O169  1  0.99264798  0.80182478  0.09244317  1
  O  O170  1  0.40865930  0.01969009  0.08764059  1
  O  O171  1  0.91460068  0.00912275  0.09199332  1
  O  O172  1  0.09517670  0.16830935  0.09086634  1
  O  O173  1  0.59006283  0.15460621  0.09012928  1
  O  O174  1  0.34875145  0.16349689  0.74382038  1
  O  O175  1  0.85591229  0.17732331  0.74895720  1
  O  O176  1  0.23291819  0.31053170  0.74821613  1
  O  O177  1  0.73926949  0.31924841  0.74823399  1
  O  O178  1  0.42139999  0.52394679  0.74432509  1
  O  O179  1  0.91823612  0.51338667  0.74319454  1
  O  O180  1  0.34954986  0.52658454  0.24948882  1
  O  O181  1  0.85018495  0.53647074  0.24386363  1
  O  O182  1  0.41380593  0.31584662  0.24375592  1
  O  O183  1  0.92246578  0.31546358  0.24489039  1
  O  O184  1  0.23002382  0.14699893  0.24489969  1
  O  O185  1  0.73324521  0.15584891  0.24810168  1
  O  O186  1  0.32219503  0.51583828  0.92362444  1
  O  O187  1  0.82358406  0.50983384  0.92504624  1
  O  O188  1  0.42684497  0.35769148  0.92646640  1
  O  O189  1  0.93445722  0.36329101  0.92350731  1
  O  O190  1  0.24809443  0.14786855  0.92462822  1
  O  O191  1  0.74191840  0.13741290  0.91993123  1
  O  O192  1  0.32322637  0.13712768  0.42407082  1
  O  O193  1  0.82253070  0.12966364  0.42299903  1
  O  O194  1  0.24172729  0.34262762  0.41978011  1
  O  O195  1  0.74904787  0.34884853  0.42424456  1
  O  O196  1  0.43354722  0.50525991  0.42263459  1
  O  O197  1  0.92795480  0.49707500  0.42355672  1
  O  O198  1  0.17543869  0.50314125  0.07386011  1
  O  O199  1  0.67182900  0.49670170  0.07684130  1
  O  O200  1  0.06797283  0.64707379  0.07745365  1
  O  O201  1  0.56590369  0.64994846  0.07463784  1
  O  O202  1  0.25611296  0.86615028  0.07507954  1
  O  O203  1  0.74668131  0.85037712  0.07372948  1
  O  O204  1  0.17198938  0.84909769  0.57695765  1
  O  O205  1  0.67552122  0.84850399  0.57109800  1
  O  O206  1  0.24716964  0.64387954  0.57221606  1
  O  O207  1  0.75687007  0.64736810  0.57389809  1
  O  O208  1  0.06505175  0.48191232  0.57425047  1
  O  O209  1  0.56738164  0.48870614  0.57656619  1
  O  O210  1  0.14730717  0.83753039  0.25347688  1
  O  O211  1  0.65367349  0.84349970  0.25786495  1
  O  O212  1  0.25718376  0.69245001  0.25538727  1
  O  O213  1  0.77098533  0.69392562  0.25302765  1
  O  O214  1  0.07521864  0.46204937  0.25259345  1
  O  O215  1  0.58114715  0.49708807  0.25222427  1
  O  O216  1  0.15352001  0.46362806  0.75797152  1
  O  O217  1  0.64374623  0.47353434  0.75030855  1
  O  O218  1  0.08420746  0.67040848  0.75164158  1
  O  O219  1  0.57401257  0.69060415  0.75309538  1
  O  O220  1  0.26833669  0.84678915  0.75270060  1
  O  O221  1  0.75906196  0.82982905  0.75559722  1
