# generated using pymatgen
data_YCl3
_symmetry_space_group_name_H-M   'P 1'
_cell_length_a   6.58261304
_cell_length_b   6.91014209
_cell_length_c   6.91014359
_cell_angle_alpha   119.93373655
_cell_angle_beta   99.96943954
_cell_angle_gamma   99.96944833
_symmetry_Int_Tables_number   1
_chemical_formula_structural   YCl3
_chemical_formula_sum   'Y2 Cl6'
_cell_volume   255.57664118
_cell_formula_units_Z   2
loop_
 _symmetry_equiv_pos_site_id
 _symmetry_equiv_pos_as_xyz
  1  'x, y, z'
loop_
 _atom_site_type_symbol
 _atom_site_label
 _atom_site_symmetry_multiplicity
 _atom_site_fract_x
 _atom_site_fract_y
 _atom_site_fract_z
 _atom_site_occupancy
  Y  Y0  1  0.00000000  0.16641887  0.83358213  1
  Y  Y1  1  -0.00000000  0.83358213  0.16641887  1
  Cl  Cl2  1  0.23767139  0.94316028  0.57835387  1
  Cl  Cl3  1  0.76232861  0.42164613  0.05683972  1
  Cl  Cl4  1  0.75845698  0.78974359  0.78974359  1
  Cl  Cl5  1  0.24154302  0.21025641  0.21025641  1
  Cl  Cl6  1  0.23767139  0.57835387  0.94316028  1
  Cl  Cl7  1  0.76232861  0.05683972  0.42164613  1
