# generated using pymatgen
data_Na2LaAlSi(SO6)2
_symmetry_space_group_name_H-M   'P 1'
_cell_length_a   9.03602588
_cell_length_b   9.06386903
_cell_length_c   23.33643509
_cell_angle_alpha   89.56830342
_cell_angle_beta   88.84286000
_cell_angle_gamma   120.32986612
_symmetry_Int_Tables_number   1
_chemical_formula_structural   Na2LaAlSi(SO6)2
_chemical_formula_sum   'Na12 La6 Al6 Si6 S12 O72'
_cell_volume   1649.00799389
_cell_formula_units_Z   6
loop_
 _symmetry_equiv_pos_site_id
 _symmetry_equiv_pos_as_xyz
  1  'x, y, z'
loop_
 _atom_site_type_symbol
 _atom_site_label
 _atom_site_symmetry_multiplicity
 _atom_site_fract_x
 _atom_site_fract_y
 _atom_site_fract_z
 _atom_site_occupancy
  Na  Na0  1  0.99691336  0.62818601  0.25628303  1
  Na  Na1  1  0.38136841  0.01257493  0.74043266  1
  Na  Na2  1  0.65653091  0.95899540  0.59631582  1
  Na  Na3  1  0.03236629  0.33859650  0.10149052  1
  Na  Na4  1  0.99399003  0.67864853  0.93180614  1
  Na  Na5  1  0.32565106  0.02440540  0.41572455  1
  Na  Na6  1  0.01220570  0.98125485  0.50190859  1
  Na  Na7  1  0.02128866  0.98140162  0.00441898  1
  Na  Na8  1  0.67215910  0.30082775  0.82689422  1
  Na  Na9  1  0.67869944  0.33496221  0.33817141  1
  Na  Na10  1  0.33257151  0.65201382  0.17858852  1
  Na  Na11  1  0.33016593  0.66547127  0.65992340  1
  La  La12  1  0.99444382  0.01082726  0.84069358  1
  La  La13  1  0.00010636  0.98326472  0.16710846  1
  La  La14  1  0.64666951  0.31661411  0.98343004  1
  La  La15  1  0.33790437  0.69506924  0.02545896  1
  La  La16  1  0.31125786  0.67760261  0.51089634  1
  La  La17  1  0.36370446  0.68831921  0.80565044  1
  Al  Al18  1  0.96665162  0.98986622  0.34889516  1
  Al  Al19  1  0.01868641  0.99875409  0.64719800  1
  Al  Al20  1  0.66479740  0.32253254  0.67690942  1
  Al  Al21  1  0.69341420  0.32330713  0.19208308  1
  Al  Al22  1  0.68300473  0.36367655  0.49089863  1
  Al  Al23  1  0.28764855  0.62665707  0.32195374  1
  Si  Si24  1  0.00150994  0.29567800  0.25302933  1
  Si  Si25  1  0.71878350  0.02256074  0.73182609  1
  Si  Si26  1  0.38071715  0.07219024  0.58133967  1
  Si  Si27  1  0.94817029  0.62092472  0.09028436  1
  Si  Si28  1  0.32878350  0.98075048  0.90583782  1
  Si  Si29  1  0.01183033  0.67280089  0.41244937  1
  S  S30  1  0.32534530  0.99244194  0.25866936  1
  S  S31  1  0.67267924  0.68671553  0.26032503  1
  S  S32  1  0.31490678  0.29887398  0.73506536  1
  S  S33  1  0.98108029  0.69017001  0.73763830  1
  S  S34  1  0.93937109  0.32603393  0.58204753  1
  S  S35  1  0.68309967  0.62491138  0.58634559  1
  S  S36  1  0.66454790  0.03724421  0.09773167  1
  S  S37  1  0.37160561  0.33567981  0.09644246  1
  S  S38  1  0.64529778  0.66775733  0.91750031  1
  S  S39  1  0.03926746  0.36474249  0.91804690  1
  S  S40  1  0.63675251  0.96760943  0.41351659  1
  S  S41  1  0.31762180  0.35745441  0.41139588  1
  O  O42  1  0.23866656  0.02773274  0.30618751  1
  O  O43  1  0.81453324  0.79521576  0.30045970  1
  O  O44  1  0.98047187  0.14751387  0.29903863  1
  O  O45  1  0.26092389  0.21570552  0.79278718  1
  O  O46  1  0.95546168  0.74502852  0.79481645  1
  O  O47  1  0.78865943  0.02729452  0.79614925  1
  O  O48  1  0.84290285  0.00784776  0.68163622  1
  O  O49  1  0.19684723  0.18234093  0.69192655  1
  O  O50  1  0.01221273  0.82429303  0.69335460  1
  O  O51  1  0.71534896  0.77122994  0.20288336  1
  O  O52  1  0.03712582  0.24427178  0.18986109  1
  O  O53  1  0.21540319  0.93536636  0.20695030  1
  O  O54  1  0.85320968  0.33956239  0.63420253  1
  O  O55  1  0.49822252  0.15897309  0.63680907  1
  O  O56  1  0.67139651  0.51755300  0.63541898  1
  O  O57  1  0.82992745  0.49936023  0.14619254  1
  O  O58  1  0.66446935  0.14794593  0.14417392  1
  O  O59  1  0.46480173  0.31330020  0.14345226  1
  O  O60  1  0.44676086  0.33958092  0.03903550  1
  O  O61  1  0.87413806  0.54177434  0.02685073  1
  O  O62  1  0.65387661  0.10297919  0.04063321  1
  O  O63  1  0.48344129  0.18942809  0.52178306  1
  O  O64  1  0.69804189  0.54905604  0.53139353  1
  O  O65  1  0.84587683  0.32825317  0.52996504  1
  O  O66  1  0.54102535  0.64034732  0.96986752  1
  O  O67  1  0.12409940  0.45041756  0.97149176  1
  O  O68  1  0.32122505  0.86290082  0.96155505  1
  O  O69  1  0.59142955  0.88276936  0.47152025  1
  O  O70  1  0.29197713  0.42179815  0.46657942  1
  O  O71  1  0.14505759  0.75198514  0.46628492  1
  O  O72  1  0.11403287  0.62975641  0.36119496  1
  O  O73  1  0.50843773  0.85960366  0.37140564  1
  O  O74  1  0.33311453  0.47721434  0.36434389  1
  O  O75  1  0.14920573  0.45196351  0.86657917  1
  O  O76  1  0.32637924  0.88908565  0.84447212  1
  O  O77  1  0.55612694  0.67223202  0.86571242  1
  O  O78  1  0.99432690  0.83911416  0.39242410  1
  O  O79  1  0.81102283  0.99550362  0.39996116  1
  O  O80  1  0.16816385  0.18117471  0.40281436  1
  O  O81  1  0.99727032  0.18543994  0.92210562  1
  O  O82  1  0.14740254  0.97872077  0.91349608  1
  O  O83  1  0.80973467  0.83070670  0.92239256  1
  O  O84  1  0.94545091  0.16618997  0.58031959  1
  O  O85  1  0.18085807  0.03764864  0.59168910  1
  O  O86  1  0.83906948  0.80018571  0.58901810  1
  O  O87  1  0.97928299  0.81467803  0.09159451  1
  O  O88  1  0.82652365  0.03521060  0.09659586  1
  O  O89  1  0.19131986  0.18877874  0.09348497  1
  O  O90  1  0.68715069  0.18742347  0.72956884  1
  O  O91  1  0.49196957  0.32971794  0.72717164  1
  O  O92  1  0.83109969  0.52356520  0.72612000  1
  O  O93  1  0.67082531  0.52062585  0.25745124  1
  O  O94  1  0.83068822  0.32339968  0.24831215  1
  O  O95  1  0.49332721  0.15026157  0.24465892  1
  O  O96  1  0.68580814  0.52947552  0.90939115  1
  O  O97  1  0.87970599  0.37323455  0.91119618  1
  O  O98  1  0.49803348  0.16918121  0.90553500  1
  O  O99  1  0.64413633  0.13522215  0.41624191  1
  O  O100  1  0.47640356  0.34687186  0.41167973  1
  O  O101  1  0.82934998  0.49833721  0.43314442  1
  O  O102  1  0.36517106  0.49584212  0.10238106  1
  O  O103  1  0.13352174  0.62502760  0.09609399  1
  O  O104  1  0.51445255  0.86540170  0.10708261  1
  O  O105  1  0.37177750  0.88392126  0.57764065  1
  O  O106  1  0.52921073  0.64461238  0.58543616  1
  O  O107  1  0.11602318  0.47469016  0.58238212  1
  O  O108  1  0.34968514  0.84451264  0.27281350  1
  O  O109  1  0.50617534  0.66449005  0.27874598  1
  O  O110  1  0.16228089  0.49154613  0.26552304  1
  O  O111  1  0.31630174  0.46177531  0.73253092  1
  O  O112  1  0.14030686  0.67906777  0.73659330  1
  O  O113  1  0.52306782  0.85309529  0.72681585  1
