# generated using pymatgen
data_Na7Sc2Zn2P5SO24
_symmetry_space_group_name_H-M   'P 1'
_cell_length_a   9.05480553
_cell_length_b   9.06562105
_cell_length_c   22.18488851
_cell_angle_alpha   90.02252974
_cell_angle_beta   89.92382978
_cell_angle_gamma   120.07396902
_symmetry_Int_Tables_number   1
_chemical_formula_structural   Na7Sc2Zn2P5SO24
_chemical_formula_sum   'Na21 Sc6 Zn6 P15 S3 O72'
_cell_volume   1575.94107997
_cell_formula_units_Z   3
loop_
 _symmetry_equiv_pos_site_id
 _symmetry_equiv_pos_as_xyz
  1  'x, y, z'
loop_
 _atom_site_type_symbol
 _atom_site_label
 _atom_site_symmetry_multiplicity
 _atom_site_fract_x
 _atom_site_fract_y
 _atom_site_fract_z
 _atom_site_occupancy
  Na  Na0  1  0.63852295  0.99415959  0.25220041  1
  Na  Na1  1  0.00161036  0.63034437  0.25499688  1
  Na  Na2  1  0.63146199  0.63939437  0.74904767  1
  Na  Na3  1  0.00922177  0.36996916  0.75244118  1
  Na  Na4  1  0.36214864  0.99204950  0.75259210  1
  Na  Na5  1  0.29552383  0.33292942  0.58626313  1
  Na  Na6  1  0.03812997  0.70517219  0.58290149  1
  Na  Na7  1  0.66915770  0.96079975  0.58395525  1
  Na  Na8  1  0.29528264  0.96178789  0.08068156  1
  Na  Na9  1  0.66646357  0.70302996  0.08663245  1
  Na  Na10  1  0.03942929  0.33379659  0.08451152  1
  Na  Na11  1  0.98289808  0.66882519  0.91671894  1
  Na  Na12  1  0.32899805  0.30075310  0.92001494  1
  Na  Na13  1  0.96734637  0.30826706  0.41427843  1
  Na  Na14  1  0.69872254  0.67154150  0.41945342  1
  Na  Na15  1  0.00775440  0.99366227  0.50424309  1
  Na  Na16  1  0.99598428  0.00674275  0.00354629  1
  Na  Na17  1  0.66850532  0.31241246  0.83441556  1
  Na  Na18  1  0.65462352  0.32649879  0.33326648  1
  Na  Na19  1  0.33435764  0.64493479  0.16852847  1
  Na  Na20  1  0.33371508  0.66733886  0.66630378  1
  Sc  Sc21  1  0.99486441  0.99536937  0.34991876  1
  Sc  Sc22  1  0.00040067  0.00569880  0.84936250  1
  Sc  Sc23  1  0.66735466  0.33370463  0.68347936  1
  Sc  Sc24  1  0.66689345  0.33777936  0.18377037  1
  Sc  Sc25  1  0.66765061  0.32296231  0.98343444  1
  Sc  Sc26  1  0.66663074  0.32689968  0.48344276  1
  Zn  Zn27  1  0.99949467  0.00070280  0.65312237  1
  Zn  Zn28  1  0.99326539  0.00557377  0.15187912  1
  Zn  Zn29  1  0.32449140  0.66810389  0.01548184  1
  Zn  Zn30  1  0.33490431  0.68311091  0.51481250  1
  Zn  Zn31  1  0.33290529  0.66193330  0.31924903  1
  Zn  Zn32  1  0.32736092  0.67248844  0.81892074  1
  P  P33  1  0.69833606  0.70111558  0.24887191  1
  P  P34  1  0.00365122  0.30153253  0.24927215  1
  P  P35  1  0.29906036  0.30063717  0.74920280  1
  P  P36  1  -0.00014638  0.70353769  0.74897085  1
  P  P37  1  0.70169716  0.99755253  0.74735092  1
  P  P38  1  0.96779271  0.33398902  0.58294320  1
  P  P39  1  0.36889866  0.03670965  0.58495619  1
  P  P40  1  0.66486877  0.63000441  0.58209904  1
  P  P41  1  0.96373853  0.63189701  0.08301066  1
  P  P42  1  0.66441255  0.03278309  0.08575314  1
  P  P43  1  0.37033424  0.33357087  0.08139909  1
  P  P44  1  0.03825552  0.37079814  0.91653957  1
  P  P45  1  0.33299257  0.96584194  0.91607310  1
  P  P46  1  0.62896990  0.96291286  0.41510468  1
  P  P47  1  0.03605935  0.66755448  0.41654518  1
  S  S48  1  0.29576903  0.00090676  0.24786511  1
  S  S49  1  0.63167036  0.66731735  0.91702924  1
  S  S50  1  0.33320357  0.36971685  0.41785112  1
  O  O51  1  0.20719192  0.01793592  0.30119979  1
  O  O52  1  0.81506660  0.79138391  0.30470695  1
  O  O53  1  0.98297557  0.18836333  0.30514962  1
  O  O54  1  0.21123109  0.18677307  0.80531467  1
  O  O55  1  0.97589863  0.79044979  0.80562501  1
  O  O56  1  0.82200572  0.02412345  0.80088296  1
  O  O57  1  0.77686642  0.97055821  0.68886341  1
  O  O58  1  0.19009047  0.22039282  0.69248914  1
  O  O59  1  0.02435832  0.81052293  0.69217740  1
  O  O60  1  0.78319542  0.80838484  0.19186085  1
  O  O61  1  0.02305891  0.22050993  0.19109712  1
  O  O62  1  0.19886886  0.98355318  0.19228670  1
  O  O63  1  0.87702404  0.35460126  0.63924427  1
  O  O64  1  0.47453394  0.12165197  0.64269815  1
  O  O65  1  0.64498270  0.52015532  0.63885464  1
  O  O66  1  0.87385151  0.51999504  0.13933883  1
  O  O67  1  0.64194865  0.11717341  0.14328901  1
  O  O68  1  0.48775257  0.35379524  0.13526139  1
  O  O69  1  0.45537351  0.31303646  0.02351764  1
  O  O70  1  0.85275257  0.54323378  0.02665423  1
  O  O71  1  0.68712415  0.15088406  0.03179409  1
  O  O72  1  0.46537710  0.15297132  0.53096298  1
  O  O73  1  0.68370097  0.53835061  0.52586495  1
  O  O74  1  0.85669971  0.31391654  0.52669271  1
  O  O75  1  0.55224274  0.68572127  0.97216297  1
  O  O76  1  0.14930334  0.45007494  0.97319231  1
  O  O77  1  0.30644095  0.85761312  0.97288779  1
  O  O78  1  0.55241415  0.85201879  0.47188628  1
  O  O79  1  0.30595176  0.44326804  0.47342848  1
  O  O80  1  0.13453863  0.68550479  0.47497581  1
  O  O81  1  0.11799633  0.63791487  0.36031601  1
  O  O82  1  0.52720027  0.88053754  0.35756213  1
  O  O83  1  0.36137446  0.47868754  0.36501923  1
  O  O84  1  0.11895407  0.47873205  0.85934003  1
  O  O85  1  0.35580654  0.88654608  0.85815848  1
  O  O86  1  0.52941598  0.64622163  0.86256596  1
  O  O87  1  0.01074231  0.82537535  0.41114903  1
  O  O88  1  0.81460103  0.98653989  0.41068700  1
  O  O89  1  0.17765395  0.19801161  0.41067233  1
  O  O90  1  0.01952367  0.19083086  0.91106992  1
  O  O91  1  0.16713246  0.98121607  0.91213462  1
  O  O92  1  0.80825769  0.81744487  0.91281090  1
  O  O93  1  0.98162818  0.17084465  0.58528960  1
  O  O94  1  0.19053957  0.02017679  0.58638819  1
  O  O95  1  0.82857388  0.80700563  0.58453691  1
  O  O96  1  0.98136777  0.81048936  0.08679835  1
  O  O97  1  0.82818096  0.01870526  0.08638302  1
  O  O98  1  0.19244708  0.17038373  0.08594230  1
  O  O99  1  0.68686658  0.16240201  0.74600772  1
  O  O100  1  0.47781013  0.31387679  0.74633043  1
  O  O101  1  0.83532086  0.52341920  0.74637138  1
  O  O102  1  0.68914758  0.52481341  0.24647795  1
  O  O103  1  0.83266139  0.30890314  0.24795501  1
  O  O104  1  0.47089588  0.15416603  0.24715912  1
  O  O105  1  0.64911326  0.51006380  0.91994226  1
  O  O106  1  0.86076811  0.35915927  0.92193316  1
  O  O107  1  0.48763375  0.15117060  0.92044021  1
  O  O108  1  0.65611983  0.14632418  0.42032651  1
  O  O109  1  0.48896563  0.35283822  0.42186199  1
  O  O110  1  0.85100929  0.50558717  0.41994376  1
  O  O111  1  0.35531653  0.49643953  0.07974219  1
  O  O112  1  0.14110090  0.64524809  0.08054291  1
  O  O113  1  0.50300993  0.85484126  0.07981533  1
  O  O114  1  0.35558767  0.85961838  0.58105357  1
  O  O115  1  0.50176529  0.64463205  0.57953247  1
  O  O116  1  0.14566336  0.49651226  0.57967234  1
  O  O117  1  0.31249486  0.84587778  0.25247330  1
  O  O118  1  0.52294926  0.68873798  0.25513976  1
  O  O119  1  0.15512560  0.48534613  0.25445755  1
  O  O120  1  0.32277828  0.48133419  0.75562093  1
  O  O121  1  0.15858373  0.68127612  0.75307212  1
  O  O122  1  0.52219051  0.83848257  0.75490508  1
