# generated using pymatgen
data_NaMgNb3(PO4)6
_symmetry_space_group_name_H-M   'P 1'
_cell_length_a   8.77432925
_cell_length_b   8.77432897
_cell_length_c   22.78057243
_cell_angle_alpha   90.00000000
_cell_angle_beta   90.00000000
_cell_angle_gamma   120.00000108
_symmetry_Int_Tables_number   1
_chemical_formula_structural   NaMgNb3(PO4)6
_chemical_formula_sum   'Na3 Mg3 Nb9 P18 O72'
_cell_volume   1518.87872870
_cell_formula_units_Z   3
loop_
 _symmetry_equiv_pos_site_id
 _symmetry_equiv_pos_as_xyz
  1  'x, y, z'
loop_
 _atom_site_type_symbol
 _atom_site_label
 _atom_site_symmetry_multiplicity
 _atom_site_fract_x
 _atom_site_fract_y
 _atom_site_fract_z
 _atom_site_occupancy
  Na  Na0  1  0.00000000  -0.00000000  0.98590601  1
  Na  Na1  1  0.66666700  0.33333300  0.84294296  1
  Na  Na2  1  0.66666700  0.33333300  0.34157929  1
  Mg  Mg3  1  0.00000000  -0.00000000  0.85517759  1
  Mg  Mg4  1  0.66666700  0.33333300  0.97636030  1
  Mg  Mg5  1  0.66666700  0.33333300  0.47952944  1
  Nb  Nb6  1  0.00000000  -0.00000000  0.36113087  1
  Nb  Nb7  1  0.00000000  -0.00000000  0.64593722  1
  Nb  Nb8  1  0.00000000  -0.00000000  0.14306182  1
  Nb  Nb9  1  0.66666700  0.33333300  0.68844755  1
  Nb  Nb10  1  0.66666700  0.33333300  0.18500169  1
  Nb  Nb11  1  0.33333300  0.66666700  0.01809442  1
  Nb  Nb12  1  0.33333300  0.66666700  0.52723354  1
  Nb  Nb13  1  0.33333300  0.66666700  0.31083509  1
  Nb  Nb14  1  0.33333300  0.66666700  0.81143437  1
  P  P15  1  0.28568410  0.00262654  0.25106630  1
  P  P16  1  0.71694243  0.71431590  0.25106630  1
  P  P17  1  0.99737346  0.28305757  0.25106630  1
  P  P18  1  0.28466183  0.28415698  0.75227615  1
  P  P19  1  0.99949515  0.71533817  0.75227615  1
  P  P20  1  0.71584302  0.00050485  0.75227615  1
  P  P21  1  0.94670710  0.32833096  0.58118659  1
  P  P22  1  0.38162486  0.05329290  0.58118659  1
  P  P23  1  0.67166904  0.61837514  0.58118659  1
  P  P24  1  0.95421527  0.61845524  0.08070722  1
  P  P25  1  0.66424098  0.04578473  0.08070722  1
  P  P26  1  0.38154476  0.33575902  0.08070722  1
  P  P27  1  0.62688289  0.66706627  0.91571403  1
  P  P28  1  0.04018238  0.37311711  0.91571403  1
  P  P29  1  0.33293373  0.95981762  0.91571403  1
  P  P30  1  0.61500873  0.95547151  0.41731543  1
  P  P31  1  0.34046178  0.38499127  0.41731543  1
  P  P32  1  0.04452849  0.65953822  0.41731543  1
  O  O33  1  0.19926494  0.03116491  0.30543763  1
  O  O34  1  0.83189997  0.80073506  0.30543763  1
  O  O35  1  0.96883509  0.16810003  0.30543763  1
  O  O36  1  0.21284233  0.17198413  0.80538308  1
  O  O37  1  0.95914180  0.78715767  0.80538308  1
  O  O38  1  0.82801587  0.04085820  0.80538308  1
  O  O39  1  0.80166047  0.97510081  0.69551522  1
  O  O40  1  0.17344034  0.19833953  0.69551522  1
  O  O41  1  0.02489919  0.82655966  0.69551522  1
  O  O42  1  0.80108682  0.82696549  0.19596700  1
  O  O43  1  0.02587867  0.19891318  0.19596700  1
  O  O44  1  0.17303451  0.97412133  0.19596700  1
  O  O45  1  0.86651687  0.36315441  0.63705727  1
  O  O46  1  0.49663854  0.13348313  0.63705727  1
  O  O47  1  0.63684559  0.50336146  0.63705727  1
  O  O48  1  0.86275674  0.50569108  0.13847730  1
  O  O49  1  0.64293534  0.13724326  0.13847730  1
  O  O50  1  0.49430892  0.35706466  0.13847730  1
  O  O51  1  0.45527087  0.29243672  0.02890998  1
  O  O52  1  0.83716685  0.54472913  0.02890998  1
  O  O53  1  0.70756328  0.16283315  0.02890998  1
  O  O54  1  0.45508247  0.15856909  0.52689959  1
  O  O55  1  0.70348761  0.54491753  0.52689959  1
  O  O56  1  0.84143091  0.29651239  0.52689959  1
  O  O57  1  0.52519459  0.68594689  0.97185513  1
  O  O58  1  0.16075130  0.47480541  0.97185513  1
  O  O59  1  0.31405311  0.83924870  0.97185513  1
  O  O60  1  0.53249369  0.83735765  0.47122804  1
  O  O61  1  0.30486296  0.46750631  0.47122804  1
  O  O62  1  0.16264235  0.69513704  0.47122804  1
  O  O63  1  0.14183310  0.64498420  0.36135100  1
  O  O64  1  0.50315011  0.85816690  0.36135100  1
  O  O65  1  0.35501580  0.49684989  0.36135100  1
  O  O66  1  0.14161208  0.49361429  0.86141834  1
  O  O67  1  0.35200121  0.85838792  0.86141834  1
  O  O68  1  0.50638571  0.64799879  0.86141834  1
  O  O69  1  0.03436658  0.83245033  0.40611665  1
  O  O70  1  0.79808375  0.96563342  0.40611665  1
  O  O71  1  0.16754967  0.20191625  0.40611665  1
  O  O72  1  0.03653083  0.20009829  0.91346409  1
  O  O73  1  0.16356746  0.96346917  0.91346409  1
  O  O74  1  0.79990171  0.83643254  0.91346409  1
  O  O75  1  0.97951554  0.17399891  0.59529552  1
  O  O76  1  0.19448338  0.02048446  0.59529552  1
  O  O77  1  0.82600109  0.80551662  0.59529552  1
  O  O78  1  0.97833022  0.80659940  0.09502033  1
  O  O79  1  0.82826918  0.02166978  0.09502033  1
  O  O80  1  0.19340060  0.17173082  0.09502033  1
  O  O81  1  0.68773119  0.16183150  0.73883222  1
  O  O82  1  0.47410131  0.31226881  0.73883222  1
  O  O83  1  0.83816850  0.52589869  0.73883222  1
  O  O84  1  0.69361581  0.52820103  0.24307828  1
  O  O85  1  0.83458622  0.30638419  0.24307828  1
  O  O86  1  0.47179897  0.16541378  0.24307828  1
  O  O87  1  0.62998935  0.49750832  0.92037216  1
  O  O88  1  0.86751997  0.37001065  0.92037216  1
  O  O89  1  0.50249168  0.13248003  0.92037216  1
  O  O90  1  0.63911877  0.13639795  0.41961452  1
  O  O91  1  0.49728018  0.36088123  0.41961452  1
  O  O92  1  0.86360205  0.50271982  0.41961452  1
  O  O93  1  0.35775911  0.49639538  0.07680843  1
  O  O94  1  0.13863527  0.64224089  0.07680843  1
  O  O95  1  0.50360462  0.86136473  0.07680843  1
  O  O96  1  0.35898444  0.86313822  0.57369986  1
  O  O97  1  0.50415278  0.64101556  0.57369986  1
  O  O98  1  0.13686178  0.49584722  0.57369986  1
  O  O99  1  0.30627950  0.83908257  0.25989716  1
  O  O100  1  0.53280207  0.69372050  0.25989716  1
  O  O101  1  0.16091743  0.46719793  0.25989716  1
  O  O102  1  0.30916772  0.47134003  0.75803343  1
  O  O103  1  0.16217131  0.69083228  0.75803343  1
  O  O104  1  0.52865997  0.83782869  0.75803343  1
