# generated using pymatgen
data_KEu2I5
_symmetry_space_group_name_H-M   'P 1'
_cell_length_a   8.97251650
_cell_length_b   9.95687914
_cell_length_c   14.32511746
_cell_angle_alpha   90.04284427
_cell_angle_beta   90.00000000
_cell_angle_gamma   90.00000000
_symmetry_Int_Tables_number   1
_chemical_formula_structural   KEu2I5
_chemical_formula_sum   'K4 Eu8 I20'
_cell_volume   1279.78074412
_cell_formula_units_Z   4
loop_
 _symmetry_equiv_pos_site_id
 _symmetry_equiv_pos_as_xyz
  1  'x, y, z'
loop_
 _atom_site_type_symbol
 _atom_site_label
 _atom_site_symmetry_multiplicity
 _atom_site_fract_x
 _atom_site_fract_y
 _atom_site_fract_z
 _atom_site_occupancy
  K  K0  1  0.95287331  0.50675401  0.17078857  1
  K  K1  1  0.45287331  0.49324599  0.32921143  1
  K  K2  1  0.04712669  0.49324599  0.82921143  1
  K  K3  1  0.54712669  0.50675401  0.67078857  1
  Eu  Eu4  1  0.97516861  0.00323289  0.17997672  1
  Eu  Eu5  1  0.92576475  0.24954139  0.49456186  1
  Eu  Eu6  1  0.42576475  0.75045861  0.00543814  1
  Eu  Eu7  1  0.07423525  0.75045861  0.50543814  1
  Eu  Eu8  1  0.57423525  0.24954139  0.99456186  1
  Eu  Eu9  1  0.52483139  0.00323289  0.67997672  1
  Eu  Eu10  1  0.02483139  0.99676711  0.82002328  1
  Eu  Eu11  1  0.47516861  0.99676711  0.32002328  1
  I  I12  1  0.18916487  0.76734944  0.28332703  1
  I  I13  1  0.83368240  0.77906972  0.68196487  1
  I  I14  1  0.33368240  0.22093028  0.81803513  1
  I  I15  1  0.16631760  0.22093028  0.31803513  1
  I  I16  1  0.66631760  0.77906972  0.18196487  1
  I  I17  1  0.81083513  0.23265056  0.71667297  1
  I  I18  1  0.31083513  0.76734944  0.78332703  1
  I  I19  1  0.95701183  0.21933256  0.99757366  1
  I  I20  1  0.83761107  0.95856972  0.40092002  1
  I  I21  1  0.33761107  0.04143028  0.09907998  1
  I  I22  1  0.16238893  0.04143028  0.59907998  1
  I  I23  1  0.66238893  0.95856972  0.90092002  1
  I  I24  1  0.04298817  0.78066744  0.00242634  1
  I  I25  1  0.45701183  0.78066744  0.50242634  1
  I  I26  1  0.67438161  0.53788135  0.91303277  1
  I  I27  1  0.54298817  0.21933256  0.49757366  1
  I  I28  1  0.82561839  0.53788135  0.41303277  1
  I  I29  1  0.32561839  0.46211865  0.08696723  1
  I  I30  1  0.17438161  0.46211865  0.58696723  1
  I  I31  1  0.68916487  0.23265056  0.21667297  1
