# generated using pymatgen
data_MgV2(MoO5)2
_symmetry_space_group_name_H-M   'P 1'
_cell_length_a   5.19357684
_cell_length_b   6.93561691
_cell_length_c   6.92800641
_cell_angle_alpha   90.57583932
_cell_angle_beta   88.68526803
_cell_angle_gamma   88.77873987
_symmetry_Int_Tables_number   1
_chemical_formula_structural   MgV2(MoO5)2
_chemical_formula_sum   'Mg1 V2 Mo2 O10'
_cell_volume   249.41512407
_cell_formula_units_Z   1
loop_
 _symmetry_equiv_pos_site_id
 _symmetry_equiv_pos_as_xyz
  1  'x, y, z'
loop_
 _atom_site_type_symbol
 _atom_site_label
 _atom_site_symmetry_multiplicity
 _atom_site_fract_x
 _atom_site_fract_y
 _atom_site_fract_z
 _atom_site_occupancy
  Mg  Mg0  1  0.99517700  0.99737500  0.00005400  1
  V  V1  1  0.76383200  0.24385900  0.24590400  1
  V  V2  1  0.22656100  0.75069300  0.75402700  1
  Mo  Mo3  1  0.49546600  0.24739000  0.74982800  1
  Mo  Mo4  1  0.49555600  0.74720300  0.25008600  1
  O  O5  1  0.72121300  0.21381400  0.95416300  1
  O  O6  1  0.65468400  0.50857500  0.23352200  1
  O  O7  1  0.72095300  0.95205100  0.21606700  1
  O  O8  1  0.65488000  0.23080400  0.51088700  1
  O  O9  1  0.08540000  0.21804800  0.22005500  1
  O  O10  1  0.90521900  0.77665800  0.78039300  1
  O  O11  1  0.33611500  0.76367100  0.48907400  1
  O  O12  1  0.26950600  0.04277600  0.78372600  1
  O  O13  1  0.33644900  0.48610300  0.76637600  1
  O  O14  1  0.26954600  0.78098200  0.04583900  1
