# generated using pymatgen
data_NaHf3Nb(PO4)6
_symmetry_space_group_name_H-M   'P 1'
_cell_length_a   8.84704317
_cell_length_b   8.84704288
_cell_length_c   23.03118992
_cell_angle_alpha   90.00000000
_cell_angle_beta   90.00000000
_cell_angle_gamma   120.00000111
_symmetry_Int_Tables_number   1
_chemical_formula_structural   NaHf3Nb(PO4)6
_chemical_formula_sum   'Na3 Hf9 Nb3 P18 O72'
_cell_volume   1561.14514337
_cell_formula_units_Z   3
loop_
 _symmetry_equiv_pos_site_id
 _symmetry_equiv_pos_as_xyz
  1  'x, y, z'
loop_
 _atom_site_type_symbol
 _atom_site_label
 _atom_site_symmetry_multiplicity
 _atom_site_fract_x
 _atom_site_fract_y
 _atom_site_fract_z
 _atom_site_occupancy
  Na  Na0  1  0.00000000  0.00000000  0.99883405  1
  Na  Na1  1  0.66666700  0.33333300  0.83399790  1
  Na  Na2  1  0.66666700  0.33333300  0.33314467  1
  Hf  Hf3  1  0.00000000  0.00000000  0.35754011  1
  Hf  Hf4  1  0.00000000  0.00000000  0.85420304  1
  Hf  Hf5  1  0.66666700  0.33333300  0.68674343  1
  Hf  Hf6  1  0.66666700  0.33333300  0.18635388  1
  Hf  Hf7  1  0.66666700  0.33333300  0.97958852  1
  Hf  Hf8  1  0.66666700  0.33333300  0.47986493  1
  Hf  Hf9  1  0.33333300  0.66666700  0.02213762  1
  Hf  Hf10  1  0.33333300  0.66666700  0.30933913  1
  Hf  Hf11  1  0.33333300  0.66666700  0.81034269  1
  Nb  Nb12  1  0.00000000  0.00000000  0.64501980  1
  Nb  Nb13  1  0.00000000  0.00000000  0.14691197  1
  Nb  Nb14  1  0.33333300  0.66666700  0.52150989  1
  P  P15  1  0.28754245  0.00157132  0.25071123  1
  P  P16  1  0.71402887  0.71245755  0.25071123  1
  P  P17  1  0.99842868  0.28597113  0.25071123  1
  P  P18  1  0.28749986  0.28672068  0.74977799  1
  P  P19  1  0.99922082  0.71250014  0.74977799  1
  P  P20  1  0.71327932  0.00077918  0.74977799  1
  P  P21  1  0.95615977  0.33342651  0.58333389  1
  P  P22  1  0.37726774  0.04384023  0.58333389  1
  P  P23  1  0.66657349  0.62273226  0.58333389  1
  P  P24  1  0.95580526  0.62331585  0.08355874  1
  P  P25  1  0.66751159  0.04419474  0.08355874  1
  P  P26  1  0.37668415  0.33248841  0.08355874  1
  P  P27  1  0.62119526  0.66637708  0.91661855  1
  P  P28  1  0.04518082  0.37880474  0.91661855  1
  P  P29  1  0.33362292  0.95481918  0.91661855  1
  P  P30  1  0.61826476  0.95307644  0.41642226  1
  P  P31  1  0.33481067  0.38173524  0.41642226  1
  P  P32  1  0.04692356  0.66518933  0.41642226  1
  O  O33  1  0.20203435  0.03124834  0.30403091  1
  O  O34  1  0.82921400  0.79796565  0.30403091  1
  O  O35  1  0.96875166  0.17078600  0.30403091  1
  O  O36  1  0.20380791  0.17195849  0.80347492  1
  O  O37  1  0.96815058  0.79619209  0.80347492  1
  O  O38  1  0.82804151  0.03184942  0.80347492  1
  O  O39  1  0.80505031  0.97681546  0.69537537  1
  O  O40  1  0.17176515  0.19494969  0.69537537  1
  O  O41  1  0.02318454  0.82823485  0.69537537  1
  O  O42  1  0.80464149  0.82817190  0.19582255  1
  O  O43  1  0.02353041  0.19535851  0.19582255  1
  O  O44  1  0.17182810  0.97646959  0.19582255  1
  O  O45  1  0.87468739  0.36568764  0.63723224  1
  O  O46  1  0.49100125  0.12531261  0.63723224  1
  O  O47  1  0.63431236  0.50899875  0.63723224  1
  O  O48  1  0.87036755  0.51176355  0.13773149  1
  O  O49  1  0.64139701  0.12963245  0.13773149  1
  O  O50  1  0.48823645  0.35860299  0.13773149  1
  O  O51  1  0.45724062  0.29727502  0.02958105  1
  O  O52  1  0.84003539  0.54275938  0.02958105  1
  O  O53  1  0.70272498  0.15996461  0.02958105  1
  O  O54  1  0.45866901  0.15769248  0.52940837  1
  O  O55  1  0.69902447  0.54133099  0.52940837  1
  O  O56  1  0.84230752  0.30097553  0.52940837  1
  O  O57  1  0.53836218  0.69483644  0.97107089  1
  O  O58  1  0.15647327  0.46163782  0.97107089  1
  O  O59  1  0.30516356  0.84352673  0.97107089  1
  O  O60  1  0.52838335  0.83842478  0.47120505  1
  O  O61  1  0.31004043  0.47161665  0.47120505  1
  O  O62  1  0.16157522  0.68995957  0.47120505  1
  O  O63  1  0.13075300  0.63494080  0.36275755  1
  O  O64  1  0.50418680  0.86924700  0.36275755  1
  O  O65  1  0.36505920  0.49581320  0.36275755  1
  O  O66  1  0.12866691  0.49037556  0.86205814  1
  O  O67  1  0.36170766  0.87133309  0.86205814  1
  O  O68  1  0.50962444  0.63829234  0.86205814  1
  O  O69  1  0.02876317  0.82720957  0.40925114  1
  O  O70  1  0.79844640  0.97123683  0.40925114  1
  O  O71  1  0.17279043  0.20155360  0.40925114  1
  O  O72  1  0.02380086  0.19485242  0.90985664  1
  O  O73  1  0.17105155  0.97619914  0.90985664  1
  O  O74  1  0.80514758  0.82894845  0.90985664  1
  O  O75  1  0.97936856  0.17323253  0.59469365  1
  O  O76  1  0.19386397  0.02063144  0.59469365  1
  O  O77  1  0.82676747  0.80613603  0.59469365  1
  O  O78  1  0.97553904  0.80852137  0.09291107  1
  O  O79  1  0.83298233  0.02446096  0.09291107  1
  O  O80  1  0.19147863  0.16701767  0.09291107  1
  O  O81  1  0.69384174  0.16341046  0.74134683  1
  O  O82  1  0.46956971  0.30615826  0.74134683  1
  O  O83  1  0.83658954  0.53043029  0.74134683  1
  O  O84  1  0.69365137  0.53047969  0.24204541  1
  O  O85  1  0.83682932  0.30634863  0.24204541  1
  O  O86  1  0.46952031  0.16317068  0.24204541  1
  O  O87  1  0.64254399  0.50371381  0.92358704  1
  O  O88  1  0.86117082  0.35745601  0.92358704  1
  O  O89  1  0.49628619  0.13882918  0.92358704  1
  O  O90  1  0.63941352  0.13591236  0.42516368  1
  O  O91  1  0.49649984  0.36058648  0.42516368  1
  O  O92  1  0.86408764  0.50350016  0.42516368  1
  O  O93  1  0.35347597  0.48990838  0.07463479  1
  O  O94  1  0.13643141  0.64652403  0.07463479  1
  O  O95  1  0.51009162  0.86356859  0.07463479  1
  O  O96  1  0.35396595  0.86047064  0.57196976  1
  O  O97  1  0.50650369  0.64603405  0.57196976  1
  O  O98  1  0.13952936  0.49349631  0.57196976  1
  O  O99  1  0.30431335  0.83902996  0.25754613  1
  O  O100  1  0.53471560  0.69568665  0.25754613  1
  O  O101  1  0.16097004  0.46528440  0.25754613  1
  O  O102  1  0.30485958  0.46593090  0.75720081  1
  O  O103  1  0.16107032  0.69514042  0.75720081  1
  O  O104  1  0.53406910  0.83892968  0.75720081  1
