# generated using pymatgen
data_Na5MgTi3SiP5O24
_symmetry_space_group_name_H-M   'P 1'
_cell_length_a   8.82427038
_cell_length_b   8.77137007
_cell_length_c   22.15184913
_cell_angle_alpha   90.00824473
_cell_angle_beta   90.27471682
_cell_angle_gamma   119.79813535
_symmetry_Int_Tables_number   1
_chemical_formula_structural   Na5MgTi3SiP5O24
_chemical_formula_sum   'Na15 Mg3 Ti9 Si3 P15 O72'
_cell_volume   1487.85237947
_cell_formula_units_Z   3
loop_
 _symmetry_equiv_pos_site_id
 _symmetry_equiv_pos_as_xyz
  1  'x, y, z'
loop_
 _atom_site_type_symbol
 _atom_site_label
 _atom_site_symmetry_multiplicity
 _atom_site_fract_x
 _atom_site_fract_y
 _atom_site_fract_z
 _atom_site_occupancy
  Na  Na0  1  0.63949606  0.00739260  0.24671772  1
  Na  Na1  1  0.36877719  0.36154466  0.24641031  1
  Na  Na2  1  0.99250755  0.63243192  0.24679190  1
  Na  Na3  1  0.63356809  0.62949833  0.74779315  1
  Na  Na4  1  0.99537957  0.36603968  0.74785590  1
  Na  Na5  1  0.37366993  0.00626976  0.74676569  1
  Na  Na6  1  0.66403394  0.97165868  0.58410651  1
  Na  Na7  1  0.33433893  0.30083498  0.92006615  1
  Na  Na8  1  0.32859803  0.03294420  0.41460104  1
  Na  Na9  1  0.99778993  0.00008227  0.49577934  1
  Na  Na10  1  0.99295712  0.99360403  0.00261132  1
  Na  Na11  1  0.67340371  0.33385055  0.83701021  1
  Na  Na12  1  0.67546477  0.34112114  0.33308381  1
  Na  Na13  1  0.33345312  0.66739244  0.16106014  1
  Na  Na14  1  0.32634752  0.66170714  0.66306985  1
  Mg  Mg15  1  0.99399385  0.99916217  0.35331856  1
  Mg  Mg16  1  0.66675001  0.33218143  0.68234737  1
  Mg  Mg17  1  0.66678499  0.33407094  0.18132482  1
  Ti  Ti18  1  0.99028792  0.99537502  0.85811927  1
  Ti  Ti19  1  0.01109829  0.00081297  0.64262202  1
  Ti  Ti20  1  0.99900486  0.00164612  0.14376903  1
  Ti  Ti21  1  0.67963678  0.33988142  0.98250710  1
  Ti  Ti22  1  0.66465434  0.33507782  0.48239405  1
  Ti  Ti23  1  0.33732603  0.66223284  0.02043081  1
  Ti  Ti24  1  0.32791246  0.66513137  0.51956970  1
  Ti  Ti25  1  0.33248713  0.66474827  0.31576745  1
  Ti  Ti26  1  0.33067117  0.66310812  0.81988639  1
  Si  Si27  1  0.37606153  0.04293527  0.58417655  1
  Si  Si28  1  0.62479931  0.66645421  0.91846889  1
  Si  Si29  1  0.03922025  0.37827839  0.91793059  1
  P  P30  1  0.28944287  0.00067470  0.25160602  1
  P  P31  1  0.71199531  0.71121396  0.25090636  1
  P  P32  1  0.99907155  0.28833157  0.25101892  1
  P  P33  1  0.28783744  0.28855438  0.75092512  1
  P  P34  1  0.00114297  0.71342260  0.75040288  1
  P  P35  1  0.71133571  0.99907950  0.74976173  1
  P  P36  1  0.95987515  0.33727962  0.58438775  1
  P  P37  1  0.66506779  0.62309085  0.58446585  1
  P  P38  1  0.96232994  0.62663070  0.08500805  1
  P  P39  1  0.66430243  0.04045322  0.08459518  1
  P  P40  1  0.37506424  0.33222937  0.08372082  1
  P  P41  1  0.33368021  0.95470615  0.91769108  1
  P  P42  1  0.62655596  0.95629176  0.41811126  1
  P  P43  1  0.33444103  0.37786244  0.41767447  1
  P  P44  1  0.03984746  0.66216372  0.41701827  1
  O  O45  1  0.21330622  0.03191645  0.30851694  1
  O  O46  1  0.82519353  0.79060457  0.30582581  1
  O  O47  1  0.96757943  0.17600316  0.30577393  1
  O  O48  1  0.20322072  0.17469581  0.80694568  1
  O  O49  1  0.97343744  0.80376168  0.80535885  1
  O  O50  1  0.83208254  0.02569052  0.80486781  1
  O  O51  1  0.79253366  0.96555673  0.69293631  1
  O  O52  1  0.16614911  0.19861156  0.69511524  1
  O  O53  1  0.03155577  0.83285978  0.69414172  1
  O  O54  1  0.79563641  0.83276298  0.19455413  1
  O  O55  1  0.03598521  0.20401435  0.19441305  1
  O  O56  1  0.16633528  0.96445837  0.19592430  1
  O  O57  1  0.88951301  0.37008191  0.64255991  1
  O  O58  1  0.49206227  0.11037330  0.64416767  1
  O  O59  1  0.63473568  0.51974979  0.64237058  1
  O  O60  1  0.88676111  0.52094383  0.14215329  1
  O  O61  1  0.63590721  0.11484163  0.14254350  1
  O  O62  1  0.47991934  0.36374968  0.14151676  1
  O  O63  1  0.45964683  0.30416142  0.02643152  1
  O  O64  1  0.83879826  0.53374847  0.02894950  1
  O  O65  1  0.69426121  0.16238678  0.02896492  1
  O  O66  1  0.46964941  0.16633662  0.52388036  1
  O  O67  1  0.69644481  0.53308575  0.52897979  1
  O  O68  1  0.83427723  0.30177574  0.52948590  1
  O  O69  1  0.52902555  0.70036619  0.97433699  1
  O  O70  1  0.17495484  0.47052599  0.97296595  1
  O  O71  1  0.30097665  0.83608684  0.97149518  1
  O  O72  1  0.53030583  0.84281834  0.47383932  1
  O  O73  1  0.31369585  0.47497185  0.47185077  1
  O  O74  1  0.16367322  0.68953991  0.47129843  1
  O  O75  1  0.13098342  0.63604806  0.35958289  1
  O  O76  1  0.50237504  0.86790803  0.36109378  1
  O  O77  1  0.36122884  0.49354084  0.35976388  1
  O  O78  1  0.13050690  0.49723565  0.85603711  1
  O  O79  1  0.36118254  0.86970421  0.85861588  1
  O  O80  1  0.50007215  0.63269388  0.85713458  1
  O  O81  1  0.03283055  0.83118642  0.41267930  1
  O  O82  1  0.80324068  0.97348597  0.41331134  1
  O  O83  1  0.17760651  0.19484593  0.41310308  1
  O  O84  1  0.03227010  0.18921902  0.90764003  1
  O  O85  1  0.17134431  0.97817267  0.90817139  1
  O  O86  1  0.81643734  0.83841582  0.90857483  1
  O  O87  1  0.96913923  0.16337912  0.58922571  1
  O  O88  1  0.18020166  0.02234411  0.58968205  1
  O  O89  1  0.82835698  0.81242504  0.58916443  1
  O  O90  1  0.97582244  0.81123633  0.08960284  1
  O  O91  1  0.83316864  0.02326910  0.08941696  1
  O  O92  1  0.18829091  0.16557412  0.08967327  1
  O  O93  1  0.69446953  0.16504847  0.74788539  1
  O  O94  1  0.47161830  0.31194117  0.74595597  1
  O  O95  1  0.83946472  0.53031406  0.74558745  1
  O  O96  1  0.68235749  0.52372043  0.24334507  1
  O  O97  1  0.84225195  0.31806817  0.24349774  1
  O  O98  1  0.47467508  0.15828267  0.24407365  1
  O  O99  1  0.63294112  0.48601621  0.92407848  1
  O  O100  1  0.84614800  0.35409798  0.92406608  1
  O  O101  1  0.49395358  0.14029163  0.92241994  1
  O  O102  1  0.63180973  0.13748062  0.42284744  1
  O  O103  1  0.50420746  0.36373427  0.42260862  1
  O  O104  1  0.86097830  0.49543136  0.42380508  1
  O  O105  1  0.35191686  0.49647042  0.07559346  1
  O  O106  1  0.14427269  0.64919000  0.07389491  1
  O  O107  1  0.50275397  0.85710073  0.07467322  1
  O  O108  1  0.35427933  0.84751217  0.57220795  1
  O  O109  1  0.50605675  0.65080287  0.57434444  1
  O  O110  1  0.14407830  0.49425793  0.57359131  1
  O  O111  1  0.30617467  0.82850989  0.25653324  1
  O  O112  1  0.52405892  0.69463731  0.25681735  1
  O  O113  1  0.17059348  0.47648906  0.25641463  1
  O  O114  1  0.30286032  0.47461902  0.75402018  1
  O  O115  1  0.16991767  0.69821268  0.75434076  1
  O  O116  1  0.52634847  0.83252030  0.75577778  1
