# generated using pymatgen
data_Na2InGe(PO4)3
_symmetry_space_group_name_H-M   'P 1'
_cell_length_a   8.78143642
_cell_length_b   8.78143614
_cell_length_c   22.15258477
_cell_angle_alpha   90.16194889
_cell_angle_beta   89.83805111
_cell_angle_gamma   120.23828262
_symmetry_Int_Tables_number   1
_chemical_formula_structural   Na2InGe(PO4)3
_chemical_formula_sum   'Na12 In6 Ge6 P18 O72'
_cell_volume   1475.82900779
_cell_formula_units_Z   6
loop_
 _symmetry_equiv_pos_site_id
 _symmetry_equiv_pos_as_xyz
  1  'x, y, z'
loop_
 _atom_site_type_symbol
 _atom_site_label
 _atom_site_symmetry_multiplicity
 _atom_site_fract_x
 _atom_site_fract_y
 _atom_site_fract_z
 _atom_site_occupancy
  Na  Na0  1  0.36389400  0.35818998  0.24991597  1
  Na  Na1  1  0.64181002  0.63610600  0.74991597  1
  Na  Na2  1  0.03056100  0.69152298  0.58324897  1
  Na  Na3  1  0.30847702  0.96943900  0.08324897  1
  Na  Na4  1  0.69722700  0.02485698  0.91658297  1
  Na  Na5  1  0.97514302  0.30277300  0.41658297  1
  Na  Na6  1  0.99931549  0.99900778  0.49930514  1
  Na  Na7  1  0.00099222  0.00068451  0.99930514  1
  Na  Na8  1  0.66598249  0.33234078  0.83263814  1
  Na  Na9  1  0.66765922  0.33401751  0.33263814  1
  Na  Na10  1  0.33264849  0.66567478  0.16597214  1
  Na  Na11  1  0.33432522  0.66735151  0.66597214  1
  In  In12  1  0.99780299  0.99163599  0.35167560  1
  In  In13  1  0.00836401  0.00219701  0.85167560  1
  In  In14  1  0.66446999  0.32496899  0.68500860  1
  In  In15  1  0.67503101  0.33553001  0.18500860  1
  In  In16  1  0.33113599  0.65830299  0.01834260  1
  In  In17  1  0.34169701  0.66886401  0.51834260  1
  Ge  Ge18  1  0.00273140  0.00792594  0.64796423  1
  Ge  Ge19  1  0.99207406  0.99726860  0.14796423  1
  Ge  Ge20  1  0.66939840  0.34125894  0.98129723  1
  Ge  Ge21  1  0.65874106  0.33060160  0.48129723  1
  Ge  Ge22  1  0.33606440  0.67459294  0.31463123  1
  Ge  Ge23  1  0.32540706  0.66393560  0.81463123  1
  P  P24  1  0.28783475  0.98832107  0.24874704  1
  P  P25  1  0.70067780  0.71212452  0.24946748  1
  P  P26  1  0.00692496  0.29699103  0.25180592  1
  P  P27  1  0.28787548  0.29932220  0.74946748  1
  P  P28  1  0.01167893  0.71216525  0.74874704  1
  P  P29  1  0.70300897  0.99307504  0.75180592  1
  P  P30  1  0.95450175  0.32165407  0.58208004  1
  P  P31  1  0.36734480  0.04545752  0.58280048  1
  P  P32  1  0.67359196  0.63032403  0.58513892  1
  P  P33  1  0.95454248  0.63265520  0.08280048  1
  P  P34  1  0.67834593  0.04549825  0.08208004  1
  P  P35  1  0.36967597  0.32640804  0.08513892  1
  P  P36  1  0.62116775  0.65498807  0.91541404  1
  P  P37  1  0.03401080  0.37879152  0.91613448  1
  P  P38  1  0.34025796  0.96365803  0.91847292  1
  P  P39  1  0.62120848  0.96598920  0.41613448  1
  P  P40  1  0.34501193  0.37883225  0.41541404  1
  P  P41  1  0.03634197  0.65974204  0.41847292  1
  O  O42  1  0.21427976  0.03256361  0.30384165  1
  O  O43  1  0.80698170  0.78151638  0.30676413  1
  O  O44  1  0.98108540  0.19733276  0.31052151  1
  O  O45  1  0.21848362  0.19301830  0.80676413  1
  O  O46  1  0.96743639  0.78572024  0.80384165  1
  O  O47  1  0.80266724  0.01891460  0.81052151  1
  O  O48  1  0.79417320  0.95528112  0.69610192  1
  O  O49  1  0.16926323  0.20968957  0.69252340  1
  O  O50  1  0.04134269  0.82716162  0.68998239  1
  O  O51  1  0.79031043  0.83073677  0.19252340  1
  O  O52  1  0.04471888  0.20582680  0.19610192  1
  O  O53  1  0.17283838  0.95865731  0.18998239  1
  O  O54  1  0.88094676  0.36589661  0.63717465  1
  O  O55  1  0.47364870  0.11484938  0.64009713  1
  O  O56  1  0.64775240  0.53066576  0.64385451  1
  O  O57  1  0.88515062  0.52635130  0.14009713  1
  O  O58  1  0.63410339  0.11905324  0.13717465  1
  O  O59  1  0.46933424  0.35224760  0.14385451  1
  O  O60  1  0.46084020  0.28861412  0.02943492  1
  O  O61  1  0.83593023  0.54302257  0.02585640  1
  O  O62  1  0.70800969  0.16049462  0.02331539  1
  O  O63  1  0.45697743  0.16406977  0.52585640  1
  O  O64  1  0.71138588  0.53915980  0.52943492  1
  O  O65  1  0.83950538  0.29199031  0.52331539  1
  O  O66  1  0.54761276  0.69923061  0.97050865  1
  O  O67  1  0.14031470  0.44818338  0.97343113  1
  O  O68  1  0.31441840  0.86399976  0.97718851  1
  O  O69  1  0.55181662  0.85968530  0.47343113  1
  O  O70  1  0.30076939  0.45238724  0.47050865  1
  O  O71  1  0.13600024  0.68558160  0.47718851  1
  O  O72  1  0.12750620  0.62194812  0.36276892  1
  O  O73  1  0.50259623  0.87635657  0.35919040  1
  O  O74  1  0.37467569  0.49382862  0.35664939  1
  O  O75  1  0.12364343  0.49740377  0.85919040  1
  O  O76  1  0.37805188  0.87249380  0.86276892  1
  O  O77  1  0.50617138  0.62532431  0.85664939  1
  O  O78  1  0.01141467  0.81761038  0.41285133  1
  O  O79  1  0.81057688  0.00159363  0.41048772  1
  O  O80  1  0.18179665  0.19440744  0.41009500  1
  O  O81  1  0.99840637  0.18942312  0.91048772  1
  O  O82  1  0.18238962  0.98858533  0.91285133  1
  O  O83  1  0.80559256  0.81820335  0.91009500  1
  O  O84  1  0.96444022  0.14986645  0.59000910  1
  O  O85  1  0.18078227  0.03033700  0.58862772  1
  O  O86  1  0.85095923  0.81472102  0.58931275  1
  O  O87  1  0.96966300  0.81921773  0.08862772  1
  O  O88  1  0.85013355  0.03555978  0.09000910  1
  O  O89  1  0.18527898  0.14904077  0.08931275  1
  O  O90  1  0.67808167  0.15094338  0.74618433  1
  O  O91  1  0.47724388  0.33492663  0.74382072  1
  O  O92  1  0.84846365  0.52774044  0.74342800  1
  O  O93  1  0.66507337  0.52275612  0.24382072  1
  O  O94  1  0.84905662  0.32191833  0.24618433  1
  O  O95  1  0.47225956  0.15153635  0.24342800  1
  O  O96  1  0.63110722  0.48319945  0.92334210  1
  O  O97  1  0.84744927  0.36367000  0.92196072  1
  O  O98  1  0.51762623  0.14805402  0.92264575  1
  O  O99  1  0.63633000  0.15255073  0.42196072  1
  O  O100  1  0.51680055  0.36889278  0.42334210  1
  O  O101  1  0.85194598  0.48237377  0.42264575  1
  O  O102  1  0.34474767  0.48427738  0.07951833  1
  O  O103  1  0.14390988  0.66826063  0.07715472  1
  O  O104  1  0.51512965  0.86107444  0.07676200  1
  O  O105  1  0.33173937  0.85609012  0.57715472  1
  O  O106  1  0.51572262  0.65525233  0.57951833  1
  O  O107  1  0.13892556  0.48487035  0.57676200  1
  O  O108  1  0.29777322  0.81653345  0.25667610  1
  O  O109  1  0.51411527  0.69700400  0.25529472  1
  O  O110  1  0.18429223  0.48138802  0.25597975  1
  O  O111  1  0.30299600  0.48588473  0.75529472  1
  O  O112  1  0.18346655  0.70222678  0.75667610  1
  O  O113  1  0.51861198  0.81570777  0.75597975  1
