# generated using pymatgen
data_MgCo2(SiO3)4
_symmetry_space_group_name_H-M   'P 1'
_cell_length_a   4.98039521
_cell_length_b   7.79870818
_cell_length_c   7.79884182
_cell_angle_alpha   89.58368106
_cell_angle_beta   67.43390192
_cell_angle_gamma   67.44583945
_symmetry_Int_Tables_number   1
_chemical_formula_structural   MgCo2(SiO3)4
_chemical_formula_sum   'Mg1 Co2 Si4 O12'
_cell_volume   254.82580639
_cell_formula_units_Z   1
loop_
 _symmetry_equiv_pos_site_id
 _symmetry_equiv_pos_as_xyz
  1  'x, y, z'
loop_
 _atom_site_type_symbol
 _atom_site_label
 _atom_site_symmetry_multiplicity
 _atom_site_fract_x
 _atom_site_fract_y
 _atom_site_fract_z
 _atom_site_occupancy
  Mg  Mg0  1  0.75004998  0.74397736  0.25605596  1
  Co  Co1  1  0.25006135  0.21254143  0.78745745  1
  Co  Co2  1  0.74995299  0.00535180  0.99468815  1
  Si  Si3  1  0.18901090  0.18757309  0.38651083  1
  Si  Si4  1  0.31086969  0.61354955  0.81234851  1
  Si  Si5  1  0.68372863  0.34565935  0.22793048  1
  Si  Si6  1  0.81629456  0.77216941  0.65425271  1
  O  O7  1  0.32309134  0.34930725  0.31875112  1
  O  O8  1  0.17685511  0.68117017  0.65061100  1
  O  O9  1  0.65654013  0.62339845  0.74682322  1
  O  O10  1  0.84331174  0.25295909  0.37673892  1
  O  O11  1  0.15752667  0.15565343  0.60134727  1
  O  O12  1  0.34244732  0.39871065  0.84437330  1
  O  O13  1  0.82063219  0.81612004  0.45740920  1
  O  O14  1  0.67962265  0.54244550  0.18411919  1
  O  O15  1  0.89189334  0.19071148  0.02039205  1
  O  O16  1  0.60819925  0.97965182  0.80925230  1
  O  O17  1  0.44897662  0.99574167  0.23132105  1
  O  O18  1  0.05093455  0.76872547  0.00419929  1
