# generated using pymatgen
data_Na9MgNb5(SiO4)9
_symmetry_space_group_name_H-M   'P 1'
_cell_length_a   9.09637298
_cell_length_b   27.25981994
_cell_length_c   22.50238951
_cell_angle_alpha   90.02022462
_cell_angle_beta   89.98718033
_cell_angle_gamma   120.06717028
_symmetry_Int_Tables_number   1
_chemical_formula_structural   Na9MgNb5(SiO4)9
_chemical_formula_sum   'Na54 Mg6 Nb30 Si54 O216'
_cell_volume   4828.98807507
_cell_formula_units_Z   6
loop_
 _symmetry_equiv_pos_site_id
 _symmetry_equiv_pos_as_xyz
  1  'x, y, z'
loop_
 _atom_site_type_symbol
 _atom_site_label
 _atom_site_symmetry_multiplicity
 _atom_site_fract_x
 _atom_site_fract_y
 _atom_site_fract_z
 _atom_site_occupancy
  Na  Na0  1  0.00125875  0.00089283  0.49497456  1
  Na  Na1  1  0.99126746  0.33008977  0.49814825  1
  Na  Na2  1  0.00418509  0.66810526  0.50468803  1
  Na  Na3  1  0.98934206  0.99727251  0.99798421  1
  Na  Na4  1  0.99844989  0.32972802  0.99863039  1
  Na  Na5  1  0.00938424  0.66829346  0.00766322  1
  Na  Na6  1  0.66620299  0.11045157  0.83044435  1
  Na  Na7  1  0.66803492  0.44215291  0.83724433  1
  Na  Na8  1  0.66600157  0.78488088  0.83470155  1
  Na  Na9  1  0.66453520  0.11008370  0.32917532  1
  Na  Na10  1  0.66018822  0.44302354  0.33771418  1
  Na  Na11  1  0.67899994  0.78128999  0.33519007  1
  Na  Na12  1  0.34114547  0.22497606  0.16830471  1
  Na  Na13  1  0.33780024  0.55314995  0.16896292  1
  Na  Na14  1  0.33402682  0.88907656  0.16684562  1
  Na  Na15  1  0.33435265  0.22530873  0.66835203  1
  Na  Na16  1  0.32274633  0.55301736  0.66678941  1
  Na  Na17  1  0.34227673  0.88848389  0.66854864  1
  Na  Na18  1  0.62735340  0.00521516  0.24392126  1
  Na  Na19  1  0.64271440  0.66544043  0.24767265  1
  Na  Na20  1  0.38344609  0.12232058  0.24344188  1
  Na  Na21  1  0.35583858  0.78628200  0.24669318  1
  Na  Na22  1  0.98285980  0.20345890  0.24328674  1
  Na  Na23  1  0.00385970  0.54835919  0.24624641  1
  Na  Na24  1  0.62857533  0.20393760  0.74331640  1
  Na  Na25  1  0.63970611  0.54776640  0.74488337  1
  Na  Na26  1  0.98327651  0.12287973  0.74473598  1
  Na  Na27  1  0.00346853  0.78709233  0.74672892  1
  Na  Na28  1  0.38842222  0.00538932  0.74451053  1
  Na  Na29  1  0.35390639  0.66515377  0.74620027  1
  Na  Na30  1  0.31329804  0.11187424  0.58546888  1
  Na  Na31  1  0.31468696  0.44399605  0.57887467  1
  Na  Na32  1  0.27684661  0.77180287  0.58984920  1
  Na  Na33  1  0.02351353  0.22873686  0.58690955  1
  Na  Na34  1  0.02695581  0.57191781  0.58719766  1
  Na  Na35  1  0.03135065  0.89994642  0.58158121  1
  Na  Na36  1  0.67029748  0.32641096  0.57846633  1
  Na  Na37  1  0.68366985  0.65401312  0.59096667  1
  Na  Na38  1  0.66258664  0.99254461  0.58596481  1
  Na  Na39  1  0.30826422  0.32596180  0.07891329  1
  Na  Na40  1  0.28078260  0.65475705  0.09300243  1
  Na  Na41  1  0.31143494  0.99197504  0.08639991  1
  Na  Na42  1  0.66223614  0.22814730  0.08714898  1
  Na  Na43  1  0.68878068  0.57216505  0.08900932  1
  Na  Na44  1  0.02395073  0.11167087  0.08699702  1
  Na  Na45  1  0.01560821  0.44347863  0.07995939  1
  Na  Na46  1  0.04072776  0.77291002  0.09018417  1
  Na  Na47  1  0.94344619  0.54991964  0.92528723  1
  Na  Na48  1  0.70230242  0.35029896  0.92360073  1
  Na  Na49  1  0.70321951  0.67904919  0.91788356  1
  Na  Na50  1  0.34899508  0.43187231  0.92313544  1
  Na  Na51  1  0.94838544  0.43278536  0.42296747  1
  Na  Na52  1  0.34922306  0.35072275  0.42322059  1
  Na  Na53  1  0.70815959  0.55065645  0.42386381  1
  Mg  Mg54  1  0.99910512  0.66617742  0.64720352  1
  Mg  Mg55  1  0.00080068  0.66655612  0.14775200  1
  Mg  Mg56  1  0.66734255  0.11101492  0.68675502  1
  Mg  Mg57  1  0.66545224  0.11081938  0.18656608  1
  Mg  Mg58  1  0.66441633  0.44302508  0.98024651  1
  Mg  Mg59  1  0.66617477  0.44358304  0.47991363  1
  Nb  Nb60  1  0.99876149  0.99909210  0.35617360  1
  Nb  Nb61  1  0.99782278  0.33275187  0.35457296  1
  Nb  Nb62  1  0.00443456  0.66828150  0.35424698  1
  Nb  Nb63  1  0.00019441  0.99940747  0.85704088  1
  Nb  Nb64  1  0.99964066  0.33237414  0.85475792  1
  Nb  Nb65  1  0.00501535  0.66846323  0.85339970  1
  Nb  Nb66  1  0.99832659  0.00050150  0.64689929  1
  Nb  Nb67  1  0.00178488  0.33335418  0.64761594  1
  Nb  Nb68  1  0.99662059  0.99877194  0.14581406  1
  Nb  Nb69  1  0.99795720  0.33327176  0.14775806  1
  Nb  Nb70  1  0.66647699  0.44367414  0.68693803  1
  Nb  Nb71  1  0.66606155  0.77883601  0.68821410  1
  Nb  Nb72  1  0.66454338  0.44385110  0.18735479  1
  Nb  Nb73  1  0.67019261  0.77920427  0.18816809  1
  Nb  Nb74  1  0.66656790  0.11033686  0.97826302  1
  Nb  Nb75  1  0.66858580  0.78103726  0.97795903  1
  Nb  Nb76  1  0.66482906  0.11071119  0.47767191  1
  Nb  Nb77  1  0.66724769  0.77804863  0.47590527  1
  Nb  Nb78  1  0.32986300  0.22161764  0.01876404  1
  Nb  Nb79  1  0.33224230  0.55583937  0.02178161  1
  Nb  Nb80  1  0.34021501  0.88892751  0.02044637  1
  Nb  Nb81  1  0.33571008  0.22185573  0.51855398  1
  Nb  Nb82  1  0.33422151  0.55617665  0.52062113  1
  Nb  Nb83  1  0.33025987  0.88855071  0.51851856  1
  Nb  Nb84  1  0.33465698  0.22202295  0.31210530  1
  Nb  Nb85  1  0.33575167  0.55492805  0.31306131  1
  Nb  Nb86  1  0.32782919  0.88958917  0.31289361  1
  Nb  Nb87  1  0.33172910  0.22228993  0.81231244  1
  Nb  Nb88  1  0.32787861  0.55404423  0.81244175  1
  Nb  Nb89  1  0.34059466  0.88991655  0.81342877  1
  Si  Si90  1  0.28844627  0.99941338  0.25040061  1
  Si  Si91  1  0.29211613  0.33391548  0.25084356  1
  Si  Si92  1  0.29060204  0.66649997  0.24768174  1
  Si  Si93  1  0.70606391  0.23567348  0.25055842  1
  Si  Si94  1  0.71191642  0.57049012  0.24753531  1
  Si  Si95  1  0.70992776  0.90356120  0.25148117  1
  Si  Si96  1  0.99888590  0.09607067  0.25058654  1
  Si  Si97  1  0.99909227  0.43046663  0.25109627  1
  Si  Si98  1  0.00139294  0.76334461  0.24691068  1
  Si  Si99  1  0.29129415  0.09663710  0.75137487  1
  Si  Si100  1  0.29197508  0.43004236  0.75122076  1
  Si  Si101  1  0.29005374  0.76429062  0.74624646  1
  Si  Si102  1  0.00127653  0.23577148  0.75039608  1
  Si  Si103  1  0.99864404  0.57011920  0.74738209  1
  Si  Si104  1  0.00086451  0.90370686  0.75058733  1
  Si  Si105  1  0.70899649  0.99956684  0.75157937  1
  Si  Si106  1  0.70970348  0.33402610  0.75086212  1
  Si  Si107  1  0.70898243  0.66652029  0.74817011  1
  Si  Si108  1  0.95528738  0.11161767  0.58544980  1
  Si  Si109  1  0.95506603  0.44444062  0.58068319  1
  Si  Si110  1  0.95633669  0.77763106  0.58264883  1
  Si  Si111  1  0.37912822  0.01501667  0.58605223  1
  Si  Si112  1  0.37558928  0.34731869  0.58041506  1
  Si  Si113  1  0.37741122  0.68162230  0.58273060  1
  Si  Si114  1  0.66629682  0.20711830  0.58582154  1
  Si  Si115  1  0.67088524  0.54159834  0.58001648  1
  Si  Si116  1  0.66319114  0.87378032  0.58228876  1
  Si  Si117  1  0.95508676  0.20709676  0.08577708  1
  Si  Si118  1  0.95250587  0.54142657  0.08000797  1
  Si  Si119  1  0.95883245  0.87476184  0.08288264  1
  Si  Si120  1  0.66592681  0.01479148  0.08625575  1
  Si  Si121  1  0.66626826  0.34733142  0.08051131  1
  Si  Si122  1  0.66801840  0.68192144  0.08192830  1
  Si  Si123  1  0.37874243  0.11141300  0.08560338  1
  Si  Si124  1  0.37856441  0.44424908  0.08049790  1
  Si  Si125  1  0.37804799  0.77882981  0.08370808  1
  Si  Si126  1  0.62232199  0.22087719  0.91597762  1
  Si  Si127  1  0.62518948  0.55561649  0.91596411  1
  Si  Si128  1  0.62640236  0.88924310  0.91641582  1
  Si  Si129  1  0.03967287  0.12451320  0.91538718  1
  Si  Si130  1  0.04041370  0.45750156  0.91788226  1
  Si  Si131  1  0.04505559  0.79336293  0.91603154  1
  Si  Si132  1  0.33192248  0.31946957  0.91622851  1
  Si  Si133  1  0.33186425  0.65277969  0.91650102  1
  Si  Si134  1  0.33307068  0.98547999  0.91761901  1
  Si  Si135  1  0.62670124  0.31957096  0.41589962  1
  Si  Si136  1  0.62594162  0.65287124  0.41615401  1
  Si  Si137  1  0.62502860  0.98604217  0.41653163  1
  Si  Si138  1  0.33324855  0.12443276  0.41538992  1
  Si  Si139  1  0.33270145  0.45771834  0.41778132  1
  Si  Si140  1  0.33370907  0.79244975  0.41526673  1
  Si  Si141  1  0.04092582  0.22121644  0.41598327  1
  Si  Si142  1  0.04320780  0.55670411  0.41589847  1
  Si  Si143  1  0.03976890  0.88916443  0.41693829  1
  O  O144  1  0.18149531  0.00390487  0.30694661  1
  O  O145  1  0.19833085  0.34182030  0.30972962  1
  O  O146  1  0.19417476  0.67655243  0.30519426  1
  O  O147  1  0.83334298  0.27282206  0.30616690  1
  O  O148  1  0.83406214  0.60091054  0.30669305  1
  O  O149  1  0.82481181  0.93402111  0.30976280  1
  O  O150  1  0.98150873  0.05491406  0.30662318  1
  O  O151  1  0.98179862  0.39267920  0.31022266  1
  O  O152  1  0.96808727  0.72063301  0.30443893  1
  O  O153  1  0.18426153  0.05526426  0.80676104  1
  O  O154  1  0.19636300  0.39266763  0.81046908  1
  O  O155  1  0.19226385  0.72152943  0.80427718  1
  O  O156  1  0.98512653  0.27278776  0.80608176  1
  O  O157  1  0.96977992  0.60167657  0.80672385  1
  O  O158  1  0.97835009  0.93501680  0.80805765  1
  O  O159  1  0.83077377  0.00417665  0.80716118  1
  O  O160  1  0.82727250  0.34186331  0.80972478  1
  O  O161  1  0.82930971  0.67634036  0.80791528  1
  O  O162  1  0.80377506  0.32439913  0.69245759  1
  O  O163  1  0.78532165  0.65351615  0.69047661  1
  O  O164  1  0.80225440  0.99164650  0.69051014  1
  O  O165  1  0.16957441  0.06541254  0.69107325  1
  O  O166  1  0.17372641  0.39807131  0.69263339  1
  O  O167  1  0.17764157  0.73983657  0.68769969  1
  O  O168  1  0.02084309  0.27435647  0.69072746  1
  O  O169  1  0.04743420  0.60930975  0.68978884  1
  O  O170  1  0.02565032  0.94257498  0.69037436  1
  O  O171  1  0.80228669  0.27431157  0.19083454  1
  O  O172  1  0.78097056  0.60913527  0.18934583  1
  O  O173  1  0.80729696  0.94471932  0.19353036  1
  O  O174  1  0.02989857  0.06619673  0.19059251  1
  O  O175  1  0.02063444  0.39812094  0.19254185  1
  O  O176  1  0.04321307  0.73995616  0.18792324  1
  O  O177  1  0.16940905  0.32440558  0.19242545  1
  O  O178  1  0.17764577  0.65320473  0.18925978  1
  O  O179  1  0.17240491  0.99161418  0.18996209  1
  O  O180  1  0.88915003  0.12652318  0.64478766  1
  O  O181  1  0.85879165  0.45386182  0.63849322  1
  O  O182  1  0.86583134  0.78830199  0.64237407  1
  O  O183  1  0.49048093  0.03789383  0.64514909  1
  O  O184  1  0.50130831  0.37957761  0.63779246  1
  O  O185  1  0.49883303  0.71158803  0.64282646  1
  O  O186  1  0.62307357  0.16997269  0.64498621  1
  O  O187  1  0.63526455  0.49982125  0.64049485  1
  O  O188  1  0.63626575  0.83306339  0.64054944  1
  O  O189  1  0.88710812  0.17018394  0.14507093  1
  O  O190  1  0.86451121  0.49973981  0.14010717  1
  O  O191  1  0.86004188  0.83342082  0.14005187  1
  O  O192  1  0.62353373  0.03802880  0.14523864  1
  O  O193  1  0.63718458  0.37968304  0.13766429  1
  O  O194  1  0.63687777  0.71228582  0.14106960  1
  O  O195  1  0.49231400  0.12740214  0.14444486  1
  O  O196  1  0.50304640  0.45406818  0.13821851  1
  O  O197  1  0.49428759  0.78626941  0.14350263  1
  O  O198  1  0.47354490  0.10101146  0.02847149  1
  O  O199  1  0.44304656  0.42792410  0.02177857  1
  O  O200  1  0.48671674  0.77449025  0.02684868  1
  O  O201  1  0.82991671  0.17639700  0.02849368  1
  O  O202  1  0.84290980  0.51184629  0.02181306  1
  O  O203  1  0.84328016  0.84324913  0.02415329  1
  O  O204  1  0.69916419  0.05732989  0.02887902  1
  O  O205  1  0.70813739  0.38376788  0.02101425  1
  O  O206  1  0.68360563  0.72082432  0.02348265  1
  O  O207  1  0.47119010  0.05722702  0.52884241  1
  O  O208  1  0.44400682  0.38378455  0.52096063  1
  O  O209  1  0.48414900  0.72338467  0.52713594  1
  O  O210  1  0.69937603  0.17621979  0.52869669  1
  O  O211  1  0.69274298  0.51180359  0.52220531  1
  O  O212  1  0.69699713  0.84457739  0.52529657  1
  O  O213  1  0.82848109  0.10024404  0.52860828  1
  O  O214  1  0.84041041  0.42766127  0.52221878  1
  O  O215  1  0.83732214  0.77393976  0.52629137  1
  O  O216  1  0.53026211  0.23165189  0.97424102  1
  O  O217  1  0.52886613  0.56569783  0.97411370  1
  O  O218  1  0.52462573  0.89479986  0.97393853  1
  O  O219  1  0.16051282  0.15786091  0.97369465  1
  O  O220  1  0.16230795  0.48876471  0.97691186  1
  O  O221  1  0.15995429  0.82355162  0.97529843  1
  O  O222  1  0.31215140  0.28148260  0.97626001  1
  O  O223  1  0.30281504  0.61144338  0.97460027  1
  O  O224  1  0.30803006  0.94560257  0.97608102  1
  O  O225  1  0.53200108  0.28141017  0.47610042  1
  O  O226  1  0.52928910  0.61149161  0.47437122  1
  O  O227  1  0.52735963  0.94624427  0.47586585  1
  O  O228  1  0.31323966  0.15774469  0.47402049  1
  O  O229  1  0.30437117  0.48859602  0.47720204  1
  O  O230  1  0.30959273  0.82401375  0.47480860  1
  O  O231  1  0.16428304  0.23139581  0.47451847  1
  O  O232  1  0.16380536  0.56378229  0.47523804  1
  O  O233  1  0.15471978  0.89512871  0.47661711  1
  O  O234  1  0.13556523  0.21373894  0.35717975  1
  O  O235  1  0.14548783  0.55144062  0.35767547  1
  O  O236  1  0.14427730  0.88284121  0.36069673  1
  O  O237  1  0.49954866  0.28272483  0.36038123  1
  O  O238  1  0.51021981  0.62160993  0.35732639  1
  O  O239  1  0.50687680  0.95440676  0.35804036  1
  O  O240  1  0.35408447  0.16350293  0.35670701  1
  O  O241  1  0.34479242  0.49889418  0.36199225  1
  O  O242  1  0.35967177  0.83199015  0.35687526  1
  O  O243  1  0.13663516  0.16343914  0.85649212  1
  O  O244  1  0.15205406  0.49890882  0.86201930  1
  O  O245  1  0.13621568  0.83169933  0.85661888  1
  O  O246  1  0.34859954  0.28283148  0.86038672  1
  O  O247  1  0.35869032  0.62175976  0.85831650  1
  O  O248  1  0.35650272  0.95402188  0.85832713  1
  O  O249  1  0.50569703  0.21385022  0.85701292  1
  O  O250  1  0.50944789  0.55126738  0.85737643  1
  O  O251  1  0.50561337  0.88230129  0.85897744  1
  O  O252  1  0.03482703  0.28051446  0.41136465  1
  O  O253  1  0.02556558  0.61361200  0.41133939  1
  O  O254  1  0.02528697  0.94595320  0.41327932  1
  O  O255  1  0.81447210  0.32470871  0.41203686  1
  O  O256  1  0.80795501  0.65480172  0.41115325  1
  O  O257  1  0.81145892  0.99185059  0.41227988  1
  O  O258  1  0.16325081  0.06241702  0.41151702  1
  O  O259  1  0.15596730  0.39589236  0.41396176  1
  O  O260  1  0.16162588  0.73052923  0.40951813  1
  O  O261  1  0.02406388  0.06242608  0.91119200  1
  O  O262  1  0.03193080  0.39584371  0.91398333  1
  O  O263  1  0.02311413  0.72957636  0.90974605  1
  O  O264  1  0.15975929  0.32476014  0.91204700  1
  O  O265  1  0.15646885  0.65534213  0.91084683  1
  O  O266  1  0.16405136  0.99151452  0.91129972  1
  O  O267  1  0.80661364  0.28039545  0.91112303  1
  O  O268  1  0.81138439  0.61447802  0.91140820  1
  O  O269  1  0.81250749  0.94545576  0.91252255  1
  O  O270  1  0.97528036  0.05389792  0.58819473  1
  O  O271  1  0.98757387  0.39012758  0.59276402  1
  O  O272  1  0.97400620  0.72238398  0.58467049  1
  O  O273  1  0.18530499  0.00752359  0.58843617  1
  O  O274  1  0.18278321  0.33817884  0.59173324  1
  O  O275  1  0.19306701  0.67491099  0.58469822  1
  O  O276  1  0.83667636  0.27200659  0.58801747  1
  O  O277  1  0.83142554  0.60427959  0.58788606  1
  O  O278  1  0.83340216  0.93689790  0.58950445  1
  O  O279  1  0.97961285  0.27206744  0.08800695  1
  O  O280  1  0.98176653  0.60432970  0.08750793  1
  O  O281  1  0.98272756  0.93814954  0.08857279  1
  O  O282  1  0.84075096  0.01000899  0.08900936  1
  O  O283  1  0.83168268  0.33814994  0.09182955  1
  O  O284  1  0.83251965  0.67518400  0.08352148  1
  O  O285  1  0.18714567  0.05420826  0.08821057  1
  O  O286  1  0.18286830  0.39017829  0.09250347  1
  O  O287  1  0.19552658  0.72252867  0.08404147  1
  O  O288  1  0.69472327  0.05577415  0.74900594  1
  O  O289  1  0.68987896  0.38958524  0.74310473  1
  O  O290  1  0.69268722  0.72449073  0.74558144  1
  O  O291  1  0.47460660  0.10241738  0.74865445  1
  O  O292  1  0.48059220  0.43746750  0.74444776  1
  O  O293  1  0.47690223  0.76766735  0.74507827  1
  O  O294  1  0.83241402  0.17499269  0.75015859  1
  O  O295  1  0.82324844  0.50808374  0.74368947  1
  O  O296  1  0.83466236  0.83979373  0.74423005  1
  O  O297  1  0.69251947  0.17493245  0.25030291  1
  O  O298  1  0.70016567  0.50803503  0.24284009  1
  O  O299  1  0.68455994  0.83987410  0.24420144  1
  O  O300  1  0.83315060  0.10219404  0.24871343  1
  O  O301  1  0.83152078  0.43731064  0.24419412  1
  O  O302  1  0.82577622  0.76754410  0.24411020  1
  O  O303  1  0.47193329  0.05570470  0.24883594  1
  O  O304  1  0.47859303  0.38955485  0.24296987  1
  O  O305  1  0.48151963  0.72415988  0.24570016  1
  O  O306  1  0.64182906  0.16553244  0.92346425  1
  O  O307  1  0.63997356  0.49969475  0.91805162  1
  O  O308  1  0.64170423  0.83212916  0.92030619  1
  O  O309  1  0.85581515  0.12020768  0.92309862  1
  O  O310  1  0.85789451  0.45232015  0.91707412  1
  O  O311  1  0.85165626  0.78332519  0.92080053  1
  O  O312  1  0.50443525  0.04757296  0.92418815  1
  O  O313  1  0.50045545  0.38039857  0.91636235  1
  O  O314  1  0.50402298  0.71421271  0.92223660  1
  O  O315  1  0.63853538  0.04780318  0.42437957  1
  O  O316  1  0.64103748  0.38043595  0.41635693  1
  O  O317  1  0.64461503  0.71514009  0.42292753  1
  O  O318  1  0.50470618  0.12026757  0.42351634  1
  O  O319  1  0.49943573  0.45239231  0.41715130  1
  O  O320  1  0.50215174  0.78629901  0.42296267  1
  O  O321  1  0.85514403  0.16568016  0.42393488  1
  O  O322  1  0.86089021  0.49992816  0.41792964  1
  O  O323  1  0.85413934  0.83215888  0.42061178  1
  O  O324  1  0.34733401  0.16611142  0.07405626  1
  O  O325  1  0.36400155  0.50259899  0.07835204  1
  O  O326  1  0.35728025  0.83543904  0.07922322  1
  O  O327  1  0.14969142  0.21713061  0.07490350  1
  O  O328  1  0.14506705  0.54519177  0.07806476  1
  O  O329  1  0.14627029  0.88000731  0.07998273  1
  O  O330  1  0.49541250  0.28311696  0.07946345  1
  O  O331  1  0.48984253  0.61923481  0.07812289  1
  O  O332  1  0.49757607  0.95170108  0.07409084  1
  O  O333  1  0.35372665  0.28308183  0.57953672  1
  O  O334  1  0.36884091  0.61937404  0.57847461  1
  O  O335  1  0.35068609  0.95046825  0.57503918  1
  O  O336  1  0.50186796  0.21714807  0.57492468  1
  O  O337  1  0.49029369  0.54537577  0.57852184  1
  O  O338  1  0.49383485  0.88055109  0.57950127  1
  O  O339  1  0.15098655  0.16580034  0.57428161  1
  O  O340  1  0.14445040  0.50255082  0.57916252  1
  O  O341  1  0.14555552  0.83637408  0.57930224  1
  O  O342  1  0.29727254  0.27454759  0.25514356  1
  O  O343  1  0.32140923  0.61199200  0.25697082  1
  O  O344  1  0.30997391  0.94270504  0.25444506  1
  O  O345  1  0.51867928  0.23076104  0.25438602  1
  O  O346  1  0.51987967  0.56162214  0.25922018  1
  O  O347  1  0.52106824  0.89771241  0.25360884  1
  O  O348  1  0.17570326  0.15861705  0.25399151  1
  O  O349  1  0.16496565  0.49478264  0.25417579  1
  O  O350  1  0.16918703  0.82632522  0.25923773  1
  O  O351  1  0.29995267  0.15860310  0.75341545  1
  O  O352  1  0.31852661  0.49452354  0.75427135  1
  O  O353  1  0.30947965  0.82674430  0.75829369  1
  O  O354  1  0.17371320  0.23077749  0.75434053  1
  O  O355  1  0.16453213  0.56193911  0.76029051  1
  O  O356  1  0.17208353  0.89771070  0.75301567  1
  O  O357  1  0.52629138  0.27462492  0.75511023  1
  O  O358  1  0.51399557  0.61208057  0.75686650  1
  O  O359  1  0.51783397  0.94280939  0.75422614  1
