# generated using pymatgen
data_Sr4MgFe2(SO3)2
_symmetry_space_group_name_H-M   'P 1'
_cell_length_a   3.99714200
_cell_length_b   3.99738902
_cell_length_c   15.25715308
_cell_angle_alpha   89.98844115
_cell_angle_beta   89.99911183
_cell_angle_gamma   90.00017196
_symmetry_Int_Tables_number   1
_chemical_formula_structural   Sr4MgFe2(SO3)2
_chemical_formula_sum   'Sr4 Mg1 Fe2 S2 O6'
_cell_volume   243.78079388
_cell_formula_units_Z   1
loop_
 _symmetry_equiv_pos_site_id
 _symmetry_equiv_pos_as_xyz
  1  'x, y, z'
loop_
 _atom_site_type_symbol
 _atom_site_label
 _atom_site_symmetry_multiplicity
 _atom_site_fract_x
 _atom_site_fract_y
 _atom_site_fract_z
 _atom_site_occupancy
  Sr  Sr0  1  0.74999800  0.75002100  0.12501600  1
  Sr  Sr1  1  0.25000500  0.25001600  0.87499500  1
  Sr  Sr2  1  0.74997500  0.74990800  0.36088000  1
  Sr  Sr3  1  0.25000800  0.25028800  0.63911500  1
  Mg  Mg4  1  0.75001600  0.24980200  0.49998400  1
  Fe  Fe5  1  0.24999300  0.24998200  0.24228800  1
  Fe  Fe6  1  0.75000400  0.75007900  0.75773900  1
  S  S7  1  0.24999800  0.25004100  0.08484800  1
  S  S8  1  0.74999600  0.74998500  0.91516300  1
  O  O9  1  0.74999200  0.24999800  0.26215800  1
  O  O10  1  0.24999000  0.74998800  0.25787900  1
  O  O11  1  0.25000500  0.75008100  0.74211200  1
  O  O12  1  0.75000300  0.25007200  0.73785700  1
  O  O13  1  0.25001500  0.24994000  0.44581700  1
  O  O14  1  0.75000300  0.74980400  0.55415000  1
