# generated using pymatgen
data_InAgS2
_symmetry_space_group_name_H-M   'P 1'
_cell_length_a   6.75210035
_cell_length_b   7.06196916
_cell_length_c   8.26838009
_cell_angle_alpha   90.00000000
_cell_angle_beta   90.00000000
_cell_angle_gamma   90.00000000
_symmetry_Int_Tables_number   1
_chemical_formula_structural   InAgS2
_chemical_formula_sum   'In4 Ag4 S8'
_cell_volume   394.26219672
_cell_formula_units_Z   4
loop_
 _symmetry_equiv_pos_site_id
 _symmetry_equiv_pos_as_xyz
  1  'x, y, z'
loop_
 _atom_site_type_symbol
 _atom_site_label
 _atom_site_symmetry_multiplicity
 _atom_site_fract_x
 _atom_site_fract_y
 _atom_site_fract_z
 _atom_site_occupancy
  In  In0  1  0.61417617  0.07657420  0.12656045  1
  In  In1  1  0.11417617  0.92342580  0.87343955  1
  In  In2  1  0.11417617  0.42342580  0.62656045  1
  In  In3  1  0.61417617  0.57657420  0.37343955  1
  Ag  Ag4  1  0.12084974  0.91342741  0.37276619  1
  Ag  Ag5  1  0.62084974  0.58657259  0.87276619  1
  Ag  Ag6  1  0.62084974  0.08657259  0.62723381  1
  Ag  Ag7  1  0.12084974  0.41342741  0.12723381  1
  S  S8  1  0.98204754  0.57528036  0.37956859  1
  S  S9  1  0.48204754  0.42471964  0.62043141  1
  S  S10  1  0.48204754  0.92471964  0.87956859  1
  S  S11  1  0.98204754  0.07528036  0.12043141  1
  S  S12  1  0.99792756  0.59017616  0.87291582  1
  S  S13  1  0.99792756  0.09017616  0.62708418  1
  S  S14  1  0.49792756  0.90982384  0.37291582  1
  S  S15  1  0.49792756  0.40982384  0.12708418  1
