# generated using pymatgen
data_Na4CaIn(PO4)3
_symmetry_space_group_name_H-M   'P 1'
_cell_length_a   9.35403583
_cell_length_b   9.35403548
_cell_length_c   22.58763559
_cell_angle_alpha   90.00000000
_cell_angle_beta   90.00000000
_cell_angle_gamma   120.00000119
_symmetry_Int_Tables_number   1
_chemical_formula_structural   Na4CaIn(PO4)3
_chemical_formula_sum   'Na24 Ca6 In6 P18 O72'
_cell_volume   1711.58882077
_cell_formula_units_Z   6
loop_
 _symmetry_equiv_pos_site_id
 _symmetry_equiv_pos_as_xyz
  1  'x, y, z'
loop_
 _atom_site_type_symbol
 _atom_site_label
 _atom_site_symmetry_multiplicity
 _atom_site_fract_x
 _atom_site_fract_y
 _atom_site_fract_z
 _atom_site_occupancy
  Na  Na0  1  0.63683827  0.00474646  0.24851281  1
  Na  Na1  1  0.36790819  0.36316173  0.24851281  1
  Na  Na2  1  0.99525354  0.63209181  0.24851281  1
  Na  Na3  1  0.63683827  0.63209181  0.74851281  1
  Na  Na4  1  0.99525354  0.36316173  0.74851281  1
  Na  Na5  1  0.36790819  0.00474646  0.74851281  1
  Na  Na6  1  0.30350527  0.33807946  0.58184581  1
  Na  Na7  1  0.03457519  0.69649473  0.58184581  1
  Na  Na8  1  0.66192054  0.96542481  0.58184581  1
  Na  Na9  1  0.30350527  0.96542481  0.08184581  1
  Na  Na10  1  0.66192054  0.69649473  0.08184581  1
  Na  Na11  1  0.03457519  0.33807946  0.08184581  1
  Na  Na12  1  0.97017127  0.67141346  0.91517981  1
  Na  Na13  1  0.70124119  0.02982873  0.91517981  1
  Na  Na14  1  0.32858654  0.29875881  0.91517981  1
  Na  Na15  1  0.97017127  0.29875881  0.41517981  1
  Na  Na16  1  0.32858654  0.02982873  0.41517981  1
  Na  Na17  1  0.70124119  0.67141346  0.41517981  1
  Na  Na18  1  0.00000000  0.00000000  0.49953719  1
  Na  Na19  1  0.00000000  0.00000000  0.99953719  1
  Na  Na20  1  0.66666700  0.33333300  0.83287019  1
  Na  Na21  1  0.66666700  0.33333300  0.33287019  1
  Na  Na22  1  0.33333300  0.66666700  0.16620419  1
  Na  Na23  1  0.33333300  0.66666700  0.66620419  1
  Ca  Ca24  1  0.00000000  0.00000000  0.34869811  1
  Ca  Ca25  1  0.00000000  0.00000000  0.84869811  1
  Ca  Ca26  1  0.66666700  0.33333300  0.68203111  1
  Ca  Ca27  1  0.66666700  0.33333300  0.18203111  1
  Ca  Ca28  1  0.33333300  0.66666700  0.01536511  1
  Ca  Ca29  1  0.33333300  0.66666700  0.51536511  1
  In  In30  1  0.00000000  0.00000000  0.65302477  1
  In  In31  1  0.00000000  0.00000000  0.15302477  1
  In  In32  1  0.66666700  0.33333300  0.98635777  1
  In  In33  1  0.66666700  0.33333300  0.48635777  1
  In  In34  1  0.33333300  0.66666700  0.31969177  1
  In  In35  1  0.33333300  0.66666700  0.81969177  1
  P  P36  1  0.29984666  0.99244903  0.25099471  1
  P  P37  1  0.69260237  0.70015334  0.25099471  1
  P  P38  1  0.00755097  0.30739763  0.25099471  1
  P  P39  1  0.29984666  0.30739763  0.75099471  1
  P  P40  1  0.00755097  0.70015334  0.75099471  1
  P  P41  1  0.69260237  0.99244903  0.75099471  1
  P  P42  1  0.96651366  0.32578203  0.58432771  1
  P  P43  1  0.35926937  0.03348634  0.58432771  1
  P  P44  1  0.67421797  0.64073063  0.58432771  1
  P  P45  1  0.96651366  0.64073063  0.08432771  1
  P  P46  1  0.67421797  0.03348634  0.08432771  1
  P  P47  1  0.35926937  0.32578203  0.08432771  1
  P  P48  1  0.63317966  0.65911603  0.91766171  1
  P  P49  1  0.02593537  0.36682034  0.91766171  1
  P  P50  1  0.34088397  0.97406463  0.91766171  1
  P  P51  1  0.63317966  0.97406463  0.41766171  1
  P  P52  1  0.34088397  0.36682034  0.41766171  1
  P  P53  1  0.02593537  0.65911603  0.41766171  1
  O  O54  1  0.22033669  0.01512189  0.30626284  1
  O  O55  1  0.79478521  0.77966331  0.30626284  1
  O  O56  1  0.98487811  0.20521479  0.30626284  1
  O  O57  1  0.22033669  0.20521479  0.80626284  1
  O  O58  1  0.98487811  0.77966331  0.80626284  1
  O  O59  1  0.79478521  0.01512189  0.80626284  1
  O  O60  1  0.77561938  0.96663321  0.69425911  1
  O  O61  1  0.19101383  0.22438062  0.69425911  1
  O  O62  1  0.03336679  0.80898617  0.69425911  1
  O  O63  1  0.77561938  0.80898617  0.19425911  1
  O  O64  1  0.03336679  0.22438062  0.19425911  1
  O  O65  1  0.19101383  0.96663321  0.19425911  1
  O  O66  1  0.88700369  0.34845489  0.63959584  1
  O  O67  1  0.46145221  0.11299631  0.63959584  1
  O  O68  1  0.65154511  0.53854779  0.63959584  1
  O  O69  1  0.88700369  0.53854779  0.13959584  1
  O  O70  1  0.65154511  0.11299631  0.13959584  1
  O  O71  1  0.46145221  0.34845489  0.13959584  1
  O  O72  1  0.44228638  0.29996621  0.02759211  1
  O  O73  1  0.85768083  0.55771362  0.02759211  1
  O  O74  1  0.70003379  0.14231917  0.02759211  1
  O  O75  1  0.44228638  0.14231917  0.52759211  1
  O  O76  1  0.70003379  0.55771362  0.52759211  1
  O  O77  1  0.85768083  0.29996621  0.52759211  1
  O  O78  1  0.55366969  0.68178889  0.97292984  1
  O  O79  1  0.12811821  0.44633031  0.97292984  1
  O  O80  1  0.31821111  0.87188179  0.97292984  1
  O  O81  1  0.55366969  0.87188179  0.47292984  1
  O  O82  1  0.31821111  0.44633031  0.47292984  1
  O  O83  1  0.12811821  0.68178889  0.47292984  1
  O  O84  1  0.10895238  0.63330021  0.36092611  1
  O  O85  1  0.52434683  0.89104762  0.36092611  1
  O  O86  1  0.36669979  0.47565317  0.36092611  1
  O  O87  1  0.10895238  0.47565317  0.86092611  1
  O  O88  1  0.36669979  0.89104762  0.86092611  1
  O  O89  1  0.52434683  0.63330021  0.86092611  1
  O  O90  1  0.00240653  0.81049213  0.41327063  1
  O  O91  1  0.80808560  0.99759347  0.41327063  1
  O  O92  1  0.18950787  0.19191440  0.41327063  1
  O  O93  1  0.00240653  0.19191440  0.91327063  1
  O  O94  1  0.18950787  0.99759347  0.91327063  1
  O  O95  1  0.80808560  0.81049213  0.91327063  1
  O  O96  1  0.97791062  0.16296278  0.58627988  1
  O  O97  1  0.18505216  0.02208938  0.58627988  1
  O  O98  1  0.83703722  0.81494784  0.58627988  1
  O  O99  1  0.97791062  0.81494784  0.08627988  1
  O  O100  1  0.83703722  0.02208938  0.08627988  1
  O  O101  1  0.18505216  0.16296278  0.08627988  1
  O  O102  1  0.66907353  0.14382513  0.74660363  1
  O  O103  1  0.47475260  0.33092647  0.74660363  1
  O  O104  1  0.85617487  0.52524740  0.74660363  1
  O  O105  1  0.66907353  0.52524740  0.24660363  1
  O  O106  1  0.85617487  0.33092647  0.24660363  1
  O  O107  1  0.47475260  0.14382513  0.24660363  1
  O  O108  1  0.64457762  0.49629578  0.91961288  1
  O  O109  1  0.85171916  0.35542238  0.91961288  1
  O  O110  1  0.50370422  0.14828084  0.91961288  1
  O  O111  1  0.64457762  0.14828084  0.41961288  1
  O  O112  1  0.50370422  0.35542238  0.41961288  1
  O  O113  1  0.85171916  0.49629578  0.41961288  1
  O  O114  1  0.33573953  0.47715913  0.07993763  1
  O  O115  1  0.14141860  0.66426047  0.07993763  1
  O  O116  1  0.52284087  0.85858140  0.07993763  1
  O  O117  1  0.33573953  0.85858140  0.57993763  1
  O  O118  1  0.52284087  0.66426047  0.57993763  1
  O  O119  1  0.14141860  0.47715913  0.57993763  1
  O  O120  1  0.31124362  0.82962978  0.25294688  1
  O  O121  1  0.51838516  0.68875638  0.25294688  1
  O  O122  1  0.17037022  0.48161484  0.25294688  1
  O  O123  1  0.31124362  0.48161484  0.75294688  1
  O  O124  1  0.17037022  0.68875638  0.75294688  1
  O  O125  1  0.51838516  0.82962978  0.75294688  1
