# generated using pymatgen
data_Na4Sc2Si(PO6)2
_symmetry_space_group_name_H-M   'P 1'
_cell_length_a   9.15772721
_cell_length_b   9.15772689
_cell_length_c   22.42591677
_cell_angle_alpha   89.99858059
_cell_angle_beta   90.00141942
_cell_angle_gamma   120.00046826
_symmetry_Int_Tables_number   1
_chemical_formula_structural   Na4Sc2Si(PO6)2
_chemical_formula_sum   'Na24 Sc12 Si6 P12 O72'
_cell_volume   1628.74906132
_cell_formula_units_Z   6
loop_
 _symmetry_equiv_pos_site_id
 _symmetry_equiv_pos_as_xyz
  1  'x, y, z'
loop_
 _atom_site_type_symbol
 _atom_site_label
 _atom_site_symmetry_multiplicity
 _atom_site_fract_x
 _atom_site_fract_y
 _atom_site_fract_z
 _atom_site_occupancy
  Na  Na0  1  0.63858075  0.00364660  0.25134638  1
  Na  Na1  1  0.36138587  0.36493045  0.24870090  1
  Na  Na2  1  0.00012313  0.62855981  0.24998084  1
  Na  Na3  1  0.63506955  0.63861413  0.74870090  1
  Na  Na4  1  0.99635340  0.36141925  0.75134638  1
  Na  Na5  1  0.37144019  -0.00012313  0.74998084  1
  Na  Na6  1  0.30221882  0.32907769  0.58216556  1
  Na  Na7  1  0.03773400  0.70469108  0.58174290  1
  Na  Na8  1  0.66257598  0.96699082  0.58618457  1
  Na  Na9  1  0.29530892  0.96226600  0.08174290  1
  Na  Na10  1  0.67092231  0.69778118  0.08216556  1
  Na  Na11  1  0.03300918  0.33742402  0.08618457  1
  Na  Na12  1  0.97207598  0.67118298  0.91936821  1
  Na  Na13  1  0.69455386  0.03247490  0.91389347  1
  Na  Na14  1  0.33332833  0.29589050  0.91674468  1
  Na  Na15  1  0.96752510  0.30544614  0.41389347  1
  Na  Na16  1  0.32881702  0.02792402  0.41936821  1
  Na  Na17  1  0.70410950  0.66667167  0.41674468  1
  Na  Na18  1  0.00539140  0.99655839  0.49997739  1
  Na  Na19  1  0.00344161  0.99460860  0.99997739  1
  Na  Na20  1  0.66399006  0.32533507  0.83342289  1
  Na  Na21  1  0.67466493  0.33600994  0.33342289  1
  Na  Na22  1  0.32529664  0.66080931  0.16664171  1
  Na  Na23  1  0.33919069  0.67470336  0.66664171  1
  Sc  Sc24  1  0.99924512  0.00063833  0.34988028  1
  Sc  Sc25  1  0.99936167  0.00075488  0.84988028  1
  Sc  Sc26  1  0.99837461  0.99816670  0.65016978  1
  Sc  Sc27  1  0.00183330  0.00162539  0.15016978  1
  Sc  Sc28  1  0.66293817  0.32328295  0.68337352  1
  Sc  Sc29  1  0.67671705  0.33706183  0.18337352  1
  Sc  Sc30  1  0.66740473  0.33512382  0.98358111  1
  Sc  Sc31  1  0.66487618  0.33259527  0.48358111  1
  Sc  Sc32  1  0.32659258  0.66968213  0.01657833  1
  Sc  Sc33  1  0.33031787  0.67340742  0.51657833  1
  Sc  Sc34  1  0.32293594  0.66012640  0.31666988  1
  Sc  Sc35  1  0.33987360  0.67706406  0.81666988  1
  Si  Si36  1  -0.00002646  0.29647220  0.24997693  1
  Si  Si37  1  0.70352780  0.00002646  0.74997693  1
  Si  Si38  1  0.36697505  0.03452844  0.58280808  1
  Si  Si39  1  0.96547156  0.63302495  0.08280808  1
  Si  Si40  1  0.33338801  0.96840961  0.91670001  1
  Si  Si41  1  0.03159039  0.66661199  0.41670001  1
  P  P42  1  0.29738280  0.00142955  0.24999399  1
  P  P43  1  0.70282311  0.70436722  0.24997668  1
  P  P44  1  0.29563278  0.29717689  0.74997668  1
  P  P45  1  0.99857045  0.70261720  0.74999399  1
  P  P46  1  0.96337477  0.33350730  0.58339281  1
  P  P47  1  0.66614176  0.62748082  0.58378212  1
  P  P48  1  0.66649270  0.03662523  0.08339281  1
  P  P49  1  0.37251918  0.33385824  0.08378212  1
  P  P50  1  0.62728888  0.66554078  0.91704721  1
  P  P51  1  0.03923930  0.37157913  0.91617494  1
  P  P52  1  0.62842087  0.96076070  0.41617494  1
  P  P53  1  0.33445922  0.37271112  0.41704721  1
  O  O54  1  0.21222313  0.02722963  0.30559617  1
  O  O55  1  0.81601280  0.78551267  0.30552439  1
  O  O56  1  0.96879887  0.17770796  0.30869694  1
  O  O57  1  0.21448733  0.18398720  0.80552439  1
  O  O58  1  0.97277037  0.78777687  0.80559617  1
  O  O59  1  0.82229204  0.03120113  0.80869694  1
  O  O60  1  0.79121045  0.96893802  0.69128570  1
  O  O61  1  0.18492555  0.21221223  0.69433036  1
  O  O62  1  0.03056979  0.81588030  0.69454027  1
  O  O63  1  0.78778777  0.81507445  0.19433036  1
  O  O64  1  0.03106198  0.20878955  0.19128570  1
  O  O65  1  0.18411970  0.96943021  0.19454027  1
  O  O66  1  0.88249852  0.36541547  0.63880772  1
  O  O67  1  0.48730796  0.12287991  0.64132069  1
  O  O68  1  0.64109191  0.51853772  0.63955712  1
  O  O69  1  0.87712009  0.51269204  0.14132069  1
  O  O70  1  0.63458453  0.11750148  0.13880772  1
  O  O71  1  0.48146228  0.35890809  0.13955712  1
  O  O72  1  0.45459895  0.30438148  0.02788603  1
  O  O73  1  0.84539180  0.54478603  0.02440634  1
  O  O74  1  0.69401072  0.14830840  0.02789996  1
  O  O75  1  0.45521397  0.15460820  0.52440634  1
  O  O76  1  0.69561852  0.54540105  0.52788603  1
  O  O77  1  0.85169160  0.30598928  0.52789996  1
  O  O78  1  0.54438802  0.69242823  0.97276017  1
  O  O79  1  0.15055686  0.45339162  0.97194885  1
  O  O80  1  0.30083610  0.84691800  0.97498033  1
  O  O81  1  0.54660838  0.84944314  0.47194885  1
  O  O82  1  0.30757177  0.45561198  0.47276017  1
  O  O83  1  0.15308200  0.69916390  0.47498033  1
  O  O84  1  0.12044721  0.63403877  0.35845335  1
  O  O85  1  0.51867239  0.87771703  0.36054029  1
  O  O86  1  0.36383471  0.48389914  0.36128647  1
  O  O87  1  0.12228297  0.48132761  0.86054029  1
  O  O88  1  0.36596123  0.87955279  0.85845335  1
  O  O89  1  0.51610086  0.63616529  0.86128647  1
  O  O90  1  0.01688153  0.83834720  0.41240910  1
  O  O91  1  0.80671970  0.97930594  0.41212077  1
  O  O92  1  0.17375132  0.19551038  0.41153850  1
  O  O93  1  0.02069406  0.19328030  0.91212077  1
  O  O94  1  0.16165280  0.98311847  0.91240910  1
  O  O95  1  0.80448962  0.82624868  0.91153850  1
  O  O96  1  0.97748688  0.17161208  0.58861874  1
  O  O97  1  0.17935071  0.01699483  0.58742074  1
  O  O98  1  0.82631954  0.80574902  0.58775813  1
  O  O99  1  0.98300517  0.82064929  0.08742074  1
  O  O100  1  0.82838792  0.02251312  0.08861874  1
  O  O101  1  0.19425098  0.17368046  0.08775813  1
  O  O102  1  0.68835261  0.17240018  0.74695639  1
  O  O103  1  0.47476539  0.31871523  0.74482664  1
  O  O104  1  0.83634850  0.52806182  0.74448906  1
  O  O105  1  0.68128477  0.52523461  0.24482664  1
  O  O106  1  0.82759982  0.31164739  0.24695639  1
  O  O107  1  0.47193818  0.16365150  0.24448906  1
  O  O108  1  0.64596005  0.50593175  0.92111355  1
  O  O109  1  0.86212706  0.35508653  0.92177304  1
  O  O110  1  0.50515699  0.15483730  0.92101042  1
  O  O111  1  0.64491347  0.13787294  0.42177304  1
  O  O112  1  0.49406825  0.35403995  0.42111355  1
  O  O113  1  0.84516270  0.49484301  0.42101042  1
  O  O114  1  0.35772482  0.49487363  0.07794263  1
  O  O115  1  0.15167598  0.64513475  0.08017687  1
  O  O116  1  0.50953901  0.85741770  0.07808367  1
  O  O117  1  0.35486525  0.84832402  0.58017687  1
  O  O118  1  0.50512637  0.64227518  0.57794263  1
  O  O119  1  0.14258230  0.49046099  0.57808367  1
  O  O120  1  0.31885959  0.84388332  0.25517555  1
  O  O121  1  0.52816366  0.69180535  0.25552876  1
  O  O122  1  0.17241888  0.48397857  0.25296112  1
  O  O123  1  0.30819465  0.47183634  0.75552876  1
  O  O124  1  0.15611668  0.68114041  0.75517555  1
  O  O125  1  0.51602143  0.82758112  0.75296112  1
