# generated using pymatgen
data_Sc3NbSiS5O24
_symmetry_space_group_name_H-M   'P 1'
_cell_length_a   8.88312341
_cell_length_b   8.88967633
_cell_length_c   22.92338010
_cell_angle_alpha   90.15864791
_cell_angle_beta   90.14218494
_cell_angle_gamma   120.02729936
_symmetry_Int_Tables_number   1
_chemical_formula_structural   Sc3NbSiS5O24
_chemical_formula_sum   'Sc9 Nb3 Si3 S15 O72'
_cell_volume   1567.23961301
_cell_formula_units_Z   3
loop_
 _symmetry_equiv_pos_site_id
 _symmetry_equiv_pos_as_xyz
  1  'x, y, z'
loop_
 _atom_site_type_symbol
 _atom_site_label
 _atom_site_symmetry_multiplicity
 _atom_site_fract_x
 _atom_site_fract_y
 _atom_site_fract_z
 _atom_site_occupancy
  Sc  Sc0  1  0.01301046  0.00346081  0.35311592  1
  Sc  Sc1  1  0.99343360  0.99816994  0.85850568  1
  Sc  Sc2  1  0.99881429  0.99850691  0.64576435  1
  Sc  Sc3  1  0.01021606  0.99662911  0.14325125  1
  Sc  Sc4  1  0.66842096  0.33352064  0.68842048  1
  Sc  Sc5  1  0.65659246  0.32312947  0.18820399  1
  Sc  Sc6  1  0.66565386  0.33253945  0.47844792  1
  Sc  Sc7  1  0.33738059  0.66030148  0.02074256  1
  Sc  Sc8  1  0.33322013  0.66576549  0.52270695  1
  Nb  Nb9  1  0.67357575  0.33935178  0.97503083  1
  Nb  Nb10  1  0.33419332  0.67197155  0.30820054  1
  Nb  Nb11  1  0.32984930  0.65562985  0.81554593  1
  Si  Si12  1  0.28879561  0.00804581  0.24910887  1
  Si  Si13  1  0.62358778  0.67038900  0.91924390  1
  Si  Si14  1  0.04827759  0.37591291  0.91905220  1
  S  S15  1  0.71321346  0.71138440  0.25042084  1
  S  S16  1  0.99830241  0.28764669  0.25053823  1
  S  S17  1  0.28985763  0.28878311  0.74971492  1
  S  S18  1  0.00191232  0.71135541  0.74963567  1
  S  S19  1  0.70842013  0.99918345  0.74963065  1
  S  S20  1  0.95521545  0.33262294  0.58327658  1
  S  S21  1  0.37756035  0.04472263  0.58331486  1
  S  S22  1  0.66710553  0.62198448  0.58336587  1
  S  S23  1  0.95459722  0.62016794  0.08387252  1
  S  S24  1  0.66693033  0.04514622  0.08329879  1
  S  S25  1  0.37942285  0.33365193  0.08330497  1
  S  S26  1  0.33362029  0.95390733  0.91742338  1
  S  S27  1  0.62109796  0.95328310  0.41706920  1
  S  S28  1  0.33352212  0.38017710  0.41723168  1
  S  S29  1  0.04603065  0.66581249  0.41705809  1
  O  O30  1  0.19905914  0.02622664  0.30772233  1
  O  O31  1  0.81476242  0.79180384  0.30349305  1
  O  O32  1  0.97182398  0.18380733  0.30325566  1
  O  O33  1  0.21359195  0.18423897  0.80141209  1
  O  O34  1  0.97295456  0.78883979  0.80131645  1
  O  O35  1  0.81746194  0.03035766  0.80105236  1
  O  O36  1  0.78791725  0.96865117  0.69708283  1
  O  O37  1  0.18018716  0.21180502  0.69705297  1
  O  O38  1  0.02979514  0.81998660  0.69701797  1
  O  O39  1  0.77999642  0.82047013  0.19869395  1
  O  O40  1  0.03605455  0.21698984  0.19869637  1
  O  O41  1  0.16304800  0.96044528  0.19324602  1
  O  O42  1  0.87501297  0.36257931  0.63519392  1
  O  O43  1  0.48795838  0.12566336  0.63536095  1
  O  O44  1  0.63772173  0.51247477  0.63521832  1
  O  O45  1  0.87190584  0.51235653  0.13531356  1
  O  O46  1  0.64220542  0.12941144  0.13538108  1
  O  O47  1  0.48827577  0.36091804  0.13554847  1
  O  O48  1  0.46382324  0.30540590  0.03118850  1
  O  O49  1  0.83912249  0.53114085  0.03051733  1
  O  O50  1  0.69177238  0.15824117  0.03089014  1
  O  O51  1  0.45881171  0.15429526  0.53099454  1
  O  O52  1  0.69574579  0.54089433  0.53086236  1
  O  O53  1  0.84499947  0.30400895  0.53078965  1
  O  O54  1  0.53326881  0.69928017  0.97389466  1
  O  O55  1  0.16204581  0.47267986  0.97424623  1
  O  O56  1  0.30541689  0.84894888  0.96920298  1
  O  O57  1  0.53737615  0.84397933  0.46835281  1
  O  O58  1  0.30769299  0.46334981  0.46911867  1
  O  O59  1  0.15648810  0.69436892  0.46859223  1
  O  O60  1  0.13232806  0.63856574  0.36427815  1
  O  O61  1  0.50611643  0.86573344  0.36391866  1
  O  O62  1  0.36058463  0.49060679  0.36464916  1
  O  O63  1  0.13779293  0.50624330  0.85965199  1
  O  O64  1  0.36680168  0.87365641  0.86384277  1
  O  O65  1  0.49345825  0.63560479  0.86001046  1
  O  O66  1  0.02496931  0.81737230  0.40825751  1
  O  O67  1  0.79141562  0.97167769  0.40692423  1
  O  O68  1  0.17811620  0.20882018  0.40918213  1
  O  O69  1  0.02410008  0.19263182  0.90388581  1
  O  O70  1  0.18665846  0.97758386  0.90607556  1
  O  O71  1  0.81112945  0.82273127  0.90413657  1
  O  O72  1  0.97463012  0.17857115  0.59221186  1
  O  O73  1  0.20398911  0.02549467  0.59219902  1
  O  O74  1  0.82152446  0.79592070  0.59216031  1
  O  O75  1  0.96300758  0.78967954  0.08863425  1
  O  O76  1  0.82311222  0.03036608  0.09110471  1
  O  O77  1  0.20623737  0.17801023  0.09000949  1
  O  O78  1  0.68763336  0.15251614  0.73955224  1
  O  O79  1  0.46559850  0.31536009  0.73990727  1
  O  O80  1  0.84964288  0.53620123  0.73960761  1
  O  O81  1  0.68711198  0.53736518  0.24215930  1
  O  O82  1  0.85398834  0.31973944  0.24241323  1
  O  O83  1  0.48301807  0.16416308  0.24082509  1
  O  O84  1  0.63338816  0.48920874  0.92926855  1
  O  O85  1  0.85342326  0.35793356  0.92873582  1
  O  O86  1  0.49353112  0.12897359  0.92548752  1
  O  O87  1  0.63483356  0.12477411  0.42432285  1
  O  O88  1  0.48911471  0.36234902  0.42511955  1
  O  O89  1  0.87413232  0.50870913  0.42418111  1
  O  O90  1  0.36142529  0.48727483  0.07667973  1
  O  O91  1  0.12616599  0.64232264  0.07477291  1
  O  O92  1  0.51111903  0.87597878  0.07524417  1
  O  O93  1  0.35859001  0.87139208  0.57391222  1
  O  O94  1  0.51290490  0.64139181  0.57412188  1
  O  O95  1  0.12849265  0.48721926  0.57413196  1
  O  O96  1  0.30999958  0.82935243  0.26449636  1
  O  O97  1  0.53071093  0.68878297  0.26230303  1
  O  O98  1  0.16134185  0.46741697  0.26241368  1
  O  O99  1  0.30796406  0.46721470  0.75776658  1
  O  O100  1  0.16009898  0.69408363  0.75782007  1
  O  O101  1  0.53167158  0.84423405  0.75841861  1
