# generated using pymatgen
data_Na3Sc3TaP5SO24
_symmetry_space_group_name_H-M   'P 1'
_cell_length_a   8.86312684
_cell_length_b   8.84962768
_cell_length_c   22.98597008
_cell_angle_alpha   89.95338310
_cell_angle_beta   90.10091040
_cell_angle_gamma   120.13303874
_symmetry_Int_Tables_number   1
_chemical_formula_structural   Na3Sc3TaP5SO24
_chemical_formula_sum   'Na9 Sc9 Ta3 P15 S3 O72'
_cell_volume   1559.26878918
_cell_formula_units_Z   3
loop_
 _symmetry_equiv_pos_site_id
 _symmetry_equiv_pos_as_xyz
  1  'x, y, z'
loop_
 _atom_site_type_symbol
 _atom_site_label
 _atom_site_symmetry_multiplicity
 _atom_site_fract_x
 _atom_site_fract_y
 _atom_site_fract_z
 _atom_site_occupancy
  Na  Na0  1  0.64488812  0.63939411  0.74756140  1
  Na  Na1  1  0.30068283  0.96372746  0.08496425  1
  Na  Na2  1  0.32933429  0.02333780  0.41316364  1
  Na  Na3  1  0.98427082  0.99930954  0.50096499  1
  Na  Na4  1  0.98959454  0.00036019  0.99817363  1
  Na  Na5  1  0.66604800  0.32246022  0.83041928  1
  Na  Na6  1  0.66904511  0.33621888  0.32761561  1
  Na  Na7  1  0.33287316  0.66094423  0.16717858  1
  Na  Na8  1  0.32213343  0.66053699  0.66091333  1
  Sc  Sc9  1  0.00080800  0.00228662  0.35210083  1
  Sc  Sc10  1  0.00247565  0.00233516  0.85271774  1
  Sc  Sc11  1  0.99488953  0.00137532  0.64797555  1
  Sc  Sc12  1  0.99986425  0.99823032  0.14546085  1
  Sc  Sc13  1  0.67322851  0.33391699  0.68616128  1
  Sc  Sc14  1  0.66118787  0.32882179  0.18501365  1
  Sc  Sc15  1  0.33431756  0.66113598  0.01929421  1
  Sc  Sc16  1  0.33498696  0.65877677  0.51815581  1
  Sc  Sc17  1  0.33345348  0.67225907  0.31620782  1
  Ta  Ta18  1  0.66880830  0.33546349  0.97910599  1
  Ta  Ta19  1  0.67753825  0.34321264  0.48090899  1
  Ta  Ta20  1  0.32838478  0.66594345  0.81536923  1
  P  P21  1  0.29387429  0.99912589  0.25000579  1
  P  P22  1  0.29114051  0.29150960  0.75085833  1
  P  P23  1  0.00334299  0.71214749  0.75045617  1
  P  P24  1  0.70705401  0.00016478  0.75191328  1
  P  P25  1  0.95993637  0.33398412  0.58390347  1
  P  P26  1  0.66741199  0.62621778  0.58529755  1
  P  P27  1  0.95546106  0.62134181  0.08389584  1
  P  P28  1  0.66897352  0.04523920  0.08272738  1
  P  P29  1  0.37915203  0.33561647  0.08330176  1
  P  P30  1  0.62408361  0.66661670  0.91708649  1
  P  P31  1  0.04151847  0.37532894  0.91802109  1
  P  P32  1  0.33371529  0.95786539  0.91902580  1
  P  P33  1  0.62699298  0.95926991  0.41862653  1
  P  P34  1  0.33472009  0.37466123  0.41695927  1
  P  P35  1  0.04376587  0.66751807  0.41721599  1
  S  S36  1  0.70683968  0.70737274  0.25000347  1
  S  S37  1  0.00073015  0.29356314  0.24963459  1
  S  S38  1  0.37631722  0.04297465  0.58229329  1
  O  O39  1  0.20611423  0.01973496  0.30542816  1
  O  O40  1  0.81131480  0.79197405  0.30252978  1
  O  O41  1  0.97666317  0.18770328  0.30224838  1
  O  O42  1  0.20897115  0.18366330  0.80488259  1
  O  O43  1  0.97034301  0.79270020  0.80388857  1
  O  O44  1  0.81583884  0.02396454  0.80556815  1
  O  O45  1  0.77795295  0.95358811  0.69748169  1
  O  O46  1  0.18068039  0.21652819  0.69580413  1
  O  O47  1  0.03778729  0.82184733  0.69534664  1
  O  O48  1  0.78930845  0.81363579  0.19741739  1
  O  O49  1  0.01993624  0.20794593  0.19721183  1
  O  O50  1  0.18460862  0.97859088  0.19434498  1
  O  O51  1  0.86944414  0.35405285  0.63717795  1
  O  O52  1  0.48244883  0.12770178  0.63394102  1
  O  O53  1  0.64312657  0.51898737  0.64041356  1
  O  O54  1  0.86977106  0.51177207  0.13724705  1
  O  O55  1  0.63647532  0.12812157  0.13589430  1
  O  O56  1  0.48776795  0.35846345  0.13716987  1
  O  O57  1  0.47534846  0.31092101  0.02848316  1
  O  O58  1  0.83901695  0.52508937  0.02833868  1
  O  O59  1  0.68865766  0.16303510  0.02758633  1
  O  O60  1  0.46483460  0.15016898  0.52818404  1
  O  O61  1  0.68152650  0.51981084  0.53115283  1
  O  O62  1  0.84052465  0.31536002  0.52894653  1
  O  O63  1  0.53615173  0.68894709  0.97009397  1
  O  O64  1  0.15038730  0.46226465  0.97141902  1
  O  O65  1  0.31216387  0.85428769  0.97415387  1
  O  O66  1  0.54106795  0.85045882  0.47246062  1
  O  O67  1  0.30701155  0.45545875  0.47118349  1
  O  O68  1  0.15722091  0.69982242  0.47071368  1
  O  O69  1  0.11666820  0.62918025  0.36255042  1
  O  O70  1  0.50838693  0.88732585  0.36451154  1
  O  O71  1  0.37109124  0.48609617  0.36258210  1
  O  O72  1  0.13313383  0.49482212  0.86316226  1
  O  O73  1  0.36031779  0.86292452  0.86481183  1
  O  O74  1  0.50781948  0.63720571  0.86114871  1
  O  O75  1  0.01997158  0.82737469  0.41014856  1
  O  O76  1  0.81016301  0.98862338  0.41040022  1
  O  O77  1  0.18122165  0.18516535  0.41092456  1
  O  O78  1  0.01586599  0.19454741  0.90980695  1
  O  O79  1  0.17842820  0.98247823  0.90976664  1
  O  O80  1  0.80574442  0.82173333  0.90945214  1
  O  O81  1  0.97035286  0.16611412  0.58511682  1
  O  O82  1  0.20488324  0.03182269  0.58509333  1
  O  O83  1  0.83759572  0.80280475  0.58530075  1
  O  O84  1  0.97301030  0.80468540  0.08559033  1
  O  O85  1  0.83364833  0.03168746  0.08614591  1
  O  O86  1  0.20211677  0.16245105  0.08528555  1
  O  O87  1  0.67588103  0.15374284  0.74446440  1
  O  O88  1  0.48091265  0.32965344  0.74472233  1
  O  O89  1  0.84075722  0.52750673  0.74460423  1
  O  O90  1  0.69192106  0.53354971  0.24558834  1
  O  O91  1  0.84498523  0.31350937  0.24519961  1
  O  O92  1  0.47665779  0.16454023  0.24611852  1
  O  O93  1  0.63526933  0.49470247  0.92394828  1
  O  O94  1  0.85930236  0.36500377  0.92328048  1
  O  O95  1  0.50599325  0.14128543  0.92351859  1
  O  O96  1  0.63980898  0.14475926  0.42836628  1
  O  O97  1  0.49887110  0.34834585  0.42758228  1
  O  O98  1  0.85590970  0.50201671  0.42663865  1
  O  O99  1  0.35815351  0.49490388  0.07678020  1
  O  O100  1  0.13999879  0.64867630  0.07661502  1
  O  O101  1  0.50141309  0.86744472  0.07530860  1
  O  O102  1  0.35957148  0.86996938  0.57650171  1
  O  O103  1  0.50551926  0.64335509  0.57724311  1
  O  O104  1  0.13698218  0.49931138  0.57659304  1
  O  O105  1  0.31054866  0.83314595  0.25478360  1
  O  O106  1  0.53091364  0.68783154  0.25496475  1
  O  O107  1  0.16058306  0.46743377  0.25470635  1
  O  O108  1  0.31457372  0.48234819  0.76072309  1
  O  O109  1  0.16730502  0.68939711  0.76100275  1
  O  O110  1  0.52083962  0.82805911  0.76158217  1
