# generated using pymatgen
data_Sm3InS6
_symmetry_space_group_name_H-M   'P 1'
_cell_length_a   3.92099260
_cell_length_b   13.70961559
_cell_length_c   16.65109893
_cell_angle_alpha   90.00000000
_cell_angle_beta   90.00000000
_cell_angle_gamma   90.00000000
_symmetry_Int_Tables_number   1
_chemical_formula_structural   Sm3InS6
_chemical_formula_sum   'Sm12 In4 S24'
_cell_volume   895.08483958
_cell_formula_units_Z   4
loop_
 _symmetry_equiv_pos_site_id
 _symmetry_equiv_pos_as_xyz
  1  'x, y, z'
loop_
 _atom_site_type_symbol
 _atom_site_label
 _atom_site_symmetry_multiplicity
 _atom_site_fract_x
 _atom_site_fract_y
 _atom_site_fract_z
 _atom_site_occupancy
  Sm  Sm0  1  0.50000000  0.68870058  0.35409042  1
  Sm  Sm1  1  0.50000000  0.31129942  0.64590958  1
  Sm  Sm2  1  -0.00000000  0.18870058  0.14590958  1
  Sm  Sm3  1  0.00000000  0.81129942  0.85409042  1
  Sm  Sm4  1  0.00000000  0.74820353  0.10625073  1
  Sm  Sm5  1  -0.00000000  0.25179647  0.89374927  1
  Sm  Sm6  1  0.50000000  0.24820353  0.39374927  1
  Sm  Sm7  1  0.50000000  0.75179647  0.60625073  1
  Sm  Sm8  1  0.00000000  0.95962447  0.27698012  1
  Sm  Sm9  1  -0.00000000  0.04037553  0.72301988  1
  Sm  Sm10  1  0.50000000  0.45962447  0.22301988  1
  Sm  Sm11  1  0.50000000  0.54037553  0.77698012  1
  In  In12  1  -0.00000000  0.50000000  -0.00000000  1
  In  In13  1  0.50000000  0.00000000  0.50000000  1
  In  In14  1  0.00000000  0.50000000  0.50000000  1
  In  In15  1  0.50000000  0.00000000  -0.00000000  1
  S  S16  1  0.00000000  0.97892086  0.10336798  1
  S  S17  1  -0.00000000  0.02107914  0.89663202  1
  S  S18  1  0.50000000  0.47892086  0.39663202  1
  S  S19  1  0.50000000  0.52107914  0.60336798  1
  S  S20  1  -0.00000000  0.68959143  0.48008404  1
  S  S21  1  -0.00000000  0.31040857  0.51991596  1
  S  S22  1  0.50000000  0.18959143  0.01991596  1
  S  S23  1  0.50000000  0.81040857  0.98008404  1
  S  S24  1  0.50000000  0.88775818  0.38518088  1
  S  S25  1  0.50000000  0.11224182  0.61481912  1
  S  S26  1  0.00000000  0.38775818  0.11481912  1
  S  S27  1  -0.00000000  0.61224182  0.88518088  1
  S  S28  1  -0.00000000  0.61121450  0.25307780  1
  S  S29  1  0.00000000  0.38878550  0.74692220  1
  S  S30  1  0.50000000  0.11121450  0.24692220  1
  S  S31  1  0.50000000  0.88878550  0.75307780  1
  S  S32  1  0.00000000  0.90546983  0.58402324  1
  S  S33  1  -0.00000000  0.09453017  0.41597676  1
  S  S34  1  0.50000000  0.40546983  0.91597676  1
  S  S35  1  0.50000000  0.59453017  0.08402324  1
  S  S36  1  -0.00000000  0.68214955  0.71372563  1
  S  S37  1  0.00000000  0.31785045  0.28627437  1
  S  S38  1  0.50000000  0.18214955  0.78627437  1
  S  S39  1  0.50000000  0.81785045  0.21372563  1
