# generated using pymatgen
data_MgV2(FeO2)4
_symmetry_space_group_name_H-M   'P 1'
_cell_length_a   5.94997156
_cell_length_b   6.22177847
_cell_length_c   6.03068152
_cell_angle_alpha   62.29513651
_cell_angle_beta   59.90333976
_cell_angle_gamma   66.13049102
_symmetry_Int_Tables_number   1
_chemical_formula_structural   MgV2(FeO2)4
_chemical_formula_sum   'Mg1 V2 Fe4 O8'
_cell_volume   166.66709412
_cell_formula_units_Z   1
loop_
 _symmetry_equiv_pos_site_id
 _symmetry_equiv_pos_as_xyz
  1  'x, y, z'
loop_
 _atom_site_type_symbol
 _atom_site_label
 _atom_site_symmetry_multiplicity
 _atom_site_fract_x
 _atom_site_fract_y
 _atom_site_fract_z
 _atom_site_occupancy
  Mg  Mg0  1  0.12500000  0.62500000  0.12500000  1
  V  V1  1  0.12500000  0.62500000  0.62500000  1
  V  V2  1  0.62500000  0.62500000  0.12500000  1
  Fe  Fe3  1  0.02299500  0.09391993  0.95155679  1
  Fe  Fe4  1  0.22700500  0.15608007  0.29844321  1
  Fe  Fe5  1  0.62500000  0.12500000  0.62500000  1
  Fe  Fe6  1  0.62500000  0.62500000  0.62500000  1
  O  O7  1  0.35007485  0.40315110  0.36873301  1
  O  O8  1  0.41960397  0.81454730  0.38396179  1
  O  O9  1  0.33285509  0.39656862  0.87293340  1
  O  O10  1  0.85506499  0.38887759  0.37263050  1
  O  O11  1  0.39493501  0.86112241  0.87736950  1
  O  O12  1  0.83039603  0.43545270  0.86603821  1
  O  O13  1  0.91714491  0.85343138  0.37706660  1
  O  O14  1  0.89992515  0.84684890  0.88126699  1
