# generated using pymatgen
data_Na3MgTa5Si3(PO6)6
_symmetry_space_group_name_H-M   'P 1'
_cell_length_a   8.77967354
_cell_length_b   8.77967326
_cell_length_c   22.81647324
_cell_angle_alpha   90.00000000
_cell_angle_beta   90.00000000
_cell_angle_gamma   120.00000105
_symmetry_Int_Tables_number   1
_chemical_formula_structural   Na3MgTa5Si3(PO6)6
_chemical_formula_sum   'Na6 Mg2 Ta10 Si6 P12 O72'
_cell_volume   1523.12611496
_cell_formula_units_Z   2
loop_
 _symmetry_equiv_pos_site_id
 _symmetry_equiv_pos_as_xyz
  1  'x, y, z'
loop_
 _atom_site_type_symbol
 _atom_site_label
 _atom_site_symmetry_multiplicity
 _atom_site_fract_x
 _atom_site_fract_y
 _atom_site_fract_z
 _atom_site_occupancy
  Na  Na0  1  -0.00000000  -0.00000000  0.49891568  1
  Na  Na1  1  -0.00000000  -0.00000000  0.99891568  1
  Na  Na2  1  0.66666700  0.33333300  0.82711626  1
  Na  Na3  1  0.66666700  0.33333300  0.32711626  1
  Na  Na4  1  0.33333300  0.66666700  0.16658796  1
  Na  Na5  1  0.33333300  0.66666700  0.66658796  1
  Mg  Mg6  1  0.66666700  0.33333300  0.68719341  1
  Mg  Mg7  1  0.66666700  0.33333300  0.18719341  1
  Ta  Ta8  1  -0.00000000  0.00000000  0.35574859  1
  Ta  Ta9  1  0.00000000  -0.00000000  0.85574859  1
  Ta  Ta10  1  -0.00000000  0.00000000  0.64556603  1
  Ta  Ta11  1  -0.00000000  0.00000000  0.14556603  1
  Ta  Ta12  1  0.66666700  0.33333300  0.97793032  1
  Ta  Ta13  1  0.66666700  0.33333300  0.47793032  1
  Ta  Ta14  1  0.33333300  0.66666700  0.02023083  1
  Ta  Ta15  1  0.33333300  0.66666700  0.52023083  1
  Ta  Ta16  1  0.33333300  0.66666700  0.31191717  1
  Ta  Ta17  1  0.33333300  0.66666700  0.81191717  1
  Si  Si18  1  0.61878499  0.66592850  0.91637601  1
  Si  Si19  1  0.04714250  0.38121501  0.91637601  1
  Si  Si20  1  0.33407150  0.95285750  0.91637601  1
  Si  Si21  1  0.61878499  0.95285750  0.41637601  1
  Si  Si22  1  0.33407150  0.38121501  0.41637601  1
  Si  Si23  1  0.04714250  0.66592850  0.41637601  1
  P  P24  1  0.29136168  0.00321924  0.24986192  1
  P  P25  1  0.71185756  0.70863832  0.24986192  1
  P  P26  1  0.99678076  0.28814244  0.24986192  1
  P  P27  1  0.29136168  0.28814244  0.74986192  1
  P  P28  1  0.99678076  0.70863832  0.74986192  1
  P  P29  1  0.71185756  0.00321924  0.74986192  1
  P  P30  1  0.95332883  0.33484511  0.58551066  1
  P  P31  1  0.38151729  0.04667117  0.58551066  1
  P  P32  1  0.66515489  0.61848271  0.58551066  1
  P  P33  1  0.95332883  0.61848271  0.08551066  1
  P  P34  1  0.66515489  0.04667117  0.08551066  1
  P  P35  1  0.38151729  0.33484511  0.08551066  1
  O  O36  1  0.19282111  0.01861794  0.30418734  1
  O  O37  1  0.82579683  0.80717889  0.30418734  1
  O  O38  1  0.98138206  0.17420317  0.30418734  1
  O  O39  1  0.19282111  0.17420317  0.80418734  1
  O  O40  1  0.98138206  0.80717889  0.80418734  1
  O  O41  1  0.82579683  0.01861794  0.80418734  1
  O  O42  1  0.80389716  0.97355034  0.69503171  1
  O  O43  1  0.16965317  0.19610284  0.69503171  1
  O  O44  1  0.02644966  0.83034683  0.69503171  1
  O  O45  1  0.80389716  0.83034683  0.19503171  1
  O  O46  1  0.02644966  0.19610284  0.19503171  1
  O  O47  1  0.16965317  0.97355034  0.19503171  1
  O  O48  1  0.87684936  0.36552060  0.63959389  1
  O  O49  1  0.48867224  0.12315064  0.63959389  1
  O  O50  1  0.63447940  0.51132776  0.63959389  1
  O  O51  1  0.87684936  0.51132776  0.13959389  1
  O  O52  1  0.63447940  0.12315064  0.13959389  1
  O  O53  1  0.48867224  0.36552060  0.13959389  1
  O  O54  1  0.46349509  0.30427714  0.02915019  1
  O  O55  1  0.84078305  0.53650491  0.02915019  1
  O  O56  1  0.69572286  0.15921695  0.02915019  1
  O  O57  1  0.46349509  0.15921695  0.52915019  1
  O  O58  1  0.69572286  0.53650491  0.52915019  1
  O  O59  1  0.84078305  0.30427714  0.52915019  1
  O  O60  1  0.53102071  0.69892570  0.97417034  1
  O  O61  1  0.16790399  0.46897929  0.97417034  1
  O  O62  1  0.30107430  0.83209601  0.97417034  1
  O  O63  1  0.53102071  0.83209601  0.47417034  1
  O  O64  1  0.30107430  0.46897929  0.47417034  1
  O  O65  1  0.16790399  0.69892570  0.47417034  1
  O  O66  1  0.13588536  0.63326166  0.35830073  1
  O  O67  1  0.49737530  0.86411464  0.35830073  1
  O  O68  1  0.36673834  0.50262470  0.35830073  1
  O  O69  1  0.13588536  0.50262470  0.85830073  1
  O  O70  1  0.36673834  0.86411464  0.85830073  1
  O  O71  1  0.49737530  0.63326166  0.85830073  1
  O  O72  1  0.02483409  0.83760580  0.40748951  1
  O  O73  1  0.81277171  0.97516591  0.40748951  1
  O  O74  1  0.16239420  0.18722829  0.40748951  1
  O  O75  1  0.02483409  0.18722829  0.90748951  1
  O  O76  1  0.16239420  0.97516591  0.90748951  1
  O  O77  1  0.81277171  0.83760580  0.90748951  1
  O  O78  1  0.97608574  0.16711983  0.59107795  1
  O  O79  1  0.19103409  0.02391426  0.59107795  1
  O  O80  1  0.83288017  0.80896591  0.59107795  1
  O  O81  1  0.97608574  0.80896591  0.09107795  1
  O  O82  1  0.83288017  0.02391426  0.09107795  1
  O  O83  1  0.19103409  0.16711983  0.09107795  1
  O  O84  1  0.69425591  0.16334327  0.74526028  1
  O  O85  1  0.46908836  0.30574409  0.74526028  1
  O  O86  1  0.83665673  0.53091164  0.74526028  1
  O  O87  1  0.69425591  0.53091164  0.24526028  1
  O  O88  1  0.83665673  0.30574409  0.24526028  1
  O  O89  1  0.46908836  0.16334327  0.24526028  1
  O  O90  1  0.64060486  0.49453905  0.92638717  1
  O  O91  1  0.85393520  0.35939514  0.92638717  1
  O  O92  1  0.50546095  0.14606480  0.92638717  1
  O  O93  1  0.64060486  0.14606480  0.42638717  1
  O  O94  1  0.50546095  0.35939514  0.42638717  1
  O  O95  1  0.85393520  0.49453905  0.42638717  1
  O  O96  1  0.35171010  0.49419285  0.07536995  1
  O  O97  1  0.14248175  0.64828990  0.07536995  1
  O  O98  1  0.50580715  0.85751825  0.07536995  1
  O  O99  1  0.35171010  0.85751825  0.57536995  1
  O  O100  1  0.50580715  0.64828990  0.57536995  1
  O  O101  1  0.14248175  0.49419285  0.57536995  1
  O  O102  1  0.29841660  0.82911040  0.25516362  1
  O  O103  1  0.53069279  0.70158340  0.25516362  1
  O  O104  1  0.17088960  0.46930721  0.25516362  1
  O  O105  1  0.29841660  0.46930721  0.75516362  1
  O  O106  1  0.17088960  0.70158340  0.75516362  1
  O  O107  1  0.53069279  0.82911040  0.75516362  1
