# generated using pymatgen
data_Tm6MgWO12
_symmetry_space_group_name_H-M   'P 1'
_cell_length_a   6.59565007
_cell_length_b   6.56828713
_cell_length_c   6.34143706
_cell_angle_alpha   98.86796166
_cell_angle_beta   97.81980585
_cell_angle_gamma   100.43712934
_symmetry_Int_Tables_number   1
_chemical_formula_structural   Tm6MgWO12
_chemical_formula_sum   'Tm6 Mg1 W1 O12'
_cell_volume   263.12049224
_cell_formula_units_Z   1
loop_
 _symmetry_equiv_pos_site_id
 _symmetry_equiv_pos_as_xyz
  1  'x, y, z'
loop_
 _atom_site_type_symbol
 _atom_site_label
 _atom_site_symmetry_multiplicity
 _atom_site_fract_x
 _atom_site_fract_y
 _atom_site_fract_z
 _atom_site_occupancy
  Tm  Tm0  1  0.41150600  0.86966300  0.73872600  1
  Tm  Tm1  1  0.32474300  0.57513800  0.14052100  1
  Tm  Tm2  1  0.14848800  0.34277300  0.61044700  1
  Tm  Tm3  1  0.82678100  0.65655200  0.39619500  1
  Tm  Tm4  1  0.69200400  0.39537300  0.86219300  1
  Tm  Tm5  1  0.63608300  0.12500300  0.30493000  1
  Mg  Mg6  1  0.19475900  0.93972800  0.36722300  1
  W  W7  1  0.99180500  0.99872800  0.97372400  1
  O  O8  1  0.05650000  0.91821700  0.67269900  1
  O  O9  1  0.30405300  0.92134400  0.08312400  1
  O  O10  1  0.17236400  0.62535000  0.42583300  1
  O  O11  1  0.57615600  0.82014300  0.42553900  1
  O  O12  1  0.07918500  0.31371900  0.94140000  1
  O  O13  1  0.42549100  0.56552500  0.81672100  1
  O  O14  1  0.57645000  0.40990500  0.18386200  1
  O  O15  1  0.88937700  0.70572500  0.05498800  1
  O  O16  1  0.40985300  0.16200400  0.56835900  1
  O  O17  1  0.82244200  0.39531600  0.56705300  1
  O  O18  1  0.68961700  0.06949200  0.93856000  1
  O  O19  1  0.98067500  0.10697000  0.30290600  1
