# generated using pymatgen
data_Na4Mg3SnP2(SO6)4
_symmetry_space_group_name_H-M   'P 1'
_cell_length_a   8.82202592
_cell_length_b   8.78837732
_cell_length_c   22.51625076
_cell_angle_alpha   90.42353606
_cell_angle_beta   90.06002458
_cell_angle_gamma   120.00955383
_symmetry_Int_Tables_number   1
_chemical_formula_structural   Na4Mg3SnP2(SO6)4
_chemical_formula_sum   'Na12 Mg9 Sn3 P6 S12 O72'
_cell_volume   1511.62313244
_cell_formula_units_Z   3
loop_
 _symmetry_equiv_pos_site_id
 _symmetry_equiv_pos_as_xyz
  1  'x, y, z'
loop_
 _atom_site_type_symbol
 _atom_site_label
 _atom_site_symmetry_multiplicity
 _atom_site_fract_x
 _atom_site_fract_y
 _atom_site_fract_z
 _atom_site_occupancy
  Na  Na0  1  0.63376651  0.99754960  0.25439453  1
  Na  Na1  1  0.36369863  0.36354276  0.25076767  1
  Na  Na2  1  0.30727771  0.33864649  0.59105113  1
  Na  Na3  1  0.66719395  0.95867854  0.58314543  1
  Na  Na4  1  0.97492131  0.67573549  0.91261910  1
  Na  Na5  1  0.32574182  0.29855403  0.90967237  1
  Na  Na6  1  0.98612391  0.98098466  0.49689830  1
  Na  Na7  1  0.99052336  0.00101486  0.99665402  1
  Na  Na8  1  0.65910708  0.32369125  0.82552004  1
  Na  Na9  1  0.67707954  0.33686859  0.33611531  1
  Na  Na10  1  0.32283982  0.66623310  0.16196260  1
  Na  Na11  1  0.32977739  0.66076992  0.66962438  1
  Mg  Mg12  1  0.99227954  0.99610192  0.35478737  1
  Mg  Mg13  1  0.99945376  0.00595358  0.84952879  1
  Mg  Mg14  1  0.99903520  0.99267820  0.65466552  1
  Mg  Mg15  1  0.99992140  0.99751859  0.14729888  1
  Mg  Mg16  1  0.66004680  0.34187857  0.68872445  1
  Mg  Mg17  1  0.67447974  0.34002385  0.18189434  1
  Mg  Mg18  1  0.33592828  0.66846170  0.01586001  1
  Mg  Mg19  1  0.34043499  0.67242546  0.51442053  1
  Mg  Mg20  1  0.33174679  0.67489239  0.32196496  1
  Sn  Sn21  1  0.66668262  0.32768759  0.98205383  1
  Sn  Sn22  1  0.66978639  0.33677567  0.48169055  1
  Sn  Sn23  1  0.33481194  0.66136788  0.81600208  1
  P  P24  1  0.29403327  0.29228743  0.75019105  1
  P  P25  1  0.66859305  0.62794141  0.58405394  1
  P  P26  1  0.62992312  0.67261575  0.91982757  1
  P  P27  1  0.04172487  0.37262536  0.91903813  1
  P  P28  1  0.33155878  0.95496242  0.91812660  1
  P  P29  1  0.63133549  0.96375762  0.41727544  1
  S  S30  1  0.28901496  0.99780849  0.24966073  1
  S  S31  1  0.70926289  0.70674571  0.24971619  1
  S  S32  1  0.00129791  0.29298425  0.24990638  1
  S  S33  1  0.00117838  0.70593463  0.75117949  1
  S  S34  1  0.70619086  0.00175718  0.74919980  1
  S  S35  1  0.96169890  0.33621634  0.58496058  1
  S  S36  1  0.37207387  0.03837241  0.58423836  1
  S  S37  1  0.96317919  0.62904065  0.08458625  1
  S  S38  1  0.66627585  0.03635160  0.08616321  1
  S  S39  1  0.37035504  0.33340241  0.08548558  1
  S  S40  1  0.33086340  0.37097137  0.41611945  1
  S  S41  1  0.04250056  0.66848905  0.41704901  1
  O  O42  1  0.21057881  0.02960256  0.30241687  1
  O  O43  1  0.81425373  0.78677773  0.30291350  1
  O  O44  1  0.97064698  0.18223675  0.30229189  1
  O  O45  1  0.20855534  0.19153843  0.80692896  1
  O  O46  1  0.97898107  0.78427525  0.80621656  1
  O  O47  1  0.80890696  0.01948066  0.80212130  1
  O  O48  1  0.77916101  0.97114774  0.69406007  1
  O  O49  1  0.18701834  0.21419633  0.69264046  1
  O  O50  1  0.02652067  0.81214806  0.69853287  1
  O  O51  1  0.78759605  0.81680203  0.19687422  1
  O  O52  1  0.03164779  0.21274362  0.19637873  1
  O  O53  1  0.18513560  0.97489858  0.19589202  1
  O  O54  1  0.87479311  0.35969099  0.63619584  1
  O  O55  1  0.49025456  0.12230059  0.63488728  1
  O  O56  1  0.63356353  0.50286328  0.63476018  1
  O  O57  1  0.87357512  0.51596533  0.13499859  1
  O  O58  1  0.64311114  0.12243112  0.13919232  1
  O  O59  1  0.48053033  0.35633594  0.13801794  1
  O  O60  1  0.44998837  0.30270313  0.02958471  1
  O  O61  1  0.85509131  0.55202260  0.02761690  1
  O  O62  1  0.69848833  0.14879788  0.03148951  1
  O  O63  1  0.44744727  0.15143442  0.52891862  1
  O  O64  1  0.70199688  0.54990002  0.52470702  1
  O  O65  1  0.84825644  0.29503630  0.52925931  1
  O  O66  1  0.54493161  0.69546921  0.97427009  1
  O  O67  1  0.15570526  0.45748703  0.97312247  1
  O  O68  1  0.30224559  0.84351755  0.97209202  1
  O  O69  1  0.54558835  0.86114485  0.47355792  1
  O  O70  1  0.30990781  0.45242694  0.47025950  1
  O  O71  1  0.14219473  0.68567341  0.47088325  1
  O  O72  1  0.11717588  0.63627809  0.36325518  1
  O  O73  1  0.52328149  0.88807824  0.35968990  1
  O  O74  1  0.35770433  0.47681532  0.36202569  1
  O  O75  1  0.11330065  0.49388563  0.86294074  1
  O  O76  1  0.37003372  0.88013230  0.86068934  1
  O  O77  1  0.51006593  0.62210105  0.86311879  1
  O  O78  1  0.02263158  0.82435748  0.41102440  1
  O  O79  1  0.81479156  0.98745858  0.41181758  1
  O  O80  1  0.17882659  0.19367685  0.40979657  1
  O  O81  1  0.02115083  0.19182876  0.91016208  1
  O  O82  1  0.17215026  0.98008013  0.91040748  1
  O  O83  1  0.81489978  0.82395017  0.91031485  1
  O  O84  1  0.98042781  0.17664227  0.58900005  1
  O  O85  1  0.19982853  0.02618231  0.59007803  1
  O  O86  1  0.82814249  0.81450952  0.58942664  1
  O  O87  1  0.97725890  0.80283590  0.08988246  1
  O  O88  1  0.82475099  0.02119760  0.09066173  1
  O  O89  1  0.19696242  0.17418593  0.08983213  1
  O  O90  1  0.68716112  0.15854311  0.74330861  1
  O  O91  1  0.47796704  0.31541928  0.74614892  1
  O  O92  1  0.84879505  0.52749879  0.74484125  1
  O  O93  1  0.68206914  0.52506230  0.24272614  1
  O  O94  1  0.84096181  0.30893503  0.24278340  1
  O  O95  1  0.47058536  0.15925215  0.24395483  1
  O  O96  1  0.64412122  0.49693913  0.92417619  1
  O  O97  1  0.85741765  0.36237512  0.92371644  1
  O  O98  1  0.49656094  0.14695515  0.92284239  1
  O  O99  1  0.64617974  0.15418539  0.42176013  1
  O  O100  1  0.49615319  0.35726366  0.42025546  1
  O  O101  1  0.86011856  0.50494718  0.42026745  1
  O  O102  1  0.35770103  0.49302085  0.07929030  1
  O  O103  1  0.13531538  0.64264197  0.07833981  1
  O  O104  1  0.50691414  0.86466520  0.07889818  1
  O  O105  1  0.35549319  0.86412904  0.57549217  1
  O  O106  1  0.49989789  0.64255075  0.57648818  1
  O  O107  1  0.13624433  0.49152222  0.57621810  1
  O  O108  1  0.31511211  0.84293356  0.25499998  1
  O  O109  1  0.52799570  0.68533704  0.25525099  1
  O  O110  1  0.16109698  0.46995486  0.25711497  1
  O  O111  1  0.31021223  0.48327665  0.75331589  1
  O  O112  1  0.16704509  0.69311188  0.75480686  1
  O  O113  1  0.52450645  0.83863652  0.75370485  1
