# generated using pymatgen
data_Na4YAlSi2SO12
_symmetry_space_group_name_H-M   'P 1'
_cell_length_a   9.16328980
_cell_length_b   9.14347828
_cell_length_c   22.24343734
_cell_angle_alpha   89.70514470
_cell_angle_beta   90.22098591
_cell_angle_gamma   119.61189076
_symmetry_Int_Tables_number   1
_chemical_formula_structural   Na4YAlSi2SO12
_chemical_formula_sum   'Na24 Y6 Al6 Si12 S6 O72'
_cell_volume   1620.22136012
_cell_formula_units_Z   6
loop_
 _symmetry_equiv_pos_site_id
 _symmetry_equiv_pos_as_xyz
  1  'x, y, z'
loop_
 _atom_site_type_symbol
 _atom_site_label
 _atom_site_symmetry_multiplicity
 _atom_site_fract_x
 _atom_site_fract_y
 _atom_site_fract_z
 _atom_site_occupancy
  Na  Na0  1  0.64500019  0.99930524  0.25634226  1
  Na  Na1  1  0.35562478  0.36987055  0.24442553  1
  Na  Na2  1  0.99546333  0.62924976  0.25914645  1
  Na  Na3  1  0.62496327  0.62665732  0.72922006  1
  Na  Na4  1  0.99579878  0.34880368  0.75174131  1
  Na  Na5  1  0.38366461  0.01750332  0.75023398  1
  Na  Na6  1  0.31181851  0.33213877  0.59160005  1
  Na  Na7  1  0.04177128  0.71792606  0.57449465  1
  Na  Na8  1  0.66282300  0.94818723  0.58978561  1
  Na  Na9  1  0.28617799  0.96996689  0.07520841  1
  Na  Na10  1  0.67443318  0.68649441  0.09530369  1
  Na  Na11  1  0.04932696  0.33967431  0.09316949  1
  Na  Na12  1  0.99122462  0.66605590  0.92564872  1
  Na  Na13  1  0.69244880  0.04327565  0.90206121  1
  Na  Na14  1  0.31748479  0.28699697  0.92283041  1
  Na  Na15  1  0.95660721  0.30282452  0.40722424  1
  Na  Na16  1  0.32814117  0.01820759  0.42054450  1
  Na  Na17  1  0.70375937  0.67126660  0.42343701  1
  Na  Na18  1  0.99021419  0.97652383  0.49903850  1
  Na  Na19  1  0.02599886  0.01338678  0.00204542  1
  Na  Na20  1  0.65594628  0.30753771  0.82884679  1
  Na  Na21  1  0.67880701  0.34013256  0.33597358  1
  Na  Na22  1  0.32173965  0.64394279  0.17454337  1
  Na  Na23  1  0.35425591  0.67822546  0.66205050  1
  Y  Y24  1  0.00898491  0.01639466  0.84356077  1
  Y  Y25  1  0.99660240  0.00092390  0.16165712  1
  Y  Y26  1  0.66673495  0.33389740  0.98578226  1
  Y  Y27  1  0.32342949  0.65587520  0.02185700  1
  Y  Y28  1  0.34220639  0.68176719  0.51533600  1
  Y  Y29  1  0.33410084  0.66628522  0.80931356  1
  Al  Al30  1  0.95073094  0.97434641  0.34962161  1
  Al  Al31  1  0.00144192  0.99699330  0.64491830  1
  Al  Al32  1  0.63659968  0.31283467  0.68048014  1
  Al  Al33  1  0.68914995  0.37381516  0.19063848  1
  Al  Al34  1  0.66451999  0.33323316  0.48272005  1
  Al  Al35  1  0.32654876  0.67045038  0.32030088  1
  Si  Si36  1  0.67790694  0.69366942  0.25346393  1
  Si  Si37  1  0.00083096  0.30644905  0.25432916  1
  Si  Si38  1  0.30109586  0.29238100  0.74028348  1
  Si  Si39  1  0.71052201  0.01470357  0.73855857  1
  Si  Si40  1  0.37077565  0.04981720  0.58119348  1
  Si  Si41  1  0.67963939  0.61798240  0.58382361  1
  Si  Si42  1  0.96631587  0.63559253  0.08844891  1
  Si  Si43  1  0.37932909  0.33183530  0.09256049  1
  Si  Si44  1  0.02471600  0.35744706  0.91442254  1
  Si  Si45  1  0.33306776  0.97132943  0.91579030  1
  Si  Si46  1  0.63050893  0.97137104  0.41605884  1
  Si  Si47  1  0.03020743  0.67477948  0.41455150  1
  S  S48  1  0.30485315  0.99441878  0.25619610  1
  S  S49  1  0.99207559  0.69998156  0.74296302  1
  S  S50  1  0.94543478  0.32407621  0.58110611  1
  S  S51  1  0.66869045  0.03816992  0.09003100  1
  S  S52  1  0.63875404  0.66989675  0.91555532  1
  S  S53  1  0.33249744  0.36703650  0.41517409  1
  O  O54  1  0.21318954  0.01837011  0.30599438  1
  O  O55  1  0.81969657  0.79600713  0.30520773  1
  O  O56  1  0.97052855  0.15929507  0.30527205  1
  O  O57  1  0.23804561  0.19733113  0.80508831  1
  O  O58  1  0.97067308  0.77016401  0.80033554  1
  O  O59  1  0.80376270  0.04133242  0.80385448  1
  O  O60  1  0.81858506  0.98472037  0.68556898  1
  O  O61  1  0.16832014  0.17788541  0.68703676  1
  O  O62  1  0.00744740  0.81138215  0.69172735  1
  O  O63  1  0.74249893  0.80621630  0.19199153  1
  O  O64  1  0.05075963  0.25016705  0.19172454  1
  O  O65  1  0.21042473  0.96911955  0.19860008  1
  O  O66  1  0.86713787  0.34581455  0.63532755  1
  O  O67  1  0.48626784  0.13621241  0.64004823  1
  O  O68  1  0.66693431  0.50131113  0.64181837  1
  O  O69  1  0.85902373  0.51718025  0.14565035  1
  O  O70  1  0.65942158  0.13176097  0.14219076  1
  O  O71  1  0.50183013  0.33329124  0.14800028  1
  O  O72  1  0.44567812  0.31153014  0.02669027  1
  O  O73  1  0.87290770  0.55788216  0.02452047  1
  O  O74  1  0.67834216  0.12424214  0.03215270  1
  O  O75  1  0.46863188  0.16877821  0.52197930  1
  O  O76  1  0.69920361  0.52734381  0.52236158  1
  O  O77  1  0.84647910  0.31034144  0.52581687  1
  O  O78  1  0.55884396  0.68581598  0.97096725  1
  O  O79  1  0.13732930  0.44690347  0.97457524  1
  O  O80  1  0.33140831  0.87048894  0.97734173  1
  O  O81  1  0.57420898  0.85723074  0.47727819  1
  O  O82  1  0.30035132  0.43306483  0.47197471  1
  O  O83  1  0.14224158  0.72035438  0.47644177  1
  O  O84  1  0.13807454  0.64537060  0.36153833  1
  O  O85  1  0.49396044  0.86621588  0.36230644  1
  O  O86  1  0.35204448  0.48135695  0.36448482  1
  O  O87  1  0.12274300  0.46220086  0.85385473  1
  O  O88  1  0.35515572  0.88088404  0.85565180  1
  O  O89  1  0.53903889  0.65966797  0.86146489  1
  O  O90  1  0.00890778  0.84506523  0.40225610  1
  O  O91  1  0.82132347  0.99767946  0.40548418  1
  O  O92  1  0.18936687  0.19523895  0.40672314  1
  O  O93  1  0.99760417  0.16697382  0.91703313  1
  O  O94  1  0.15321579  0.96864611  0.91593096  1
  O  O95  1  0.80757396  0.81768381  0.91204542  1
  O  O96  1  0.96104468  0.16840545  0.58284055  1
  O  O97  1  0.17785850  0.02739558  0.58657569  1
  O  O98  1  0.84514915  0.81356753  0.58928119  1
  O  O99  1  0.98389708  0.82235945  0.09173587  1
  O  O100  1  0.82360767  0.02357216  0.09032396  1
  O  O101  1  0.18832909  0.17101977  0.09545003  1
  O  O102  1  0.69728097  0.18927367  0.73176715  1
  O  O103  1  0.49405494  0.32100838  0.73682860  1
  O  O104  1  0.84916562  0.52825189  0.73850259  1
  O  O105  1  0.66741231  0.50687396  0.24894447  1
  O  O106  1  0.82377758  0.31784478  0.24658781  1
  O  O107  1  0.47621527  0.14110729  0.25271831  1
  O  O108  1  0.65001308  0.51465626  0.91554766  1
  O  O109  1  0.84317525  0.34985236  0.91355316  1
  O  O110  1  0.49255758  0.16258354  0.91442345  1
  O  O111  1  0.64718005  0.16029728  0.42487438  1
  O  O112  1  0.49329066  0.36201408  0.41881159  1
  O  O113  1  0.84447882  0.49951161  0.42119080  1
  O  O114  1  0.37735330  0.51073469  0.09453745  1
  O  O115  1  0.15245990  0.65125753  0.09207405  1
  O  O116  1  0.51934641  0.86767324  0.09002985  1
  O  O117  1  0.34830342  0.85865214  0.58162670  1
  O  O118  1  0.50521492  0.63120495  0.58364957  1
  O  O119  1  0.11912793  0.47215271  0.57728640  1
  O  O120  1  0.31631376  0.83654821  0.26155526  1
  O  O121  1  0.49148657  0.67033312  0.26816471  1
  O  O122  1  0.16261263  0.49348839  0.26847825  1
  O  O123  1  0.31472288  0.47859363  0.73845744  1
  O  O124  1  0.15088507  0.69225221  0.74291949  1
  O  O125  1  0.52273706  0.84708525  0.73933993  1
