# generated using pymatgen
data_VCl3O
_symmetry_space_group_name_H-M   'P 1'
_cell_length_a   4.96398277
_cell_length_b   9.37686286
_cell_length_c   11.53302141
_cell_angle_alpha   90.00000000
_cell_angle_beta   90.00000000
_cell_angle_gamma   90.00000000
_symmetry_Int_Tables_number   1
_chemical_formula_structural   VCl3O
_chemical_formula_sum   'V4 Cl12 O4'
_cell_volume   536.82276914
_cell_formula_units_Z   4
loop_
 _symmetry_equiv_pos_site_id
 _symmetry_equiv_pos_as_xyz
  1  'x, y, z'
loop_
 _atom_site_type_symbol
 _atom_site_label
 _atom_site_symmetry_multiplicity
 _atom_site_fract_x
 _atom_site_fract_y
 _atom_site_fract_z
 _atom_site_occupancy
  V  V0  1  0.35760147  0.75000000  0.54585744  1
  V  V1  1  0.85760347  0.75000000  0.95414256  1
  V  V2  1  0.64239853  0.25000000  0.45414256  1
  V  V3  1  0.14239753  0.25000000  0.04585744  1
  Cl  Cl4  1  0.24157826  0.75000000  0.36739654  1
  Cl  Cl5  1  0.75842274  0.25000000  0.63260346  1
  Cl  Cl6  1  0.74157726  0.75000000  0.13260346  1
  Cl  Cl7  1  0.25842174  0.25000000  0.86739754  1
  Cl  Cl8  1  0.27688887  0.06111580  0.13149290  1
  Cl  Cl9  1  0.77688987  0.43888520  0.36850710  1
  Cl  Cl10  1  0.77688987  0.06111580  0.36850710  1
  Cl  Cl11  1  0.22311013  0.93888420  0.63149190  1
  Cl  Cl12  1  0.72311013  0.93888420  0.86850710  1
  Cl  Cl13  1  0.22311013  0.56111580  0.63149190  1
  Cl  Cl14  1  0.27688887  0.43888520  0.13149290  1
  Cl  Cl15  1  0.72311013  0.56111580  0.86850710  1
  O  O16  1  0.67686305  0.75000000  0.55062194  1
  O  O17  1  0.17686205  0.75000000  0.94937906  1
  O  O18  1  0.32313695  0.25000000  0.44937806  1
  O  O19  1  0.82313595  0.25000000  0.05062194  1
