# generated using pymatgen
data_Na6Mg(CoO3)2
_symmetry_space_group_name_H-M   'P 1'
_cell_length_a   5.91705208
_cell_length_b   6.27639130
_cell_length_c   6.26462843
_cell_angle_alpha   61.75491350
_cell_angle_beta   90.73256663
_cell_angle_gamma   88.86912726
_symmetry_Int_Tables_number   1
_chemical_formula_structural   Na6Mg(CoO3)2
_chemical_formula_sum   'Na6 Mg1 Co2 O6'
_cell_volume   204.84770356
_cell_formula_units_Z   1
loop_
 _symmetry_equiv_pos_site_id
 _symmetry_equiv_pos_as_xyz
  1  'x, y, z'
loop_
 _atom_site_type_symbol
 _atom_site_label
 _atom_site_symmetry_multiplicity
 _atom_site_fract_x
 _atom_site_fract_y
 _atom_site_fract_z
 _atom_site_occupancy
  Na  Na0  1  0.38409332  0.44227794  0.66838676  1
  Na  Na1  1  0.49827063  0.83798701  0.17645703  1
  Na  Na2  1  0.07379964  0.06937569  0.75714260  1
  Na  Na3  1  0.02840289  0.85892833  0.36552360  1
  Na  Na4  1  0.16613301  0.58891784  0.96303205  1
  Na  Na5  1  0.81357047  0.31307036  0.97390496  1
  Mg  Mg6  1  0.84332588  0.45814673  0.34165806  1
  Co  Co7  1  0.65409324  0.82078114  0.67644011  1
  Co  Co8  1  0.36392026  0.18637535  0.33589566  1
  O  O9  1  0.74204033  0.57280687  0.56893838  1
  O  O10  1  0.18151701  0.43506792  0.37159556  1
  O  O11  1  0.79816988  0.72833661  0.99577146  1
  O  O12  1  0.23320324  0.17825684  0.04126263  1
  O  O13  1  0.71337968  0.15099520  0.37733163  1
  O  O14  1  0.31858052  0.85867519  0.62624251  1
