# generated using pymatgen
data_MgV3O6
_symmetry_space_group_name_H-M   'P 1'
_cell_length_a   5.13895327
_cell_length_b   5.28737672
_cell_length_c   5.27998369
_cell_angle_alpha   113.87805399
_cell_angle_beta   74.33902729
_cell_angle_gamma   74.60271941
_symmetry_Int_Tables_number   1
_chemical_formula_structural   MgV3O6
_chemical_formula_sum   'Mg1 V3 O6'
_cell_volume   114.30094232
_cell_formula_units_Z   1
loop_
 _symmetry_equiv_pos_site_id
 _symmetry_equiv_pos_as_xyz
  1  'x, y, z'
loop_
 _atom_site_type_symbol
 _atom_site_label
 _atom_site_symmetry_multiplicity
 _atom_site_fract_x
 _atom_site_fract_y
 _atom_site_fract_z
 _atom_site_occupancy
  Mg  Mg0  1  0.34188900  0.49303800  0.48613800  1
  V  V1  1  0.99315200  0.03043700  0.02855700  1
  V  V2  1  0.51776900  0.80225200  0.14659500  1
  V  V3  1  0.51213300  0.15641300  0.80076500  1
  O  O4  1  0.22793900  0.20356900  0.20112000  1
  O  O5  1  0.28016900  0.61583700  0.92704900  1
  O  O6  1  0.27988000  0.93642700  0.61633000  1
  O  O7  1  0.69299000  0.38612300  0.07759900  1
  O  O8  1  0.69968100  0.08258200  0.37495300  1
  O  O9  1  0.79189900  0.80956800  0.79964700  1
