# generated using pymatgen
data_VP2O7
_symmetry_space_group_name_H-M   'P 1'
_cell_length_a   5.12872081
_cell_length_b   8.46304846
_cell_length_c   13.20935337
_cell_angle_alpha   62.40945943
_cell_angle_beta   90.00000000
_cell_angle_gamma   90.00000000
_symmetry_Int_Tables_number   1
_chemical_formula_structural   VP2O7
_chemical_formula_sum   'V4 P8 O28'
_cell_volume   508.14589396
_cell_formula_units_Z   4
loop_
 _symmetry_equiv_pos_site_id
 _symmetry_equiv_pos_as_xyz
  1  'x, y, z'
loop_
 _atom_site_type_symbol
 _atom_site_label
 _atom_site_symmetry_multiplicity
 _atom_site_fract_x
 _atom_site_fract_y
 _atom_site_fract_z
 _atom_site_occupancy
  V  V0  1  0.25726439  0.72950005  0.53462989  1
  V  V1  1  0.75726439  0.27049995  0.96537011  1
  V  V2  1  0.24273561  0.72950005  0.03462989  1
  V  V3  1  0.74273561  0.27049995  0.46537011  1
  P  P4  1  0.25775750  0.16923305  0.36147997  1
  P  P5  1  0.75775750  0.83076695  0.13852003  1
  P  P6  1  0.26707850  0.30322627  0.11479745  1
  P  P7  1  0.73292150  0.69677373  0.88520255  1
  P  P8  1  0.24224250  0.16923305  0.86147997  1
  P  P9  1  0.74224250  0.83076695  0.63852003  1
  P  P10  1  0.23292150  0.30322627  0.61479745  1
  P  P11  1  0.76707850  0.69677373  0.38520255  1
  O  O12  1  0.97001858  0.24353040  0.85382020  1
  O  O13  1  0.57424719  0.74427819  0.45139742  1
  O  O14  1  0.07424719  0.25572181  0.04860258  1
  O  O15  1  0.21230797  0.48444108  0.11029617  1
  O  O16  1  0.23130364  0.97625358  0.45194334  1
  O  O17  1  0.02998142  0.75646960  0.14617980  1
  O  O18  1  0.52998142  0.24353040  0.35382020  1
  O  O19  1  0.95400086  0.71951381  0.62486393  1
  O  O20  1  0.42575281  0.25572181  0.54860258  1
  O  O21  1  0.04599914  0.28048619  0.37513607  1
  O  O22  1  0.47001858  0.75646960  0.64617980  1
  O  O23  1  0.28769203  0.48444108  0.61029617  1
  O  O24  1  0.95391350  0.28923021  0.58463241  1
  O  O25  1  0.78769203  0.51555892  0.88970383  1
  O  O26  1  0.26869636  0.97625358  0.95194334  1
  O  O27  1  0.21758900  0.16204229  0.24440277  1
  O  O28  1  0.54599914  0.71951381  0.12486393  1
  O  O29  1  0.78241100  0.83795771  0.75559723  1
  O  O30  1  0.71758900  0.83795771  0.25559723  1
  O  O31  1  0.54608650  0.28923021  0.08463241  1
  O  O32  1  0.71230797  0.51555892  0.38970383  1
  O  O33  1  0.73130364  0.02374642  0.04805666  1
  O  O34  1  0.45391350  0.71076979  0.91536759  1
  O  O35  1  0.04608650  0.71076979  0.41536759  1
  O  O36  1  0.76869636  0.02374642  0.54805666  1
  O  O37  1  0.28241100  0.16204229  0.74440277  1
  O  O38  1  0.92575281  0.74427819  0.95139742  1
  O  O39  1  0.45400086  0.28048619  0.87513607  1
