# generated using pymatgen
data_Ca2Ta4Si3(SO6)6
_symmetry_space_group_name_H-M   'P 1'
_cell_length_a   9.01795531
_cell_length_b   8.99778231
_cell_length_c   23.02139912
_cell_angle_alpha   90.26292364
_cell_angle_beta   90.00000000
_cell_angle_gamma   120.07419237
_symmetry_Int_Tables_number   1
_chemical_formula_structural   Ca2Ta4Si3(SO6)6
_chemical_formula_sum   'Ca4 Ta8 Si6 S12 O72'
_cell_volume   1616.49598914
_cell_formula_units_Z   2
loop_
 _symmetry_equiv_pos_site_id
 _symmetry_equiv_pos_as_xyz
  1  'x, y, z'
loop_
 _atom_site_type_symbol
 _atom_site_label
 _atom_site_symmetry_multiplicity
 _atom_site_fract_x
 _atom_site_fract_y
 _atom_site_fract_z
 _atom_site_occupancy
  Ca  Ca0  1  0.99428064  0.00136606  0.36404200  1
  Ca  Ca1  1  0.00708543  0.00136606  0.86404200  1
  Ca  Ca2  1  0.66994153  0.33856160  0.68633305  1
  Ca  Ca3  1  0.66862107  0.33856160  0.18633305  1
  Ta  Ta4  1  0.99635257  0.00254845  0.64197663  1
  Ta  Ta5  1  0.00619587  0.00254845  0.14197663  1
  Ta  Ta6  1  0.65487022  0.33914973  0.97956266  1
  Ta  Ta7  1  0.68428051  0.33914973  0.47956266  1
  Ta  Ta8  1  0.32597832  0.67187593  0.02411620  1
  Ta  Ta9  1  0.34589661  0.67187593  0.52411620  1
  Ta  Ta10  1  0.34058675  0.67623585  0.30916759  1
  Ta  Ta11  1  0.33564810  0.67623585  0.80916759  1
  Si  Si12  1  0.96290673  0.33839937  0.58370393  1
  Si  Si13  1  0.66920025  0.62012611  0.58427373  1
  Si  Si14  1  0.95092687  0.62012611  0.08427373  1
  Si  Si15  1  0.37549364  0.33839937  0.08370393  1
  Si  Si16  1  0.35256403  0.96155660  0.91767741  1
  Si  Si17  1  0.60899157  0.96155660  0.41767741  1
  S  S18  1  0.27841309  0.98685241  0.25052290  1
  S  S19  1  0.70800508  0.71924370  0.25079111  1
  S  S20  1  0.01121168  0.29153940  0.25146143  1
  S  S21  1  0.28032772  0.29153940  0.75146143  1
  S  S22  1  0.01123862  0.71924370  0.75079111  1
  S  S23  1  0.70843932  0.98685241  0.75052290  1
  S  S24  1  0.37018182  0.04059994  0.58191033  1
  S  S25  1  0.67041912  0.04059994  0.08191033  1
  S  S26  1  0.60305469  0.65208502  0.91691957  1
  S  S27  1  0.04713219  0.39877949  0.91702457  1
  S  S28  1  0.35164630  0.39877949  0.41702457  1
  S  S29  1  0.04902933  0.65208502  0.41691957  1
  O  O30  1  0.20310792  0.01135500  0.30219486  1
  O  O31  1  0.80616124  0.79877212  0.30250981  1
  O  O32  1  0.99230475  0.19156872  0.30256635  1
  O  O33  1  0.19926397  0.19156872  0.80256635  1
  O  O34  1  0.99261087  0.79877212  0.80250981  1
  O  O35  1  0.80824708  0.01135500  0.80219486  1
  O  O36  1  0.79539679  0.96006166  0.69765799  1
  O  O37  1  0.16806304  0.20474393  0.69816024  1
  O  O38  1  0.04452016  0.82986930  0.69829532  1
  O  O39  1  0.78534913  0.82986930  0.19829532  1
  O  O40  1  0.03668089  0.20474393  0.19816024  1
  O  O41  1  0.16466487  0.96006166  0.19765799  1
  O  O42  1  0.89393173  0.37742760  0.64003177  1
  O  O43  1  0.47360767  0.09573996  0.63392118  1
  O  O44  1  0.61297134  0.51072551  0.64047180  1
  O  O45  1  0.89775516  0.51072551  0.14047180  1
  O  O46  1  0.62213329  0.09573996  0.13392118  1
  O  O47  1  0.48349687  0.37742760  0.14003177  1
  O  O48  1  0.46843309  0.29737356  0.02597852  1
  O  O49  1  0.82627635  0.52486147  0.02665217  1
  O  O50  1  0.70474118  0.15469980  0.03116961  1
  O  O51  1  0.44995962  0.15469980  0.53116961  1
  O  O52  1  0.69858612  0.52486147  0.52665217  1
  O  O53  1  0.82894147  0.29737356  0.52597852  1
  O  O54  1  0.51762722  0.66700250  0.96855955  1
  O  O55  1  0.15812996  0.48462483  0.96852404  1
  O  O56  1  0.34417538  0.83753628  0.97051483  1
  O  O57  1  0.49335991  0.83753628  0.47051483  1
  O  O58  1  0.32649387  0.48462483  0.46852404  1
  O  O59  1  0.14937428  0.66700250  0.46855955  1
  O  O60  1  0.12616354  0.62152886  0.36332686  1
  O  O61  1  0.48184661  0.85729203  0.35858502  1
  O  O62  1  0.37007193  0.50545174  0.36359097  1
  O  O63  1  0.13537880  0.50545174  0.86359097  1
  O  O64  1  0.37544442  0.85729203  0.85858502  1
  O  O65  1  0.49536433  0.62152886  0.86332686  1
  O  O66  1  0.02932655  0.80100193  0.41134870  1
  O  O67  1  0.78913999  0.97784674  0.41502004  1
  O  O68  1  0.20256547  0.22970010  0.41234446  1
  O  O69  1  0.02713463  0.22970010  0.91234446  1
  O  O70  1  0.18870675  0.97784674  0.91502004  1
  O  O71  1  0.77167539  0.80100193  0.91134870  1
  O  O72  1  0.98111440  0.16233666  0.59553762  1
  O  O73  1  0.19815956  0.02669331  0.59245948  1
  O  O74  1  0.84548926  0.81338008  0.59724289  1
  O  O75  1  0.96789082  0.81338008  0.09724289  1
  O  O76  1  0.82853375  0.02669331  0.09245948  1
  O  O77  1  0.18122226  0.16233666  0.09553762  1
  O  O78  1  0.66665231  0.11914842  0.74034897  1
  O  O79  1  0.45065087  0.31930725  0.74288004  1
  O  O80  1  0.87375638  0.54510582  0.74370700  1
  O  O81  1  0.67135045  0.54510582  0.24370700  1
  O  O82  1  0.86865738  0.31930725  0.24288004  1
  O  O83  1  0.45249710  0.11914842  0.24034897  1
  O  O84  1  0.61864662  0.49183036  0.92327450  1
  O  O85  1  0.88105067  0.39183337  0.92431260  1
  O  O86  1  0.53389578  0.14503552  0.92889875  1
  O  O87  1  0.61114074  0.14503552  0.42889875  1
  O  O88  1  0.51078370  0.39183337  0.42431260  1
  O  O89  1  0.87318473  0.49183036  0.42327450  1
  O  O90  1  0.34001531  0.49045681  0.06240157  1
  O  O91  1  0.14853607  0.66960860  0.06519101  1
  O  O92  1  0.53090970  0.86023537  0.06798843  1
  O  O93  1  0.32932467  0.86023537  0.56798843  1
  O  O94  1  0.52107153  0.66960860  0.56519101  1
  O  O95  1  0.15044051  0.49045681  0.56240157  1
  O  O96  1  0.27847695  0.81410360  0.25720902  1
  O  O97  1  0.52778276  0.70663408  0.25867347  1
  O  O98  1  0.17631134  0.46618744  0.25896742  1
  O  O99  1  0.28987510  0.46618744  0.75896742  1
  O  O100  1  0.17885033  0.70663408  0.75867347  1
  O  O101  1  0.53562565  0.81410360  0.75720902  1
