# generated using pymatgen
data_Na14Ga8Si7S5O48
_symmetry_space_group_name_H-M   'P 1'
_cell_length_a   17.76457666
_cell_length_b   8.90137803
_cell_length_c   22.01297383
_cell_angle_alpha   89.74189980
_cell_angle_beta   89.52260654
_cell_angle_gamma   120.03502023
_symmetry_Int_Tables_number   1
_chemical_formula_structural   Na14Ga8Si7S5O48
_chemical_formula_sum   'Na42 Ga24 Si21 S15 O144'
_cell_volume   3013.22255110
_cell_formula_units_Z   3
loop_
 _symmetry_equiv_pos_site_id
 _symmetry_equiv_pos_as_xyz
  1  'x, y, z'
loop_
 _atom_site_type_symbol
 _atom_site_label
 _atom_site_symmetry_multiplicity
 _atom_site_fract_x
 _atom_site_fract_y
 _atom_site_fract_z
 _atom_site_occupancy
  Na  Na0  1  0.81386724  0.99509296  0.24471535  1
  Na  Na1  1  0.18543393  0.36665314  0.25391549  1
  Na  Na2  1  0.68644978  0.36722199  0.25270133  1
  Na  Na3  1  0.99895137  0.63941702  0.24495145  1
  Na  Na4  1  0.49997450  0.64030501  0.24625736  1
  Na  Na5  1  0.31324964  0.63347921  0.75156528  1
  Na  Na6  1  0.99913457  0.35858784  0.74912268  1
  Na  Na7  1  0.50109437  0.36087643  0.74964847  1
  Na  Na8  1  0.18404417  0.00237185  0.75569101  1
  Na  Na9  1  0.68653355  0.00515735  0.75644212  1
  Na  Na10  1  0.14554638  0.33412546  0.58293458  1
  Na  Na11  1  0.64707916  0.33533268  0.58397267  1
  Na  Na12  1  0.33613458  0.97112854  0.58129546  1
  Na  Na13  1  0.83630037  0.97137364  0.58305168  1
  Na  Na14  1  0.14490288  0.95691587  0.08482080  1
  Na  Na15  1  0.65152211  0.96109964  0.08462544  1
  Na  Na16  1  0.33632662  0.70101649  0.08306647  1
  Na  Na17  1  0.83627655  0.70796783  0.08142444  1
  Na  Na18  1  0.48575430  0.67562454  0.92191781  1
  Na  Na19  1  0.98158489  0.67340326  0.92231892  1
  Na  Na20  1  0.34732743  0.02663564  0.91517160  1
  Na  Na21  1  0.84549670  0.02546919  0.91892314  1
  Na  Na22  1  0.16837859  0.29771340  0.91262552  1
  Na  Na23  1  0.67146513  0.30232686  0.91284431  1
  Na  Na24  1  0.48349703  0.29077693  0.41870687  1
  Na  Na25  1  0.98375101  0.29126921  0.41888352  1
  Na  Na26  1  0.16894779  0.03776469  0.40918861  1
  Na  Na27  1  0.66889865  0.03925460  0.41003069  1
  Na  Na28  1  0.34616193  0.66757638  0.41176754  1
  Na  Na29  1  0.84695802  0.66846835  0.41264105  1
  Na  Na30  1  0.99882398  0.00434699  0.49864613  1
  Na  Na31  1  0.49950591  0.00498823  0.49854326  1
  Na  Na32  1  0.99485530  0.99358999  0.00222163  1
  Na  Na33  1  0.50093236  0.99533323  0.99991075  1
  Na  Na34  1  0.32847135  0.32747128  0.83462716  1
  Na  Na35  1  0.82629968  0.33310963  0.83386855  1
  Na  Na36  1  0.32654714  0.31948279  0.32992325  1
  Na  Na37  1  0.82780862  0.32875010  0.33066417  1
  Na  Na38  1  0.16577699  0.67289140  0.16858884  1
  Na  Na39  1  0.66601291  0.67163395  0.16436512  1
  Na  Na40  1  0.16140439  0.65997632  0.66777905  1
  Na  Na41  1  0.66789743  0.66052892  0.66993360  1
  Ga  Ga42  1  0.00195655  0.00237162  0.34815506  1
  Ga  Ga43  1  0.49953325  0.00301562  0.34846467  1
  Ga  Ga44  1  0.99929742  0.99674918  0.85042281  1
  Ga  Ga45  1  0.50303659  0.00480717  0.85122690  1
  Ga  Ga46  1  0.99692176  0.02616474  0.65344357  1
  Ga  Ga47  1  0.49865331  0.02998582  0.65349431  1
  Ga  Ga48  1  0.99135017  0.97028628  0.14642163  1
  Ga  Ga49  1  0.49844252  0.96823574  0.15174396  1
  Ga  Ga50  1  0.33568379  0.32601467  0.68702197  1
  Ga  Ga51  1  0.83626089  0.33084945  0.68912887  1
  Ga  Ga52  1  0.33492682  0.34105807  0.18833314  1
  Ga  Ga53  1  0.83432657  0.33218378  0.18268298  1
  Ga  Ga54  1  0.33259656  0.34406681  0.98083840  1
  Ga  Ga55  1  0.83359399  0.33315669  0.98440384  1
  Ga  Ga56  1  0.33151907  0.31886322  0.47973972  1
  Ga  Ga57  1  0.83168216  0.31952464  0.48040592  1
  Ga  Ga58  1  0.16195159  0.67387582  0.01425887  1
  Ga  Ga59  1  0.67347542  0.70051424  0.01993188  1
  Ga  Ga60  1  0.16155406  0.64834147  0.51243223  1
  Ga  Ga61  1  0.66275690  0.64928411  0.51358608  1
  Ga  Ga62  1  0.18698804  0.69718408  0.31191031  1
  Ga  Ga63  1  0.68207136  0.68487588  0.31484332  1
  Ga  Ga64  1  0.18013220  0.67776728  0.81662884  1
  Ga  Ga65  1  0.68799701  0.67863864  0.81462482  1
  Si  Si66  1  0.14651909  0.99933605  0.24828795  1
  Si  Si67  1  0.64712018  0.99904571  0.25166873  1
  Si  Si68  1  0.35465635  0.71131837  0.25021680  1
  Si  Si69  1  0.85455260  0.70452791  0.25120992  1
  Si  Si70  1  0.14735612  0.29532476  0.75001297  1
  Si  Si71  1  0.64971199  0.30095975  0.75010336  1
  Si  Si72  1  0.35437090  0.99903430  0.75089632  1
  Si  Si73  1  0.85408843  0.99715746  0.75030095  1
  Si  Si74  1  0.48055340  0.34426821  0.58266195  1
  Si  Si75  1  0.98022834  0.34397746  0.58295225  1
  Si  Si76  1  0.47937530  0.61586063  0.08286794  1
  Si  Si77  1  0.98137952  0.61678905  0.08250045  1
  Si  Si78  1  0.83934775  0.05102437  0.08412302  1
  Si  Si79  1  0.31247056  0.66745243  0.91854465  1
  Si  Si80  1  0.81319484  0.66347852  0.91945238  1
  Si  Si81  1  0.16670732  0.96185274  0.91576476  1
  Si  Si82  1  0.66593806  0.95920519  0.91417554  1
  Si  Si83  1  0.31211433  0.95630573  0.41945507  1
  Si  Si84  1  0.81261454  0.95730099  0.41871469  1
  Si  Si85  1  0.16670044  0.37262239  0.41552680  1
  Si  Si86  1  0.66635312  0.37135462  0.41629466  1
  S  S87  1  0.00053132  0.29059177  0.24997285  1
  S  S88  1  0.49853565  0.28700827  0.24906421  1
  S  S89  1  0.99851314  0.71083445  0.74867430  1
  S  S90  1  0.49929881  0.71152560  0.74822501  1
  S  S91  1  0.18418842  0.03627375  0.58408674  1
  S  S92  1  0.68422858  0.03587345  0.58388483  1
  S  S93  1  0.33669718  0.62556392  0.58369315  1
  S  S94  1  0.83662181  0.62438474  0.58343904  1
  S  S95  1  0.33655321  0.04880451  0.08349661  1
  S  S96  1  0.18601608  0.33403245  0.08330905  1
  S  S97  1  0.68293478  0.33163390  0.08414953  1
  S  S98  1  0.02291632  0.37891601  0.91539752  1
  S  S99  1  0.52251101  0.37912224  0.91721004  1
  S  S100  1  0.02153521  0.66583954  0.41696928  1
  S  S101  1  0.52177981  0.66591407  0.41713937  1
  O  O102  1  0.10723337  0.04437343  0.30964495  1
  O  O103  1  0.60402712  0.04009475  0.31089385  1
  O  O104  1  0.41576198  0.79384734  0.31028554  1
  O  O105  1  0.91508467  0.78961148  0.31165975  1
  O  O106  1  0.48446115  0.18634142  0.30670890  1
  O  O107  1  0.98367051  0.18358054  0.30691234  1
  O  O108  1  0.10591483  0.16674967  0.80876139  1
  O  O109  1  0.60611111  0.16832066  0.80826712  1
  O  O110  1  0.48194160  0.78326537  0.80446014  1
  O  O111  1  0.98549688  0.78433398  0.80545361  1
  O  O112  1  0.41695270  0.03772909  0.80928850  1
  O  O113  1  0.91807075  0.04031718  0.80861166  1
  O  O114  1  0.39177452  0.95069864  0.68981879  1
  O  O115  1  0.89188512  0.95789032  0.68793328  1
  O  O116  1  0.09054429  0.21290042  0.68833842  1
  O  O117  1  0.59012933  0.21668672  0.68862142  1
  O  O118  1  0.01535115  0.82510287  0.69510155  1
  O  O119  1  0.51410052  0.82418111  0.69446678  1
  O  O120  1  0.39380038  0.82899221  0.18875527  1
  O  O121  1  0.89304719  0.83166647  0.19237453  1
  O  O122  1  0.01656200  0.21077456  0.19717286  1
  O  O123  1  0.51473309  0.20578700  0.19625807  1
  O  O124  1  0.08534587  0.96936340  0.18898627  1
  O  O125  1  0.58868493  0.96491129  0.19066546  1
  O  O126  1  0.43507928  0.36689232  0.64402038  1
  O  O127  1  0.93480651  0.36777751  0.64386512  1
  O  O128  1  0.23983892  0.11765018  0.63830508  1
  O  O129  1  0.73982493  0.11718449  0.63743689  1
  O  O130  1  0.31983718  0.51348210  0.63855359  1
  O  O131  1  0.81899695  0.50931173  0.63668263  1
  O  O132  1  0.43299324  0.50148493  0.14425653  1
  O  O133  1  0.93730406  0.50768867  0.14494972  1
  O  O134  1  0.31877584  0.12802521  0.13662063  1
  O  O135  1  0.81397138  0.12821315  0.14365882  1
  O  O136  1  0.24218021  0.36612074  0.13723733  1
  O  O137  1  0.73817702  0.36254135  0.13869138  1
  O  O138  1  0.22480610  0.29894661  0.02788140  1
  O  O139  1  0.72146559  0.29583992  0.02914298  1
  O  O140  1  0.41538771  0.53524325  0.02384939  1
  O  O141  1  0.91924855  0.53817547  0.02316645  1
  O  O142  1  0.34628633  0.14821597  0.02645713  1
  O  O143  1  0.84892421  0.15955833  0.02153194  1
  O  O144  1  0.22325066  0.15049456  0.52908452  1
  O  O145  1  0.72253091  0.14963086  0.52841105  1
  O  O146  1  0.34612006  0.54310573  0.52800316  1
  O  O147  1  0.84641747  0.54508243  0.52664783  1
  O  O148  1  0.41680231  0.30080109  0.52394437  1
  O  O149  1  0.91731319  0.30054420  0.52366648  1
  O  O150  1  0.26604712  0.69936952  0.97830368  1
  O  O151  1  0.76898576  0.70040340  0.97885459  1
  O  O152  1  0.07809267  0.45668869  0.96937112  1
  O  O153  1  0.57684105  0.45774040  0.97019724  1
  O  O154  1  0.14544674  0.83990524  0.97593231  1
  O  O155  1  0.64157699  0.83626947  0.97470202  1
  O  O156  1  0.26800005  0.83519541  0.48120392  1
  O  O157  1  0.76694130  0.83419121  0.47955905  1
  O  O158  1  0.14487355  0.44696355  0.47723046  1
  O  O159  1  0.64435612  0.44754016  0.47718450  1
  O  O160  1  0.07676216  0.69807609  0.47122486  1
  O  O161  1  0.57709298  0.69756136  0.47101336  1
  O  O162  1  0.05856026  0.63186995  0.36224910  1
  O  O163  1  0.55883587  0.63223910  0.36210644  1
  O  O164  1  0.24665077  0.87841645  0.36300473  1
  O  O165  1  0.75032573  0.88184778  0.35974583  1
  O  O166  1  0.18401195  0.49910367  0.35693343  1
  O  O167  1  0.68348898  0.49644684  0.35714744  1
  O  O168  1  0.06238947  0.48791824  0.85993152  1
  O  O169  1  0.55750797  0.48319410  0.86083257  1
  O  O170  1  0.18477557  0.87441759  0.85571333  1
  O  O171  1  0.68117584  0.86678201  0.85454478  1
  O  O172  1  0.25185993  0.61942135  0.85811805  1
  O  O173  1  0.74948263  0.61080974  0.86125591  1
  O  O174  1  0.01258354  0.82268288  0.41344245  1
  O  O175  1  0.51243453  0.82212987  0.41337299  1
  O  O176  1  0.40836346  0.97337882  0.41190806  1
  O  O177  1  0.90877142  0.97437179  0.41160620  1
  O  O178  1  0.08081794  0.17672186  0.41082279  1
  O  O179  1  0.58022256  0.17652781  0.41103434  1
  O  O180  1  0.01412979  0.20419910  0.91162497  1
  O  O181  1  0.51197476  0.20119515  0.91274385  1
  O  O182  1  0.08075870  0.98461568  0.91007420  1
  O  O183  1  0.57871133  0.98162854  0.90971197  1
  O  O184  1  0.40807709  0.84329251  0.91103539  1
  O  O185  1  0.90902314  0.84211574  0.91050564  1
  O  O186  1  0.48875014  0.16286556  0.58656871  1
  O  O187  1  0.98997629  0.16426217  0.58645159  1
  O  O188  1  0.09717126  0.01845261  0.59022102  1
  O  O189  1  0.59674069  0.01806440  0.58990698  1
  O  O190  1  0.41502658  0.79975571  0.58795712  1
  O  O191  1  0.91489904  0.79900792  0.58785240  1
  O  O192  1  0.48860364  0.81484504  0.08628815  1
  O  O193  1  0.99308773  0.81469534  0.08564437  1
  O  O194  1  0.41490147  0.03133981  0.08799075  1
  O  O195  1  0.92480104  0.02673951  0.08957873  1
  O  O196  1  0.10033011  0.17911115  0.08954884  1
  O  O197  1  0.59571979  0.17152891  0.09102619  1
  O  O198  1  0.34514195  0.17396188  0.74515049  1
  O  O199  1  0.84678364  0.17570246  0.74525126  1
  O  O200  1  0.24628439  0.32130054  0.74069726  1
  O  O201  1  0.74420978  0.31218837  0.74005457  1
  O  O202  1  0.41846628  0.53604530  0.74379986  1
  O  O203  1  0.92079463  0.53529776  0.74428906  1
  O  O204  1  0.34681369  0.51781090  0.24609328  1
  O  O205  1  0.84469503  0.51150112  0.24451514  1
  O  O206  1  0.42039151  0.30656006  0.24495983  1
  O  O207  1  0.92099125  0.30617047  0.24656206  1
  O  O208  1  0.24325668  0.17542078  0.24005845  1
  O  O209  1  0.74395057  0.17219799  0.24553471  1
  O  O210  1  0.32358002  0.49433725  0.92193538  1
  O  O211  1  0.82583550  0.49218398  0.92465318  1
  O  O212  1  0.43210970  0.35375112  0.92306464  1
  O  O213  1  0.93580549  0.36061194  0.92001030  1
  O  O214  1  0.25651237  0.15264770  0.92454843  1
  O  O215  1  0.75364736  0.15115481  0.92140968  1
  O  O216  1  0.32447802  0.15293078  0.42280611  1
  O  O217  1  0.82378896  0.15284898  0.42258202  1
  O  O218  1  0.25678885  0.36105238  0.42543479  1
  O  O219  1  0.75647710  0.36083733  0.42534886  1
  O  O220  1  0.43304015  0.51045877  0.42382060  1
  O  O221  1  0.93270679  0.51071221  0.42403316  1
  O  O222  1  0.18135043  0.49490237  0.07646330  1
  O  O223  1  0.67640015  0.48782593  0.07721654  1
  O  O224  1  0.08140833  0.64473034  0.07755003  1
  O  O225  1  0.57687479  0.64234553  0.07749678  1
  O  O226  1  0.25772525  0.86971372  0.08025854  1
  O  O227  1  0.75112192  0.85310510  0.08114352  1
  O  O228  1  0.17987882  0.86741770  0.57775592  1
  O  O229  1  0.67928192  0.86633654  0.57700105  1
  O  O230  1  0.25750860  0.64529376  0.58105291  1
  O  O231  1  0.75749020  0.64549296  0.58034457  1
  O  O232  1  0.08012609  0.51367996  0.57740842  1
  O  O233  1  0.57998704  0.51305954  0.57746619  1
  O  O234  1  0.14698731  0.81526976  0.25676715  1
  O  O235  1  0.65055615  0.81710671  0.25805883  1
  O  O236  1  0.25483487  0.67502966  0.25173258  1
  O  O237  1  0.75633393  0.68135934  0.25393686  1
  O  O238  1  0.07719387  0.46633171  0.25642447  1
  O  O239  1  0.57635840  0.46335495  0.25460055  1
  O  O240  1  0.15196010  0.48432857  0.75627273  1
  O  O241  1  0.64833379  0.48299636  0.75722509  1
  O  O242  1  0.07659707  0.68938394  0.75353313  1
  O  O243  1  0.57460028  0.68751532  0.75348424  1
  O  O244  1  0.25606060  0.82856270  0.75325672  1
  O  O245  1  0.75456538  0.83427148  0.75194159  1
