# generated using pymatgen
data_Na3CaZnP(SO6)2
_symmetry_space_group_name_H-M   'P 1'
_cell_length_a   9.19953258
_cell_length_b   9.19478711
_cell_length_c   22.64831820
_cell_angle_alpha   89.52251040
_cell_angle_beta   89.86763635
_cell_angle_gamma   119.93218399
_symmetry_Int_Tables_number   1
_chemical_formula_structural   Na3CaZnP(SO6)2
_chemical_formula_sum   'Na18 Ca6 Zn6 P6 S12 O72'
_cell_volume   1660.13430267
_cell_formula_units_Z   6
loop_
 _symmetry_equiv_pos_site_id
 _symmetry_equiv_pos_as_xyz
  1  'x, y, z'
loop_
 _atom_site_type_symbol
 _atom_site_label
 _atom_site_symmetry_multiplicity
 _atom_site_fract_x
 _atom_site_fract_y
 _atom_site_fract_z
 _atom_site_occupancy
  Na  Na0  1  0.62831234  0.00013867  0.25316540  1
  Na  Na1  1  0.00695942  0.63905973  0.24539018  1
  Na  Na2  1  0.63798141  0.64354120  0.74112521  1
  Na  Na3  1  0.37270690  0.00353159  0.75113032  1
  Na  Na4  1  0.31060703  0.33685569  0.58800949  1
  Na  Na5  1  0.66976265  0.96039869  0.58651348  1
  Na  Na6  1  0.29090377  0.95920109  0.08626805  1
  Na  Na7  1  0.02587466  0.33666092  0.08983360  1
  Na  Na8  1  0.98239419  0.67573497  0.92353096  1
  Na  Na9  1  0.68432927  0.02682249  0.90943841  1
  Na  Na10  1  0.33693440  0.03015746  0.40686883  1
  Na  Na11  1  0.69745221  0.67677417  0.41927891  1
  Na  Na12  1  0.98316010  0.99040800  0.49937550  1
  Na  Na13  1  0.00713397  0.98990683  0.00259450  1
  Na  Na14  1  0.66041948  0.31692821  0.83086738  1
  Na  Na15  1  0.65872206  0.31990527  0.32973517  1
  Na  Na16  1  0.33705825  0.65832942  0.17100724  1
  Na  Na17  1  0.32428492  0.66214364  0.66624118  1
  Ca  Ca18  1  0.00439333  0.01196602  0.84566973  1
  Ca  Ca19  1  0.65838523  0.33694203  0.98789246  1
  Ca  Ca20  1  0.67790827  0.33630414  0.48335810  1
  Ca  Ca21  1  0.33549513  0.66766154  0.01885115  1
  Ca  Ca22  1  0.33626039  0.66906867  0.51505987  1
  Ca  Ca23  1  0.33141635  0.66488480  0.81569607  1
  Zn  Zn24  1  0.00621637  0.01256032  0.34382996  1
  Zn  Zn25  1  0.97933138  0.98231595  0.65231390  1
  Zn  Zn26  1  0.00238900  0.98006263  0.15618727  1
  Zn  Zn27  1  0.67988989  0.33781561  0.67903600  1
  Zn  Zn28  1  0.65581933  0.33704886  0.18190408  1
  Zn  Zn29  1  0.33866845  0.67984320  0.31968769  1
  P  P30  1  0.30134333  0.00131764  0.25108307  1
  P  P31  1  0.69708797  0.00910991  0.74620106  1
  P  P32  1  0.67180387  0.63519610  0.58622072  1
  P  P33  1  0.96304634  0.63556154  0.08839582  1
  P  P34  1  0.33316478  0.97325923  0.91651668  1
  P  P35  1  0.64273177  0.96753699  0.41155940  1
  S  S36  1  0.70340496  0.70393070  0.25167101  1
  S  S37  1  0.00093464  0.29840815  0.24790312  1
  S  S38  1  0.30785847  0.30054695  0.74260861  1
  S  S39  1  0.99406901  0.69776139  0.74793691  1
  S  S40  1  0.96859102  0.32644968  0.58742261  1
  S  S41  1  0.36120318  0.03589818  0.58648668  1
  S  S42  1  0.67576809  0.03671954  0.08856278  1
  S  S43  1  0.35611384  0.32407676  0.08958064  1
  S  S44  1  0.63991859  0.66709120  0.91393823  1
  S  S45  1  0.02654961  0.36005307  0.91970734  1
  S  S46  1  0.32592478  0.36432763  0.41372200  1
  S  S47  1  0.03549966  0.67341898  0.41048207  1
  O  O48  1  0.21713737  0.02091774  0.30743314  1
  O  O49  1  0.80442910  0.77919529  0.30591910  1
  O  O50  1  0.97565988  0.18872612  0.29973141  1
  O  O51  1  0.22717113  0.20044276  0.79600288  1
  O  O52  1  0.97406400  0.76940790  0.80407011  1
  O  O53  1  0.78625807  0.02428184  0.80524389  1
  O  O54  1  0.79140673  0.98812154  0.69304537  1
  O  O55  1  0.20969323  0.21725154  0.68927009  1
  O  O56  1  0.02129467  0.81471003  0.69789097  1
  O  O57  1  0.78475901  0.81709389  0.19985574  1
  O  O58  1  0.01876094  0.22194338  0.19289060  1
  O  O59  1  0.19292183  0.97375412  0.19546090  1
  O  O60  1  0.88408585  0.34346430  0.64009254  1
  O  O61  1  0.46981322  0.12135195  0.63800001  1
  O  O62  1  0.65333234  0.52303257  0.64079052  1
  O  O63  1  0.86638202  0.52051227  0.14219265  1
  O  O64  1  0.65129123  0.12375961  0.13972523  1
  O  O65  1  0.46000281  0.34104111  0.14137685  1
  O  O66  1  0.43052539  0.30202432  0.03510909  1
  O  O67  1  0.87598709  0.56186319  0.02928655  1
  O  O68  1  0.69614761  0.13264689  0.03278058  1
  O  O69  1  0.43853437  0.13352687  0.53106711  1
  O  O70  1  0.68454782  0.55756680  0.52783168  1
  O  O71  1  0.86894724  0.30394913  0.53387280  1
  O  O72  1  0.54654763  0.67443386  0.96526688  1
  O  O73  1  0.11757126  0.43715768  0.97513868  1
  O  O74  1  0.31830594  0.86928000  0.97310279  1
  O  O75  1  0.56715938  0.86402538  0.46943979  1
  O  O76  1  0.30867227  0.43247594  0.47100249  1
  O  O77  1  0.13461693  0.68671047  0.46312700  1
  O  O78  1  0.11468211  0.65352313  0.35627362  1
  O  O79  1  0.52720073  0.87669793  0.35782138  1
  O  O80  1  0.34200369  0.47680672  0.36400315  1
  O  O81  1  0.11857012  0.46074424  0.86808307  1
  O  O82  1  0.34818129  0.88465391  0.86051796  1
  O  O83  1  0.55014098  0.65393147  0.85827560  1
  O  O84  1  0.02536567  0.83176609  0.40843082  1
  O  O85  1  0.81724730  0.97904981  0.40476243  1
  O  O86  1  0.18230643  0.19137745  0.40875156  1
  O  O87  1  0.99564276  0.18614065  0.91765412  1
  O  O88  1  0.16930721  0.98202508  0.91513692  1
  O  O89  1  0.80651491  0.82623397  0.91418841  1
  O  O90  1  0.98783666  0.17315270  0.59084531  1
  O  O91  1  0.19485674  0.02425290  0.59203613  1
  O  O92  1  0.82555903  0.81740381  0.58945952  1
  O  O93  1  0.99119479  0.81778060  0.09216456  1
  O  O94  1  0.83077603  0.02624657  0.09449633  1
  O  O95  1  0.18463260  0.17066220  0.09382722  1
  O  O96  1  0.66864826  0.16270282  0.74034497  1
  O  O97  1  0.47917175  0.31757413  0.74098820  1
  O  O98  1  0.83904901  0.53322655  0.74190831  1
  O  O99  1  0.69348835  0.53784576  0.24515879  1
  O  O100  1  0.84540317  0.31522421  0.24600862  1
  O  O101  1  0.48409830  0.15448629  0.24520216  1
  O  O102  1  0.67166406  0.52445313  0.91655199  1
  O  O103  1  0.85943626  0.35215804  0.91963503  1
  O  O104  1  0.49755537  0.14556715  0.91763780  1
  O  O105  1  0.64832780  0.13887876  0.41439456  1
  O  O106  1  0.48493518  0.35387980  0.41430419  1
  O  O107  1  0.86128969  0.52936790  0.41381986  1
  O  O108  1  0.33392404  0.47285260  0.08647153  1
  O  O109  1  0.14107944  0.64964906  0.08961347  1
  O  O110  1  0.52266417  0.86830816  0.08598465  1
  O  O111  1  0.34694185  0.86766765  0.58332560  1
  O  O112  1  0.50806605  0.64989447  0.58716091  1
  O  O113  1  0.13946738  0.47509858  0.58349579  1
  O  O114  1  0.31674974  0.83658261  0.25487222  1
  O  O115  1  0.53310568  0.68521407  0.25595438  1
  O  O116  1  0.14897547  0.47027358  0.25366645  1
  O  O117  1  0.33075296  0.47238800  0.74584608  1
  O  O118  1  0.14584440  0.68016191  0.74928318  1
  O  O119  1  0.51983218  0.84519164  0.74576686  1
