# generated using pymatgen
data_Sr2Mg(MoO4)2
_symmetry_space_group_name_H-M   'P 1'
_cell_length_a   5.66745218
_cell_length_b   5.48042355
_cell_length_c   7.52522947
_cell_angle_alpha   114.15538691
_cell_angle_beta   114.25315889
_cell_angle_gamma   83.01423234
_symmetry_Int_Tables_number   1
_chemical_formula_structural   Sr2Mg(MoO4)2
_chemical_formula_sum   'Sr2 Mg1 Mo2 O8'
_cell_volume   194.14120013
_cell_formula_units_Z   1
loop_
 _symmetry_equiv_pos_site_id
 _symmetry_equiv_pos_as_xyz
  1  'x, y, z'
loop_
 _atom_site_type_symbol
 _atom_site_label
 _atom_site_symmetry_multiplicity
 _atom_site_fract_x
 _atom_site_fract_y
 _atom_site_fract_z
 _atom_site_occupancy
  Sr  Sr0  1  0.64771676  0.89860624  0.29523711  1
  Sr  Sr1  1  0.37716942  0.12400409  0.75607625  1
  Mg  Mg2  1  0.06575542  0.81568838  0.12896928  1
  Mo  Mo3  1  0.16464238  0.41722371  0.33023786  1
  Mo  Mo4  1  0.84363200  0.58615045  0.68095582  1
  O  O5  1  0.14999827  0.52926112  0.88650973  1
  O  O6  1  0.37388676  0.72209677  0.40129349  1
  O  O7  1  0.02430103  0.18779826  0.40594019  1
  O  O8  1  0.74070683  0.85495805  0.88721563  1
  O  O9  1  0.26218949  0.11610901  0.13623656  1
  O  O10  1  0.99547646  0.74596210  0.56986521  1
  O  O11  1  0.57337092  0.32673606  0.57010167  1
  O  O12  1  0.87639227  0.52064375  0.13654619  1
