# generated using pymatgen
data_Na8Mg2Al2Si3(SO8)3
_symmetry_space_group_name_H-M   'P 1'
_cell_length_a   9.06226015
_cell_length_b   8.92290418
_cell_length_c   21.91190370
_cell_angle_alpha   92.92563170
_cell_angle_beta   89.57706919
_cell_angle_gamma   120.39878310
_symmetry_Int_Tables_number   1
_chemical_formula_structural   Na8Mg2Al2Si3(SO8)3
_chemical_formula_sum   'Na24 Mg6 Al6 Si9 S9 O72'
_cell_volume   1525.90766316
_cell_formula_units_Z   3
loop_
 _symmetry_equiv_pos_site_id
 _symmetry_equiv_pos_as_xyz
  1  'x, y, z'
loop_
 _atom_site_type_symbol
 _atom_site_label
 _atom_site_symmetry_multiplicity
 _atom_site_fract_x
 _atom_site_fract_y
 _atom_site_fract_z
 _atom_site_occupancy
  Na  Na0  1  0.63885967  0.01735958  0.25913333  1
  Na  Na1  1  0.35251729  0.34714197  0.25436092  1
  Na  Na2  1  0.00209781  0.62837439  0.24455164  1
  Na  Na3  1  0.62814946  0.62913812  0.73747327  1
  Na  Na4  1  0.99149057  0.34908512  0.74020006  1
  Na  Na5  1  0.37967516  0.02100760  0.75050995  1
  Na  Na6  1  0.30441859  0.34834143  0.59081380  1
  Na  Na7  1  0.02005571  0.68170228  0.58635724  1
  Na  Na8  1  0.66814523  0.96031942  0.58050728  1
  Na  Na9  1  0.28679520  0.95089942  0.08294281  1
  Na  Na10  1  0.67437693  0.69632518  0.08217646  1
  Na  Na11  1  0.03006823  0.34387749  0.09198207  1
  Na  Na12  1  0.98284556  0.68108662  0.91734935  1
  Na  Na13  1  0.68944389  0.02736375  0.90369119  1
  Na  Na14  1  0.32735688  0.28503108  0.90621336  1
  Na  Na15  1  0.95426941  0.28361590  0.41763881  1
  Na  Na16  1  0.33856823  0.03244031  0.41094477  1
  Na  Na17  1  0.69493773  0.67725424  0.42744584  1
  Na  Na18  1  0.97938254  0.99604835  0.50320921  1
  Na  Na19  1  0.00994904  0.99114878  0.99784870  1
  Na  Na20  1  0.65042980  0.31892963  0.82433019  1
  Na  Na21  1  0.66454158  0.31408614  0.33258101  1
  Na  Na22  1  0.31160970  0.66266625  0.16975827  1
  Na  Na23  1  0.34007594  0.65446555  0.66232650  1
  Mg  Mg24  1  0.00067615  0.01163250  0.34962251  1
  Mg  Mg25  1  0.01117847  0.01283106  0.84529316  1
  Mg  Mg26  1  0.66967234  0.33711936  0.68430012  1
  Mg  Mg27  1  0.67717349  0.33225049  0.18764813  1
  Mg  Mg28  1  0.32156482  0.67466453  0.01638925  1
  Mg  Mg29  1  0.34738262  0.66743372  0.52099233  1
  Al  Al30  1  0.97509309  0.02029152  0.64718152  1
  Al  Al31  1  0.01003340  0.98525230  0.15908485  1
  Al  Al32  1  0.66428491  0.33290746  0.98281027  1
  Al  Al33  1  0.67458796  0.31652610  0.49229428  1
  Al  Al34  1  0.32161879  0.68481343  0.31254406  1
  Al  Al35  1  0.34924983  0.68940922  0.80573267  1
  Si  Si36  1  0.29625862  0.99967672  0.25173603  1
  Si  Si37  1  0.00627549  0.29433260  0.25091838  1
  Si  Si38  1  0.29192075  0.29686390  0.75210267  1
  Si  Si39  1  0.70536753  -0.00001187  0.75278786  1
  Si  Si40  1  0.96497112  0.33677928  0.58436224  1
  Si  Si41  1  0.67490883  0.62615209  0.58454047  1
  Si  Si42  1  0.95403492  0.62765623  0.08465693  1
  Si  Si43  1  0.33631562  0.96405069  0.91935656  1
  Si  Si44  1  0.62298641  0.96103451  0.41800684  1
  S  S45  1  0.70731690  0.71045363  0.24894005  1
  S  S46  1  0.00508954  0.70845154  0.75177819  1
  S  S47  1  0.37345738  0.04342385  0.58194584  1
  S  S48  1  0.66820952  0.04181500  0.08087926  1
  S  S49  1  0.37761489  0.33437846  0.08185335  1
  S  S50  1  0.62191682  0.66056585  0.91867210  1
  S  S51  1  0.03574514  0.37253644  0.91863391  1
  S  S52  1  0.33547559  0.37710600  0.41459260  1
  S  S53  1  0.04117437  0.66535075  0.41552488  1
  O  O54  1  0.20907782  0.02800948  0.31184418  1
  O  O55  1  0.81527140  0.78831525  0.30383434  1
  O  O56  1  0.96418993  0.17666089  0.30858896  1
  O  O57  1  0.22191768  0.18489965  0.81216300  1
  O  O58  1  0.97935673  0.78859722  0.80878916  1
  O  O59  1  0.81365927  0.02490505  0.81469080  1
  O  O60  1  0.79324633  0.96063768  0.69281918  1
  O  O61  1  0.16027644  0.19482598  0.69191183  1
  O  O62  1  0.03651648  0.81457235  0.69864933  1
  O  O63  1  0.79101312  0.82122702  0.19456430  1
  O  O64  1  0.03544866  0.19276186  0.18803244  1
  O  O65  1  0.17154412  0.95694127  0.19023246  1
  O  O66  1  0.88210499  0.36970634  0.64467883  1
  O  O67  1  0.47989647  0.12043727  0.63731485  1
  O  O68  1  0.63534871  0.50795516  0.64205942  1
  O  O69  1  0.86594175  0.51109503  0.14186023  1
  O  O70  1  0.63562017  0.11811673  0.13632594  1
  O  O71  1  0.47854802  0.36132797  0.13744149  1
  O  O72  1  0.46202439  0.30552834  0.02659520  1
  O  O73  1  0.82569595  0.53124202  0.02282631  1
  O  O74  1  0.69195073  0.15041240  0.02733413  1
  O  O75  1  0.45830469  0.15376349  0.52776886  1
  O  O76  1  0.70006963  0.52318060  0.52141840  1
  O  O77  1  0.83890261  0.29200233  0.52327967  1
  O  O78  1  0.54356711  0.68544719  0.97518702  1
  O  O79  1  0.14595589  0.45327498  0.97420207  1
  O  O80  1  0.30682767  0.85619875  0.97961274  1
  O  O81  1  0.53657244  0.84601414  0.47563732  1
  O  O82  1  0.30865236  0.45877868  0.46990335  1
  O  O83  1  0.14532255  0.69221680  0.47009878  1
  O  O84  1  0.12458832  0.63733197  0.35915544  1
  O  O85  1  0.49630618  0.86449304  0.35566120  1
  O  O86  1  0.35750311  0.48115413  0.36021567  1
  O  O87  1  0.11318613  0.47842035  0.86545091  1
  O  O88  1  0.36804576  0.86192368  0.85934453  1
  O  O89  1  0.51340261  0.63275172  0.86416860  1
  O  O90  1  0.02296112  0.82116644  0.41033613  1
  O  O91  1  0.81384435  0.98228353  0.41205706  1
  O  O92  1  0.18160993  0.19830606  0.41088029  1
  O  O93  1  0.00990186  0.19466580  0.91381136  1
  O  O94  1  0.16786197  0.98612700  0.91369737  1
  O  O95  1  0.79633047  0.81486787  0.91516344  1
  O  O96  1  0.98079024  0.15916593  0.58750770  1
  O  O97  1  0.20394874  0.02921792  0.58556316  1
  O  O98  1  0.85928916  0.81985742  0.59103678  1
  O  O99  1  0.96981281  0.82697398  0.09145032  1
  O  O100  1  0.82588952  0.02981120  0.08497508  1
  O  O101  1  0.20314384  0.17727945  0.08285026  1
  O  O102  1  0.68401362  0.16857151  0.74652542  1
  O  O103  1  0.48490533  0.32906807  0.74508395  1
  O  O104  1  0.85171909  0.53382135  0.74637792  1
  O  O105  1  0.68139987  0.53368800  0.24006175  1
  O  O106  1  0.84618137  0.32784572  0.24471236  1
  O  O107  1  0.48424775  0.17139971  0.24322872  1
  O  O108  1  0.63713250  0.49966506  0.92152498  1
  O  O109  1  0.86250082  0.35837334  0.92577190  1
  O  O110  1  0.51877448  0.16156211  0.92671028  1
  O  O111  1  0.63676587  0.15908134  0.42448222  1
  O  O112  1  0.49111228  0.36130160  0.41846479  1
  O  O113  1  0.86871286  0.50696801  0.41604345  1
  O  O114  1  0.36168700  0.49201922  0.07583018  1
  O  O115  1  0.14525322  0.64913549  0.07992463  1
  O  O116  1  0.51918891  0.86061344  0.07424034  1
  O  O117  1  0.34846371  0.86664880  0.57328814  1
  O  O118  1  0.51351938  0.65863080  0.57896801  1
  O  O119  1  0.15363998  0.50746791  0.57588339  1
  O  O120  1  0.31208079  0.82211181  0.25469571  1
  O  O121  1  0.53693981  0.69577403  0.25257064  1
  O  O122  1  0.18991314  0.48806290  0.25901737  1
  O  O123  1  0.29741263  0.48828899  0.76196836  1
  O  O124  1  0.16109040  0.68948818  0.75835204  1
  O  O125  1  0.51048946  0.82210730  0.75375621  1
