# generated using pymatgen
data_Na2LaTa3Si2(PO6)4
_symmetry_space_group_name_H-M   'P 1'
_cell_length_a   8.97485983
_cell_length_b   8.98651037
_cell_length_c   23.07048031
_cell_angle_alpha   90.02304591
_cell_angle_beta   90.07271375
_cell_angle_gamma   120.01246780
_symmetry_Int_Tables_number   1
_chemical_formula_structural   Na2LaTa3Si2(PO6)4
_chemical_formula_sum   'Na6 La3 Ta9 Si6 P12 O72'
_cell_volume   1611.20494272
_cell_formula_units_Z   3
loop_
 _symmetry_equiv_pos_site_id
 _symmetry_equiv_pos_as_xyz
  1  'x, y, z'
loop_
 _atom_site_type_symbol
 _atom_site_label
 _atom_site_symmetry_multiplicity
 _atom_site_fract_x
 _atom_site_fract_y
 _atom_site_fract_z
 _atom_site_occupancy
  Na  Na0  1  0.99402162  0.99865177  0.49989893  1
  Na  Na1  1  0.99841103  0.99791331  0.00284858  1
  Na  Na2  1  0.66865618  0.33398685  0.83459538  1
  Na  Na3  1  0.66616726  0.33481788  0.32456766  1
  Na  Na4  1  0.33389615  0.65725043  0.16370128  1
  Na  Na5  1  0.32298808  0.65865414  0.66893340  1
  La  La6  1  0.99797735  0.00071358  0.36078266  1
  La  La7  1  0.67117076  0.33526971  0.68858712  1
  La  La8  1  0.66329504  0.33529200  0.17541809  1
  Ta  Ta9  1  0.00071791  0.00044647  0.85983735  1
  Ta  Ta10  1  0.99902743  0.00155947  0.64606641  1
  Ta  Ta11  1  0.00207659  0.00226423  0.14695519  1
  Ta  Ta12  1  0.66216102  0.33202442  0.97967126  1
  Ta  Ta13  1  0.66879746  0.32914837  0.48025151  1
  Ta  Ta14  1  0.33318996  0.66484082  0.01333104  1
  Ta  Ta15  1  0.33602674  0.66814041  0.52086463  1
  Ta  Ta16  1  0.33719244  0.67055730  0.31148100  1
  Ta  Ta17  1  0.33261409  0.66589740  0.81425800  1
  Si  Si18  1  0.96572363  0.33366154  0.58350605  1
  Si  Si19  1  0.36175138  0.33566379  0.08171240  1
  Si  Si20  1  0.61990707  0.66009441  0.91444296  1
  Si  Si21  1  0.03898173  0.38032137  0.91426961  1
  Si  Si22  1  0.34033022  0.95910482  0.91465616  1
  Si  Si23  1  0.60966381  0.96151995  0.41897748  1
  P  P24  1  0.28711184  0.98420767  0.24992796  1
  P  P25  1  0.69841833  0.71105548  0.24963190  1
  P  P26  1  0.01404137  0.30297406  0.24963386  1
  P  P27  1  0.27046420  0.28825183  0.75330109  1
  P  P28  1  0.01832905  0.72999333  0.75331734  1
  P  P29  1  0.71018929  0.97982645  0.75336475  1
  P  P30  1  0.36573768  0.03643516  0.58157837  1
  P  P31  1  0.67031722  0.63305626  0.58196926  1
  P  P32  1  0.97197061  0.63903098  0.07987054  1
  P  P33  1  0.66706615  0.02839404  0.07970616  1
  P  P34  1  0.35813271  0.39887042  0.41927457  1
  P  P35  1  0.04218794  0.64434081  0.41942494  1
  O  O36  1  0.21147766  0.00700433  0.30517852  1
  O  O37  1  0.79496427  0.79121278  0.30508186  1
  O  O38  1  0.99179957  0.20314127  0.30463247  1
  O  O39  1  0.16907963  0.18311981  0.80651172  1
  O  O40  1  0.01583898  0.83257573  0.80663528  1
  O  O41  1  0.81663593  0.98577062  0.80665432  1
  O  O42  1  0.80629121  0.97406767  0.69643590  1
  O  O43  1  0.16911265  0.19132228  0.69627466  1
  O  O44  1  0.02452292  0.82980977  0.69639457  1
  O  O45  1  0.79976745  0.82525903  0.19521562  1
  O  O46  1  0.02237012  0.19468333  0.19522491  1
  O  O47  1  0.16988141  0.97304074  0.19567225  1
  O  O48  1  0.90855664  0.38460200  0.64172828  1
  O  O49  1  0.47068163  0.09269699  0.63651111  1
  O  O50  1  0.61960139  0.52960347  0.63720941  1
  O  O51  1  0.92654849  0.54140635  0.13635306  1
  O  O52  1  0.61950668  0.07709806  0.13638216  1
  O  O53  1  0.46181494  0.38876498  0.14159319  1
  O  O54  1  0.47410097  0.30543321  0.02940842  1
  O  O55  1  0.83983165  0.53404728  0.03053561  1
  O  O56  1  0.69860397  0.16113475  0.03025412  1
  O  O57  1  0.46147139  0.16397578  0.53034136  1
  O  O58  1  0.69733467  0.53579236  0.53084823  1
  O  O59  1  0.82676939  0.30193481  0.52936223  1
  O  O60  1  0.52822813  0.69435382  0.96871158  1
  O  O61  1  0.16671039  0.47340127  0.96811146  1
  O  O62  1  0.30555015  0.83481383  0.96891563  1
  O  O63  1  0.49267124  0.84900258  0.47294586  1
  O  O64  1  0.35345871  0.50083220  0.47232925  1
  O  O65  1  0.14426893  0.64024081  0.47246031  1
  O  O66  1  0.13049355  0.63271806  0.36226179  1
  O  O67  1  0.49962524  0.86034882  0.35881916  1
  O  O68  1  0.36276218  0.49773763  0.36237409  1
  O  O69  1  0.13348437  0.50258564  0.85671011  1
  O  O70  1  0.36881768  0.86472891  0.85719503  1
  O  O71  1  0.49696414  0.62992793  0.85692298  1
  O  O72  1  0.02737999  0.80420738  0.42419296  1
  O  O73  1  0.79659382  0.98605569  0.42701461  1
  O  O74  1  0.20274508  0.22067864  0.42350770  1
  O  O75  1  0.01625754  0.18789390  0.90683892  1
  O  O76  1  0.17374914  0.98687115  0.90677808  1
  O  O77  1  0.81310465  0.82860232  0.90711568  1
  O  O78  1  0.97237026  0.15323101  0.59292010  1
  O  O79  1  0.18757445  0.02595814  0.59032711  1
  O  O80  1  0.84069947  0.80957403  0.59095773  1
  O  O81  1  0.97487587  0.81411923  0.08816693  1
  O  O82  1  0.83482475  0.01674542  0.08768644  1
  O  O83  1  0.17439789  0.15445826  0.09122106  1
  O  O84  1  0.69255670  0.13911352  0.75451236  1
  O  O85  1  0.44686529  0.30464844  0.75463597  1
  O  O86  1  0.85705522  0.55412924  0.75587618  1
  O  O87  1  0.66157783  0.52768046  0.24558421  1
  O  O88  1  0.86874392  0.34073253  0.24308430  1
  O  O89  1  0.47171381  0.12571055  0.24299145  1
  O  O90  1  0.64002514  0.49175945  0.92614503  1
  O  O91  1  0.85216472  0.36136573  0.92627555  1
  O  O92  1  0.51075602  0.14705931  0.92579809  1
  O  O93  1  0.61688249  0.14952610  0.42500037  1
  O  O94  1  0.52729384  0.39225231  0.42428612  1
  O  O95  1  0.85957378  0.48027407  0.42422520  1
  O  O96  1  0.32349104  0.49034170  0.06546059  1
  O  O97  1  0.15526912  0.67847407  0.06398940  1
  O  O98  1  0.51754655  0.84768376  0.06415432  1
  O  O99  1  0.32369423  0.84916445  0.56873808  1
  O  O100  1  0.52765114  0.67939645  0.56896918  1
  O  O101  1  0.16317546  0.48423184  0.56950906  1
  O  O102  1  0.28107110  0.80479747  0.25448883  1
  O  O103  1  0.52065712  0.70941987  0.25408357  1
  O  O104  1  0.19135001  0.47582391  0.25352549  1
  O  O105  1  0.28093783  0.46682450  0.75414689  1
  O  O106  1  0.18562844  0.71701304  0.75474291  1
  O  O107  1  0.53143663  0.81176226  0.75423810  1
