# generated using pymatgen
data_Na3Ti3ZnP5SO24
_symmetry_space_group_name_H-M   'P 1'
_cell_length_a   8.69101157
_cell_length_b   8.68501051
_cell_length_c   22.15704736
_cell_angle_alpha   89.94275897
_cell_angle_beta   90.11887979
_cell_angle_gamma   119.94287100
_symmetry_Int_Tables_number   1
_chemical_formula_structural   Na3Ti3ZnP5SO24
_chemical_formula_sum   'Na9 Ti9 Zn3 P15 S3 O72'
_cell_volume   1449.21219970
_cell_formula_units_Z   3
loop_
 _symmetry_equiv_pos_site_id
 _symmetry_equiv_pos_as_xyz
  1  'x, y, z'
loop_
 _atom_site_type_symbol
 _atom_site_label
 _atom_site_symmetry_multiplicity
 _atom_site_fract_x
 _atom_site_fract_y
 _atom_site_fract_z
 _atom_site_occupancy
  Na  Na0  1  0.99326096  0.36813815  0.74599918  1
  Na  Na1  1  0.31254967  0.97416224  0.08462218  1
  Na  Na2  1  0.32738514  0.03615826  0.41234946  1
  Na  Na3  1  0.98558561  0.99959093  0.49690291  1
  Na  Na4  1  0.98810051  0.00136802  0.99807798  1
  Na  Na5  1  0.65320447  0.33268322  0.83051964  1
  Na  Na6  1  0.67142457  0.33769524  0.32663867  1
  Na  Na7  1  0.33415622  0.65515883  0.16741956  1
  Na  Na8  1  0.34499109  0.67351001  0.66511363  1
  Ti  Ti9  1  0.00247998  -0.00009054  0.85463454  1
  Ti  Ti10  1  0.99233204  0.99676516  0.64701874  1
  Ti  Ti11  1  0.00164522  0.99782509  0.14712923  1
  Ti  Ti12  1  0.67015751  0.33450199  0.98011155  1
  Ti  Ti13  1  0.68056588  0.34476103  0.48030207  1
  Ti  Ti14  1  0.33398784  0.66179683  0.01827844  1
  Ti  Ti15  1  0.33507443  0.65985758  0.51960346  1
  Ti  Ti16  1  0.33243871  0.67159823  0.31425199  1
  Ti  Ti17  1  0.33848823  0.67123579  0.81331438  1
  Zn  Zn18  1  0.99789990  0.00144633  0.35403955  1
  Zn  Zn19  1  0.66431342  0.34064193  0.68623708  1
  Zn  Zn20  1  0.66148538  0.32812644  0.18120799  1
  P  P21  1  0.29475740  0.00217450  0.25288102  1
  P  P22  1  0.28828411  0.28634765  0.75087589  1
  P  P23  1  0.00310204  0.71607669  0.75116195  1
  P  P24  1  0.70912896  0.99504912  0.75110522  1
  P  P25  1  0.95990437  0.33449152  0.58567828  1
  P  P26  1  0.66753213  0.62455300  0.58444216  1
  P  P27  1  0.95595282  0.62003704  0.08423230  1
  P  P28  1  0.66899261  0.04147184  0.08276418  1
  P  P29  1  0.37753623  0.33680493  0.08372053  1
  P  P30  1  0.62196689  0.66546453  0.91636133  1
  P  P31  1  0.04318182  0.37833120  0.91517519  1
  P  P32  1  0.33538280  0.95722473  0.91728029  1
  P  P33  1  0.62334175  0.95615234  0.41805194  1
  P  P34  1  0.33757071  0.38088711  0.41637392  1
  P  P35  1  0.04393805  0.66250581  0.41749718  1
  S  S36  1  0.70845285  0.70897685  0.25106899  1
  S  S37  1  0.00133108  0.29208282  0.25078230  1
  S  S38  1  0.37402499  0.04082433  0.58271571  1
  O  O39  1  0.20986777  0.02108873  0.31001254  1
  O  O40  1  0.80976982  0.79218655  0.30541400  1
  O  O41  1  0.97898572  0.19007709  0.30533437  1
  O  O42  1  0.19083443  0.17413854  0.80760972  1
  O  O43  1  0.98542412  0.81166484  0.80738900  1
  O  O44  1  0.82856345  0.01965426  0.80635521  1
  O  O45  1  0.79828793  0.96942232  0.69344951  1
  O  O46  1  0.16623746  0.19811408  0.69467271  1
  O  O47  1  0.02581979  0.82905795  0.69405169  1
  O  O48  1  0.79761724  0.82241022  0.19585807  1
  O  O49  1  0.02190841  0.19977256  0.19598432  1
  O  O50  1  0.17360430  0.97759779  0.19488982  1
  O  O51  1  0.88897445  0.36645444  0.64377433  1
  O  O52  1  0.48222733  0.11749140  0.63642598  1
  O  O53  1  0.62767869  0.51480649  0.64053245  1
  O  O54  1  0.88420579  0.51235229  0.14052237  1
  O  O55  1  0.61670474  0.10746220  0.13767200  1
  O  O56  1  0.48408784  0.37450693  0.14060966  1
  O  O57  1  0.46507467  0.29821138  0.02870696  1
  O  O58  1  0.83693447  0.53204174  0.02776592  1
  O  O59  1  0.69838357  0.16263800  0.02682429  1
  O  O60  1  0.45655110  0.14817489  0.52706365  1
  O  O61  1  0.69342425  0.52997145  0.52797265  1
  O  O62  1  0.83595624  0.30867022  0.53024875  1
  O  O63  1  0.53180540  0.69310365  0.97188790  1
  O  O64  1  0.16266348  0.47215059  0.97025530  1
  O  O65  1  0.30771744  0.84600662  0.97463771  1
  O  O66  1  0.52559861  0.84075001  0.47338922  1
  O  O67  1  0.31781992  0.47510225  0.47281039  1
  O  O68  1  0.16300343  0.68621758  0.47224660  1
  O  O69  1  0.13303081  0.63700619  0.36001661  1
  O  O70  1  0.50037794  0.86845273  0.36111668  1
  O  O71  1  0.36297004  0.49690464  0.35992505  1
  O  O72  1  0.12728329  0.48938131  0.85746147  1
  O  O73  1  0.36042047  0.86234852  0.86189990  1
  O  O74  1  0.50417125  0.63793848  0.86018174  1
  O  O75  1  0.02646771  0.82699056  0.41417976  1
  O  O76  1  0.80374731  0.97513568  0.41310677  1
  O  O77  1  0.17604153  0.19628691  0.41434331  1
  O  O78  1  0.02423792  0.19262256  0.91072940  1
  O  O79  1  0.16869436  0.97589044  0.91041802  1
  O  O80  1  0.80657213  0.83181091  0.91026226  1
  O  O81  1  0.97700127  0.16471451  0.58897758  1
  O  O82  1  0.19534287  0.02404833  0.58759649  1
  O  O83  1  0.83820562  0.81003394  0.58878720  1
  O  O84  1  0.97943904  0.81190223  0.09012922  1
  O  O85  1  0.83576760  0.02347381  0.09064557  1
  O  O86  1  0.19031883  0.16375384  0.08996354  1
  O  O87  1  0.69382369  0.16076914  0.74659342  1
  O  O88  1  0.46788007  0.30216531  0.74728422  1
  O  O89  1  0.84297709  0.53020505  0.74918409  1
  O  O90  1  0.68615615  0.53254346  0.24436701  1
  O  O91  1  0.85072334  0.32038115  0.24376036  1
  O  O92  1  0.47938356  0.15991378  0.24541263  1
  O  O93  1  0.63845673  0.49829237  0.92383774  1
  O  O94  1  0.85904433  0.36116759  0.92330053  1
  O  O95  1  0.50227351  0.14179985  0.92298328  1
  O  O96  1  0.63057512  0.13859583  0.42452709  1
  O  O97  1  0.50626295  0.36277695  0.42348938  1
  O  O98  1  0.86091147  0.49050628  0.42336609  1
  O  O99  1  0.34561289  0.49387659  0.07178406  1
  O  O100  1  0.14855839  0.65586243  0.07330103  1
  O  O101  1  0.50550521  0.85315252  0.07099652  1
  O  O102  1  0.34808149  0.85857155  0.57531180  1
  O  O103  1  0.50828668  0.65557329  0.57339463  1
  O  O104  1  0.14709631  0.49680363  0.57410364  1
  O  O105  1  0.30250826  0.82349393  0.25595553  1
  O  O106  1  0.52953826  0.69780755  0.25361554  1
  O  O107  1  0.17141293  0.46877469  0.25339607  1
  O  O108  1  0.29735268  0.47068198  0.75660904  1
  O  O109  1  0.17429908  0.70045943  0.75643950  1
  O  O110  1  0.52624955  0.82474620  0.75693852  1
