# generated using pymatgen
data_Na3Si2SnGePO12
_symmetry_space_group_name_H-M   'P 1'
_cell_length_a   8.84126464
_cell_length_b   8.85893189
_cell_length_c   22.06865695
_cell_angle_alpha   90.23383753
_cell_angle_beta   89.84285684
_cell_angle_gamma   120.05482132
_symmetry_Int_Tables_number   1
_chemical_formula_structural   Na3Si2SnGePO12
_chemical_formula_sum   'Na18 Si12 Sn6 Ge6 P6 O72'
_cell_volume   1496.09218357
_cell_formula_units_Z   6
loop_
 _symmetry_equiv_pos_site_id
 _symmetry_equiv_pos_as_xyz
  1  'x, y, z'
loop_
 _atom_site_type_symbol
 _atom_site_label
 _atom_site_symmetry_multiplicity
 _atom_site_fract_x
 _atom_site_fract_y
 _atom_site_fract_z
 _atom_site_occupancy
  Na  Na0  1  0.99612947  0.98756916  0.49995465  1
  Na  Na1  1  0.00548768  0.00181956  0.99840989  1
  Na  Na2  1  0.66398946  0.32491919  0.83857230  1
  Na  Na3  1  0.67012998  0.33357952  0.32776270  1
  Na  Na4  1  0.33150947  0.65953389  0.16557890  1
  Na  Na5  1  0.34886174  0.67080658  0.67185283  1
  Na  Na6  1  0.64384124  0.00123522  0.24936839  1
  Na  Na7  1  0.99774997  0.63986404  0.25279807  1
  Na  Na8  1  0.00082626  0.36286498  0.75559772  1
  Na  Na9  1  0.37126788  0.00103734  0.75690416  1
  Na  Na10  1  0.30842042  0.33521238  0.58701759  1
  Na  Na11  1  0.66135987  0.96349069  0.58729533  1
  Na  Na12  1  0.66573438  0.70510013  0.08069860  1
  Na  Na13  1  0.04033742  0.33443925  0.08357046  1
  Na  Na14  1  0.96331983  0.66538858  0.91772997  1
  Na  Na15  1  0.33488418  0.29688269  0.92080205  1
  Na  Na16  1  0.32866531  0.02801342  0.41843790  1
  Na  Na17  1  0.70715849  0.67253674  0.41837292  1
  Si  Si18  1  0.69551249  0.69651767  0.24697949  1
  Si  Si19  1  0.00236985  0.30161707  0.24414510  1
  Si  Si20  1  0.28987626  0.29739829  0.75720845  1
  Si  Si21  1  0.70611092  0.98799881  0.75523836  1
  Si  Si22  1  0.37242698  0.04001443  0.58508156  1
  Si  Si23  1  0.67175097  0.62628357  0.58109621  1
  Si  Si24  1  0.95498502  0.61653038  0.07942309  1
  Si  Si25  1  0.38663364  0.33583024  0.07799684  1
  Si  Si26  1  0.04185781  0.37578896  0.91829754  1
  Si  Si27  1  0.33601304  0.95267752  0.91797741  1
  Si  Si28  1  0.62157181  0.95416325  0.41365518  1
  Si  Si29  1  0.04570082  0.66445005  0.41052102  1
  Sn  Sn30  1  0.99608213  0.00041536  0.34806136  1
  Sn  Sn31  1  0.99576158  0.99586323  0.65074543  1
  Sn  Sn32  1  0.00461635  0.00266352  0.14423434  1
  Sn  Sn33  1  0.66412263  0.33460241  0.69174726  1
  Sn  Sn34  1  0.67189505  0.33537601  0.47674418  1
  Sn  Sn35  1  0.33160221  0.66974193  0.52013600  1
  Ge  Ge36  1  0.00548117  0.00983340  0.85720641  1
  Ge  Ge37  1  0.67253212  0.34430090  0.18228573  1
  Ge  Ge38  1  0.66464646  0.32406053  0.97929878  1
  Ge  Ge39  1  0.32253067  0.65967198  0.01931478  1
  Ge  Ge40  1  0.33055813  0.66191321  0.31098753  1
  Ge  Ge41  1  0.33678640  0.67060143  0.81820183  1
  P  P42  1  0.30273602  0.00614133  0.24842461  1
  P  P43  1  0.00428644  0.71354113  0.75797409  1
  P  P44  1  0.95805355  0.33555083  0.58699674  1
  P  P45  1  0.65498228  0.04432214  0.08186481  1
  P  P46  1  0.62253060  0.67417093  0.91855563  1
  P  P47  1  0.32753084  0.37814041  0.41442861  1
  O  O48  1  0.23158581  0.03824631  0.30850825  1
  O  O49  1  0.82799099  0.77347084  0.30537216  1
  O  O50  1  0.94918077  0.16026746  0.29859736  1
  O  O51  1  0.20417343  0.16364254  0.81506716  1
  O  O52  1  0.97914968  0.79460182  0.81650157  1
  O  O53  1  0.84864085  0.02586634  0.80834574  1
  O  O54  1  0.77445569  0.96328968  0.68903713  1
  O  O55  1  0.17190464  0.21998458  0.69536974  1
  O  O56  1  0.03615247  0.82660019  0.70151891  1
  O  O57  1  0.77849375  0.82949759  0.18877304  1
  O  O58  1  0.03978616  0.22634039  0.18176746  1
  O  O59  1  0.16920002  0.95921015  0.19660196  1
  O  O60  1  0.88535634  0.35859372  0.64803409  1
  O  O61  1  0.49276050  0.11967392  0.64604654  1
  O  O62  1  0.63890308  0.49885850  0.63814543  1
  O  O63  1  0.87423985  0.49725576  0.14058579  1
  O  O64  1  0.63785172  0.12622878  0.14167321  1
  O  O65  1  0.51508834  0.36753744  0.13526026  1
  O  O66  1  0.46925975  0.31084870  0.01491224  1
  O  O67  1  0.82977528  0.52736920  0.01979295  1
  O  O68  1  0.69131220  0.16511774  0.02688953  1
  O  O69  1  0.45639415  0.15544869  0.52306689  1
  O  O70  1  0.69493864  0.55082549  0.51621997  1
  O  O71  1  0.84030563  0.30707658  0.53220530  1
  O  O72  1  0.54525174  0.69993623  0.97862519  1
  O  O73  1  0.17071951  0.45409029  0.97812433  1
  O  O74  1  0.29229410  0.81486875  0.97354298  1
  O  O75  1  0.55080039  0.84632301  0.47717261  1
  O  O76  1  0.30667457  0.44674906  0.47650905  1
  O  O77  1  0.16104098  0.69818454  0.47106725  1
  O  O78  1  0.13815251  0.65020125  0.34830473  1
  O  O79  1  0.49704334  0.85552281  0.35477802  1
  O  O80  1  0.34887095  0.49781860  0.36103269  1
  O  O81  1  0.12947812  0.50819918  0.86031697  1
  O  O82  1  0.36231826  0.87107095  0.85494046  1
  O  O83  1  0.49703480  0.63917275  0.86500879  1
  O  O84  1  0.02918446  0.84243953  0.40960934  1
  O  O85  1  0.81373157  0.97249064  0.40992093  1
  O  O86  1  0.16966894  0.19231888  0.40881676  1
  O  O87  1  0.02766010  0.18368039  0.91187569  1
  O  O88  1  0.15649253  0.97228785  0.91455653  1
  O  O89  1  0.80939205  0.83568184  0.91229552  1
  O  O90  1  0.97190985  0.16800595  0.58731006  1
  O  O91  1  0.18742939  0.03756660  0.59006833  1
  O  O92  1  0.83699837  0.82310375  0.58620615  1
  O  O93  1  0.96427464  0.80596667  0.08471511  1
  O  O94  1  0.82193594  0.02452464  0.08279419  1
  O  O95  1  0.18756552  0.16790577  0.08206652  1
  O  O96  1  0.69404850  0.17008872  0.75384342  1
  O  O97  1  0.48053481  0.31055328  0.75309554  1
  O  O98  1  0.84354896  0.52732031  0.75269181  1
  O  O99  1  0.68463016  0.50838400  0.23828855  1
  O  O100  1  0.82117490  0.31408135  0.23922170  1
  O  O101  1  0.48407184  0.16708427  0.23829001  1
  O  O102  1  0.64254639  0.50835413  0.91890351  1
  O  O103  1  0.84812111  0.35974696  0.92475756  1
  O  O104  1  0.50724020  0.15133146  0.92353899  1
  O  O105  1  0.62790743  0.14220121  0.41562347  1
  O  O106  1  0.49665629  0.36442990  0.41335089  1
  O  O107  1  0.84849473  0.49560185  0.41294969  1
  O  O108  1  0.36964927  0.51657779  0.07623296  1
  O  O109  1  0.14830775  0.63132484  0.07542151  1
  O  O110  1  0.49300632  0.85985881  0.07627309  1
  O  O111  1  0.35508600  0.84861398  0.58273549  1
  O  O112  1  0.48997984  0.63646902  0.58128210  1
  O  O113  1  0.14292623  0.49388923  0.58154936  1
  O  O114  1  0.32357740  0.84175336  0.25175932  1
  O  O115  1  0.50630005  0.68487565  0.25693671  1
  O  O116  1  0.17041725  0.49754255  0.25406288  1
  O  O117  1  0.29986851  0.48640330  0.76492665  1
  O  O118  1  0.17006298  0.69415922  0.75916953  1
  O  O119  1  0.50780344  0.82091818  0.76159156  1
