# generated using pymatgen
data_NaScNb(PO4)3
_symmetry_space_group_name_H-M   'P 1'
_cell_length_a   8.80701313
_cell_length_b   8.80701285
_cell_length_c   23.03532747
_cell_angle_alpha   90.00000000
_cell_angle_beta   90.00000000
_cell_angle_gamma   120.00000108
_symmetry_Int_Tables_number   1
_chemical_formula_structural   NaScNb(PO4)3
_chemical_formula_sum   'Na6 Sc6 Nb6 P18 O72'
_cell_volume   1547.32766891
_cell_formula_units_Z   6
loop_
 _symmetry_equiv_pos_site_id
 _symmetry_equiv_pos_as_xyz
  1  'x, y, z'
loop_
 _atom_site_type_symbol
 _atom_site_label
 _atom_site_symmetry_multiplicity
 _atom_site_fract_x
 _atom_site_fract_y
 _atom_site_fract_z
 _atom_site_occupancy
  Na  Na0  1  0.00000000  0.00000000  0.49716173  1
  Na  Na1  1  0.00000000  0.00000000  0.99716173  1
  Na  Na2  1  0.66666700  0.33333300  0.83049473  1
  Na  Na3  1  0.66666700  0.33333300  0.33049473  1
  Na  Na4  1  0.33333300  0.66666700  0.16382873  1
  Na  Na5  1  0.33333300  0.66666700  0.66382873  1
  Sc  Sc6  1  0.00000000  0.00000000  0.35290127  1
  Sc  Sc7  1  0.00000000  0.00000000  0.85290127  1
  Sc  Sc8  1  0.66666700  0.33333300  0.68623427  1
  Sc  Sc9  1  0.66666700  0.33333300  0.18623427  1
  Sc  Sc10  1  0.33333300  0.66666700  0.01956827  1
  Sc  Sc11  1  0.33333300  0.66666700  0.51956827  1
  Nb  Nb12  1  0.00000000  0.00000000  0.64599239  1
  Nb  Nb13  1  0.00000000  0.00000000  0.14599239  1
  Nb  Nb14  1  0.66666700  0.33333300  0.97932539  1
  Nb  Nb15  1  0.66666700  0.33333300  0.47932539  1
  Nb  Nb16  1  0.33333300  0.66666700  0.31265939  1
  Nb  Nb17  1  0.33333300  0.66666700  0.81265939  1
  P  P18  1  0.28997314  0.00204476  0.25097663  1
  P  P19  1  0.71207162  0.71002686  0.25097663  1
  P  P20  1  0.99795524  0.28792838  0.25097663  1
  P  P21  1  0.28997314  0.28792838  0.75097663  1
  P  P22  1  0.99795524  0.71002686  0.75097663  1
  P  P23  1  0.71207162  0.00204476  0.75097663  1
  P  P24  1  0.95664014  0.33537776  0.58430963  1
  P  P25  1  0.37873862  0.04335986  0.58430963  1
  P  P26  1  0.66462224  0.62126138  0.58430963  1
  P  P27  1  0.95664014  0.62126138  0.08430963  1
  P  P28  1  0.66462224  0.04335986  0.08430963  1
  P  P29  1  0.37873862  0.33537776  0.08430963  1
  P  P30  1  0.62330614  0.66871176  0.91764363  1
  P  P31  1  0.04540462  0.37669386  0.91764363  1
  P  P32  1  0.33128824  0.95459538  0.91764363  1
  P  P33  1  0.62330614  0.95459538  0.41764363  1
  P  P34  1  0.33128824  0.37669386  0.41764363  1
  P  P35  1  0.04540462  0.66871176  0.41764363  1
  O  O36  1  0.20546792  0.02619883  0.30448120  1
  O  O37  1  0.82073091  0.79453208  0.30448120  1
  O  O38  1  0.97380117  0.17926909  0.30448120  1
  O  O39  1  0.20546792  0.17926909  0.80448120  1
  O  O40  1  0.97380117  0.79453208  0.80448120  1
  O  O41  1  0.82073091  0.02619883  0.80448120  1
  O  O42  1  0.79914335  0.96967297  0.69555789  1
  O  O43  1  0.17052962  0.20085665  0.69555789  1
  O  O44  1  0.03032703  0.82947038  0.69555789  1
  O  O45  1  0.79914335  0.82947038  0.19555789  1
  O  O46  1  0.03032703  0.20085665  0.19555789  1
  O  O47  1  0.17052962  0.96967297  0.19555789  1
  O  O48  1  0.87213492  0.35953183  0.63781420  1
  O  O49  1  0.48739791  0.12786508  0.63781420  1
  O  O50  1  0.64046817  0.51260209  0.63781420  1
  O  O51  1  0.87213492  0.51260209  0.13781420  1
  O  O52  1  0.64046817  0.12786508  0.13781420  1
  O  O53  1  0.48739791  0.35953183  0.13781420  1
  O  O54  1  0.46581035  0.30300597  0.02889089  1
  O  O55  1  0.83719662  0.53418965  0.02889089  1
  O  O56  1  0.69699403  0.16280338  0.02889089  1
  O  O57  1  0.46581035  0.16280338  0.52889089  1
  O  O58  1  0.69699403  0.53418965  0.52889089  1
  O  O59  1  0.83719662  0.30300597  0.52889089  1
  O  O60  1  0.53880092  0.69286583  0.97114820  1
  O  O61  1  0.15406391  0.46119908  0.97114820  1
  O  O62  1  0.30713417  0.84593609  0.97114820  1
  O  O63  1  0.53880092  0.84593609  0.47114820  1
  O  O64  1  0.30713417  0.46119908  0.47114820  1
  O  O65  1  0.15406391  0.69286583  0.47114820  1
  O  O66  1  0.13247635  0.63633997  0.36222489  1
  O  O67  1  0.50386262  0.86752365  0.36222489  1
  O  O68  1  0.36366003  0.49613738  0.36222489  1
  O  O69  1  0.13247635  0.49613738  0.86222489  1
  O  O70  1  0.36366003  0.86752365  0.86222489  1
  O  O71  1  0.50386262  0.63633997  0.86222489  1
  O  O72  1  0.01917090  0.82483148  0.40942419  1
  O  O73  1  0.80566058  0.98082910  0.40942419  1
  O  O74  1  0.17516852  0.19433942  0.40942419  1
  O  O75  1  0.01917090  0.19433942  0.90942419  1
  O  O76  1  0.17516852  0.98082910  0.90942419  1
  O  O77  1  0.80566058  0.82483148  0.90942419  1
  O  O78  1  0.97097375  0.16409343  0.59087496  1
  O  O79  1  0.19311968  0.02902625  0.59087496  1
  O  O80  1  0.83590657  0.80688032  0.59087496  1
  O  O81  1  0.97097375  0.80688032  0.09087496  1
  O  O82  1  0.83590657  0.02902625  0.09087496  1
  O  O83  1  0.19311968  0.16409343  0.09087496  1
  O  O84  1  0.68583790  0.15816448  0.74275719  1
  O  O85  1  0.47232758  0.31416210  0.74275719  1
  O  O86  1  0.84183552  0.52767242  0.74275719  1
  O  O87  1  0.68583790  0.52767242  0.24275719  1
  O  O88  1  0.84183552  0.31416210  0.24275719  1
  O  O89  1  0.47232758  0.15816448  0.24275719  1
  O  O90  1  0.63764075  0.49742643  0.92420796  1
  O  O91  1  0.85978668  0.36235925  0.92420796  1
  O  O92  1  0.50257357  0.14021332  0.92420796  1
  O  O93  1  0.63764075  0.14021332  0.42420796  1
  O  O94  1  0.50257357  0.36235925  0.42420796  1
  O  O95  1  0.85978668  0.49742643  0.42420796  1
  O  O96  1  0.35250390  0.49149848  0.07609119  1
  O  O97  1  0.13899358  0.64749610  0.07609119  1
  O  O98  1  0.50850152  0.86100642  0.07609119  1
  O  O99  1  0.35250390  0.86100642  0.57609119  1
  O  O100  1  0.50850152  0.64749610  0.57609119  1
  O  O101  1  0.13899358  0.49149848  0.57609119  1
  O  O102  1  0.30430675  0.83076043  0.25754196  1
  O  O103  1  0.52645268  0.69569325  0.25754196  1
  O  O104  1  0.16923957  0.47354732  0.25754196  1
  O  O105  1  0.30430675  0.47354732  0.75754196  1
  O  O106  1  0.16923957  0.69569325  0.75754196  1
  O  O107  1  0.52645268  0.83076043  0.75754196  1
