# generated using pymatgen
data_MgV6O5F19
_symmetry_space_group_name_H-M   'P 1'
_cell_length_a   5.39593359
_cell_length_b   5.34347435
_cell_length_c   15.56991759
_cell_angle_alpha   90.60393359
_cell_angle_beta   99.68269580
_cell_angle_gamma   89.24472732
_symmetry_Int_Tables_number   1
_chemical_formula_structural   MgV6O5F19
_chemical_formula_sum   'Mg1 V6 O5 F19'
_cell_volume   442.47842990
_cell_formula_units_Z   1
loop_
 _symmetry_equiv_pos_site_id
 _symmetry_equiv_pos_as_xyz
  1  'x, y, z'
loop_
 _atom_site_type_symbol
 _atom_site_label
 _atom_site_symmetry_multiplicity
 _atom_site_fract_x
 _atom_site_fract_y
 _atom_site_fract_z
 _atom_site_occupancy
  Mg  Mg0  1  0.50048200  0.73687200  0.48333300  1
  V  V1  1  0.98726000  0.98417600  0.00129100  1
  V  V2  1  0.14476000  0.49274400  0.32161100  1
  V  V3  1  0.33529600  0.05612700  0.67221600  1
  V  V4  1  0.45712700  0.46629900  0.99727000  1
  V  V5  1  0.64909200  0.04955200  0.32021500  1
  V  V6  1  0.84580800  0.49507300  0.67873700  1
  O  O7  1  0.05668900  0.21813300  0.65341400  1
  O  O8  1  0.20598900  0.29017800  0.97940400  1
  O  O9  1  0.37369400  0.21300100  0.30752800  1
  O  O10  1  0.54735500  0.27624000  0.65895800  1
  O  O11  1  0.87092300  0.27535900  0.31824400  1
  F  F12  1  0.12121500  0.71295800  0.68189900  1
  F  F13  1  0.04711300  0.08947400  0.11102000  1
  F  F14  1  0.25031200  0.46392600  0.44412600  1
  F  F15  1  0.38057700  0.04499500  0.78703200  1
  F  F16  1  0.11748200  0.58177700  0.21287300  1
  F  F17  1  0.30504100  0.92104600  0.55468300  1
  F  F18  1  0.46932000  0.58179000  0.89226300  1
  F  F19  1  0.68860200  0.20220700  0.97556900  1
  F  F20  1  0.29900100  0.77401100  0.02555700  1
  F  F21  1  0.45337000  0.71612300  0.34925400  1
  F  F22  1  0.62918100  0.77952200  0.68823800  1
  F  F23  1  0.56417200  0.42013900  0.11013100  1
  F  F24  1  0.68293100  0.02701500  0.44384000  1
  F  F25  1  0.88995900  0.43018700  0.79059700  1
  F  F26  1  0.62663300  0.91385600  0.21572200  1
  F  F27  1  0.76424500  0.55578600  0.55362200  1
  F  F28  1  0.97410700  0.92367300  0.88926100  1
  F  F29  1  0.80233300  0.70767200  0.02286600  1
  F  F30  1  0.94802400  0.77509200  0.35030100  1
