# generated using pymatgen
data_Na3Hf2Sc2P5SO24
_symmetry_space_group_name_H-M   'P 1'
_cell_length_a   8.86934485
_cell_length_b   8.85016260
_cell_length_c   23.16701480
_cell_angle_alpha   90.04099800
_cell_angle_beta   90.00216986
_cell_angle_gamma   119.87228186
_symmetry_Int_Tables_number   1
_chemical_formula_structural   Na3Hf2Sc2P5SO24
_chemical_formula_sum   'Na9 Hf6 Sc6 P15 S3 O72'
_cell_volume   1576.88793474
_cell_formula_units_Z   3
loop_
 _symmetry_equiv_pos_site_id
 _symmetry_equiv_pos_as_xyz
  1  'x, y, z'
loop_
 _atom_site_type_symbol
 _atom_site_label
 _atom_site_symmetry_multiplicity
 _atom_site_fract_x
 _atom_site_fract_y
 _atom_site_fract_z
 _atom_site_occupancy
  Na  Na0  1  0.00463673  0.36412642  0.75116258  1
  Na  Na1  1  0.66809964  0.96529877  0.58362368  1
  Na  Na2  1  0.03646318  0.33340542  0.08358876  1
  Na  Na3  1  0.00778400  0.99412823  0.50328709  1
  Na  Na4  1  0.00666710  0.99379486  0.00252239  1
  Na  Na5  1  0.65677635  0.32663842  0.83410263  1
  Na  Na6  1  0.67865140  0.33711199  0.33318075  1
  Na  Na7  1  0.34562172  0.67099608  0.16737710  1
  Na  Na8  1  0.33432040  0.66682628  0.66655353  1
  Hf  Hf9  1  0.98483657  0.99255456  0.35238290  1
  Hf  Hf10  1  0.00588931  0.00477768  0.85183196  1
  Hf  Hf11  1  0.66203635  0.33556067  0.68572208  1
  Hf  Hf12  1  0.67035530  0.33776503  0.18605522  1
  Hf  Hf13  1  0.66541183  0.32867612  0.98139412  1
  Hf  Hf14  1  0.67352379  0.33591477  0.48105115  1
  Sc  Sc15  1  0.00539557  0.99730448  0.64783410  1
  Sc  Sc16  1  0.99264828  0.99574015  0.14746086  1
  Sc  Sc17  1  0.32991702  0.67065932  0.01930672  1
  Sc  Sc18  1  0.32620137  0.66922115  0.51904506  1
  Sc  Sc19  1  0.32996784  0.66620616  0.31459983  1
  Sc  Sc20  1  0.33376088  0.67684258  0.81476544  1
  P  P21  1  0.70372445  0.70648930  0.24930082  1
  P  P22  1  0.00198904  0.29307977  0.24855274  1
  P  P23  1  0.29180393  0.29364530  0.74981104  1
  P  P24  1  0.99930814  0.70744111  0.74986406  1
  P  P25  1  0.70844779  0.99801701  0.74795005  1
  P  P26  1  0.96034914  0.33416490  0.58509422  1
  P  P27  1  0.37609745  0.04489363  0.58215009  1
  P  P28  1  0.66469638  0.62637258  0.58251739  1
  P  P29  1  0.95653799  0.62522300  0.08250043  1
  P  P30  1  0.66430236  0.04055726  0.08433616  1
  P  P31  1  0.37482519  0.33338655  0.08358266  1
  P  P32  1  0.04031091  0.37436185  0.91663118  1
  P  P33  1  0.33281815  0.95968776  0.91711723  1
  P  P34  1  0.62126369  0.95715004  0.41770560  1
  P  P35  1  0.04266811  0.66860696  0.41573795  1
  S  S36  1  0.29060424  0.00122730  0.24997811  1
  S  S37  1  0.62622765  0.66717898  0.91655360  1
  S  S38  1  0.33241615  0.37216264  0.41626050  1
  O  O39  1  0.20725950  0.02416478  0.30224021  1
  O  O40  1  0.81987632  0.79376696  0.30352027  1
  O  O41  1  0.98055509  0.17624651  0.30167609  1
  O  O42  1  0.20523941  0.17853869  0.80403667  1
  O  O43  1  0.97433334  0.79512137  0.80395271  1
  O  O44  1  0.82861851  0.02863996  0.80100980  1
  O  O45  1  0.78979597  0.97695481  0.69228839  1
  O  O46  1  0.17681020  0.20930475  0.69696258  1
  O  O47  1  0.02438139  0.81673274  0.69634897  1
  O  O48  1  0.79392791  0.81659666  0.19595250  1
  O  O49  1  0.02389800  0.21092059  0.19290225  1
  O  O50  1  0.18741720  0.97944512  0.19804793  1
  O  O51  1  0.87291874  0.35659927  0.64017582  1
  O  O52  1  0.49219619  0.13356726  0.63603845  1
  O  O53  1  0.64429310  0.51345434  0.63634627  1
  O  O54  1  0.86742202  0.50778442  0.13608268  1
  O  O55  1  0.64277481  0.13219970  0.13787205  1
  O  O56  1  0.48825670  0.35425250  0.13705227  1
  O  O57  1  0.46717223  0.31256304  0.02996683  1
  O  O58  1  0.84389638  0.53428096  0.02892309  1
  O  O59  1  0.69254158  0.15794432  0.03067543  1
  O  O60  1  0.46854375  0.15689551  0.52857164  1
  O  O61  1  0.68626924  0.53320965  0.52931191  1
  O  O62  1  0.84088748  0.30899511  0.53217978  1
  O  O63  1  0.54725256  0.69220638  0.96870080  1
  O  O64  1  0.14751262  0.45475054  0.97185565  1
  O  O65  1  0.30873414  0.85026611  0.97106441  1
  O  O66  1  0.54730340  0.85339756  0.47380995  1
  O  O67  1  0.30610116  0.45061452  0.46846840  1
  O  O68  1  0.15015662  0.69282772  0.47040544  1
  O  O69  1  0.12487080  0.63892840  0.36219747  1
  O  O70  1  0.51227556  0.86928014  0.36425493  1
  O  O71  1  0.35871720  0.47770177  0.36451103  1
  O  O72  1  0.12360987  0.47960148  0.86147040  1
  O  O73  1  0.36258666  0.87886861  0.86287261  1
  O  O74  1  0.52198234  0.64164224  0.86454190  1
  O  O75  1  0.02450235  0.83368140  0.40829861  1
  O  O76  1  0.80849781  0.98261019  0.40985245  1
  O  O77  1  0.17769312  0.19533407  0.40891210  1
  O  O78  1  0.01532928  0.18748197  0.90983503  1
  O  O79  1  0.16777690  0.97767926  0.91006580  1
  O  O80  1  0.80279155  0.82337089  0.91003469  1
  O  O81  1  0.96565717  0.16307493  0.58832940  1
  O  O82  1  0.19632124  0.02623885  0.58691019  1
  O  O83  1  0.82629074  0.80918788  0.58709994  1
  O  O84  1  0.97681440  0.80592521  0.08825539  1
  O  O85  1  0.83536170  0.03480757  0.08843140  1
  O  O86  1  0.19157739  0.17211546  0.08859712  1
  O  O87  1  0.69911762  0.17023401  0.74401565  1
  O  O88  1  0.47313324  0.30914433  0.74444261  1
  O  O89  1  0.83632257  0.52096857  0.74449326  1
  O  O90  1  0.68820930  0.52370355  0.24429396  1
  O  O91  1  0.83283131  0.30571793  0.24451419  1
  O  O92  1  0.46613372  0.16010975  0.24511572  1
  O  O93  1  0.64711553  0.51050415  0.92278286  1
  O  O94  1  0.85645903  0.35494989  0.92342711  1
  O  O95  1  0.49405900  0.14541725  0.92363133  1
  O  O96  1  0.64481587  0.14341949  0.42327549  1
  O  O97  1  0.48950885  0.35239341  0.42285398  1
  O  O98  1  0.85668831  0.50746307  0.42315010  1
  O  O99  1  0.35268403  0.49519367  0.07812924  1
  O  O100  1  0.13300314  0.63068899  0.07794518  1
  O  O101  1  0.50435811  0.86073134  0.07819087  1
  O  O102  1  0.36920928  0.86710748  0.57797229  1
  O  O103  1  0.50316075  0.64765960  0.57756717  1
  O  O104  1  0.13876038  0.49559150  0.57831759  1
  O  O105  1  0.31157999  0.84646273  0.25573256  1
  O  O106  1  0.52403113  0.68818588  0.25688323  1
  O  O107  1  0.16089400  0.47480146  0.25647997  1
  O  O108  1  0.30633926  0.47271219  0.75788972  1
  O  O109  1  0.15594876  0.67704205  0.75591490  1
  O  O110  1  0.52791381  0.83949647  0.75624555  1
