# generated using pymatgen
data_Na3Sc2Ge2P5SO24
_symmetry_space_group_name_H-M   'P 1'
_cell_length_a   8.63976624
_cell_length_b   8.61908676
_cell_length_c   22.21032331
_cell_angle_alpha   90.30237793
_cell_angle_beta   90.02699244
_cell_angle_gamma   119.63862114
_symmetry_Int_Tables_number   1
_chemical_formula_structural   Na3Sc2Ge2P5SO24
_chemical_formula_sum   'Na9 Sc6 Ge6 P15 S3 O72'
_cell_volume   1437.50700706
_cell_formula_units_Z   3
loop_
 _symmetry_equiv_pos_site_id
 _symmetry_equiv_pos_as_xyz
  1  'x, y, z'
loop_
 _atom_site_type_symbol
 _atom_site_label
 _atom_site_symmetry_multiplicity
 _atom_site_fract_x
 _atom_site_fract_y
 _atom_site_fract_z
 _atom_site_occupancy
  Na  Na0  1  0.00323679  0.36451117  0.75031097  1
  Na  Na1  1  0.66828257  0.96247730  0.58340577  1
  Na  Na2  1  0.03892126  0.33261867  0.08339074  1
  Na  Na3  1  0.00662431  0.99707408  0.49928749  1
  Na  Na4  1  0.00327009  0.99400764  0.99884172  1
  Na  Na5  1  0.65902714  0.32924084  0.83447334  1
  Na  Na6  1  0.67249596  0.33498989  0.33345015  1
  Na  Na7  1  0.34272507  0.67085865  0.16763639  1
  Na  Na8  1  0.33413942  0.66685299  0.66700845  1
  Sc  Sc9  1  0.00660714  0.99820132  0.64472207  1
  Sc  Sc10  1  0.99576767  0.99418711  0.14493182  1
  Sc  Sc11  1  0.33261388  0.67228173  0.01891166  1
  Sc  Sc12  1  0.32649448  0.66828235  0.51881985  1
  Sc  Sc13  1  0.33034492  0.66649880  0.31569922  1
  Sc  Sc14  1  0.33443440  0.67508605  0.81633989  1
  Ge  Ge15  1  0.97689049  0.98587535  0.35031169  1
  Ge  Ge16  1  0.01204339  0.00926393  0.84903109  1
  Ge  Ge17  1  0.66253353  0.33535161  0.68646363  1
  Ge  Ge18  1  0.67589257  0.34215261  0.18539604  1
  Ge  Ge19  1  0.66521492  0.32500222  0.98189597  1
  Ge  Ge20  1  0.67459563  0.33489461  0.48166545  1
  P  P21  1  0.70816990  0.70250627  0.24873673  1
  P  P22  1  0.99325230  0.28687069  0.24933215  1
  P  P23  1  0.29736116  0.28913124  0.74953384  1
  P  P24  1  0.99244326  0.70820791  0.75045914  1
  P  P25  1  0.71030740  0.00160337  0.74879976  1
  P  P26  1  0.95109979  0.33798920  0.58475848  1
  P  P27  1  0.38836886  0.05846849  0.58211872  1
  P  P28  1  0.66432205  0.61083127  0.58273534  1
  P  P29  1  0.94491167  0.61418280  0.08165544  1
  P  P30  1  0.66180763  0.05050844  0.08474851  1
  P  P31  1  0.39007678  0.33438656  0.08356416  1
  P  P32  1  0.02917299  0.36270887  0.91664702  1
  P  P33  1  0.33270863  0.97086684  0.91710172  1
  P  P34  1  0.63276448  0.96917246  0.41774356  1
  P  P35  1  0.02994422  0.66786911  0.41602033  1
  S  S36  1  0.29387817  0.00749489  0.25062106  1
  S  S37  1  0.63574676  0.66755224  0.91680955  1
  S  S38  1  0.33219387  0.36372655  0.41638478  1
  O  O39  1  0.21082286  0.03684736  0.30545972  1
  O  O40  1  0.82777456  0.78408730  0.30655812  1
  O  O41  1  0.96227388  0.16563834  0.30599605  1
  O  O42  1  0.21426252  0.17159300  0.80674886  1
  O  O43  1  0.96099577  0.79490188  0.80767597  1
  O  O44  1  0.83799337  0.04341116  0.80471595  1
  O  O45  1  0.78975294  0.97456736  0.69125123  1
  O  O46  1  0.17667860  0.20950294  0.69504020  1
  O  O47  1  0.02624969  0.81915231  0.69461140  1
  O  O48  1  0.79428828  0.81735315  0.19432197  1
  O  O49  1  0.02494616  0.20927324  0.19200583  1
  O  O50  1  0.18648460  0.97762265  0.19627299  1
  O  O51  1  0.86724335  0.36570845  0.64336552  1
  O  O52  1  0.50749784  0.13764397  0.63973446  1
  O  O53  1  0.63436557  0.49888672  0.64052490  1
  O  O54  1  0.86811565  0.49631669  0.13916187  1
  O  O55  1  0.63345458  0.13773729  0.14190260  1
  O  O56  1  0.50370411  0.36532177  0.14136298  1
  O  O57  1  0.47299141  0.30380813  0.02612722  1
  O  O58  1  0.82927673  0.52680822  0.02514832  1
  O  O59  1  0.70224373  0.16919094  0.02773122  1
  O  O60  1  0.47454548  0.17105804  0.52530810  1
  O  O61  1  0.69524314  0.52678414  0.52559474  1
  O  O62  1  0.83054370  0.29880072  0.52822738  1
  O  O63  1  0.55579556  0.69889783  0.97067937  1
  O  O64  1  0.14375269  0.44119954  0.97335797  1
  O  O65  1  0.29845962  0.85472946  0.97250954  1
  O  O66  1  0.55928773  0.85745152  0.47478303  1
  O  O67  1  0.30053085  0.44333356  0.47047244  1
  O  O68  1  0.14547958  0.70374407  0.47213993  1
  O  O69  1  0.11041202  0.62998269  0.36084878  1
  O  O70  1  0.51712188  0.88501336  0.36246378  1
  O  O71  1  0.36443469  0.47528660  0.36295069  1
  O  O72  1  0.10962814  0.47603787  0.86040222  1
  O  O73  1  0.37127290  0.89207153  0.86137829  1
  O  O74  1  0.52439307  0.63492063  0.86297299  1
  O  O75  1  0.01703710  0.84234073  0.40690648  1
  O  O76  1  0.82284993  0.98883897  0.40896313  1
  O  O77  1  0.17057368  0.18460720  0.40846005  1
  O  O78  1  0.01072788  0.17322982  0.90765599  1
  O  O79  1  0.15990409  0.98416096  0.90792472  1
  O  O80  1  0.81352520  0.82963870  0.90965766  1
  O  O81  1  0.96280723  0.16648246  0.58760603  1
  O  O82  1  0.20423957  0.03845782  0.58569272  1
  O  O83  1  0.82854949  0.79820480  0.58622008  1
  O  O84  1  0.96529811  0.79864411  0.08597291  1
  O  O85  1  0.83304502  0.03812228  0.08791481  1
  O  O86  1  0.20285288  0.17006794  0.08743020  1
  O  O87  1  0.69873438  0.17831178  0.74408262  1
  O  O88  1  0.48319050  0.30459922  0.74290670  1
  O  O89  1  0.82404187  0.51690582  0.74447342  1
  O  O90  1  0.69261443  0.51373041  0.24289652  1
  O  O91  1  0.81986590  0.30218025  0.24370923  1
  O  O92  1  0.47293337  0.16943790  0.24551978  1
  O  O93  1  0.65219404  0.50390018  0.92345659  1
  O  O94  1  0.84193492  0.34728333  0.92489595  1
  O  O95  1  0.50172558  0.15910370  0.92534690  1
  O  O96  1  0.65142761  0.15824135  0.42521120  1
  O  O97  1  0.49533476  0.34718926  0.42326296  1
  O  O98  1  0.84199341  0.49926944  0.42480138  1
  O  O99  1  0.36583943  0.49924996  0.07883341  1
  O  O100  1  0.12852854  0.62637771  0.07784448  1
  O  O101  1  0.49824288  0.86681854  0.07936975  1
  O  O102  1  0.37490150  0.87336455  0.57848840  1
  O  O103  1  0.49955946  0.63434480  0.57827666  1
  O  O104  1  0.13385310  0.50255991  0.57941663  1
  O  O105  1  0.31354979  0.84740416  0.25625979  1
  O  O106  1  0.52458595  0.68297980  0.25731091  1
  O  O107  1  0.15564331  0.47184858  0.25770526  1
  O  O108  1  0.31403212  0.47315165  0.75842956  1
  O  O109  1  0.15236046  0.67724878  0.75727203  1
  O  O110  1  0.52713371  0.83989860  0.75692079  1
