# generated using pymatgen
data_Mn2Bi2O5
_symmetry_space_group_name_H-M   'P 1'
_cell_length_a   10.19400515
_cell_length_b   9.98550292
_cell_length_c   10.02177386
_cell_angle_alpha   115.59006404
_cell_angle_beta   106.30642536
_cell_angle_gamma   97.63180930
_symmetry_Int_Tables_number   1
_chemical_formula_structural   Mn2Bi2O5
_chemical_formula_sum   'Mn12 Bi12 O30'
_cell_volume   844.16310750
_cell_formula_units_Z   6
loop_
 _symmetry_equiv_pos_site_id
 _symmetry_equiv_pos_as_xyz
  1  'x, y, z'
loop_
 _atom_site_type_symbol
 _atom_site_label
 _atom_site_symmetry_multiplicity
 _atom_site_fract_x
 _atom_site_fract_y
 _atom_site_fract_z
 _atom_site_occupancy
  Mn  Mn0  1  0.16626400  0.53961200  0.12907600  1
  Mn  Mn1  1  0.83373600  0.46038800  0.87092400  1
  Mn  Mn2  1  0.38847900  0.65589800  0.95606200  1
  Mn  Mn3  1  0.61152100  0.34410200  0.04393800  1
  Mn  Mn4  1  0.04939200  0.48009400  0.66945500  1
  Mn  Mn5  1  0.95060800  0.51990600  0.33054500  1
  Mn  Mn6  1  0.83236900  0.12504100  0.53264100  1
  Mn  Mn7  1  0.16763100  0.87495900  0.46735900  1
  Mn  Mn8  1  0.22598500  0.20151800  0.80054200  1
  Mn  Mn9  1  0.77401500  0.79848200  0.19945800  1
  Mn  Mn10  1  0.66868700  0.09850500  0.15635000  1
  Mn  Mn11  1  0.33131300  0.90149500  0.84365000  1
  Bi  Bi12  1  0.32332900  0.21998600  0.15292800  1
  Bi  Bi13  1  0.67667100  0.78001400  0.84707200  1
  Bi  Bi14  1  0.43748300  0.32231100  0.66442200  1
  Bi  Bi15  1  0.56251700  0.67768900  0.33557800  1
  Bi  Bi16  1  0.69477800  0.42838800  0.46971800  1
  Bi  Bi17  1  0.30522200  0.57161200  0.53028200  1
  Bi  Bi18  1  0.07051400  0.15742800  0.37749400  1
  Bi  Bi19  1  0.92948600  0.84257200  0.62250600  1
  Bi  Bi20  1  0.57525600  0.03646900  0.69910700  1
  Bi  Bi21  1  0.42474400  0.96353100  0.30089300  1
  Bi  Bi22  1  0.93438500  0.19344400  0.98924100  1
  Bi  Bi23  1  0.06561500  0.80655600  0.01075900  1
  O  O24  1  0.43431100  0.45615200  0.30356500  1
  O  O25  1  0.56568900  0.54384800  0.69643500  1
  O  O26  1  0.35388100  0.07469100  0.62698900  1
  O  O27  1  0.64611900  0.92530900  0.37301100  1
  O  O28  1  0.74980800  0.35207900  0.25813200  1
  O  O29  1  0.25019200  0.64792100  0.74186800  1
  O  O30  1  0.54015700  0.17635400  0.29901600  1
  O  O31  1  0.45984300  0.82364600  0.70098400  1
  O  O32  1  0.68432000  0.11373200  0.95069700  1
  O  O33  1  0.31568000  0.88626800  0.04930300  1
  O  O34  1  0.93099000  0.42627800  0.07417200  1
  O  O35  1  0.06901000  0.57372200  0.92582800  1
  O  O36  1  0.41186600  0.16945700  0.97728200  1
  O  O37  1  0.58813400  0.83054300  0.02271800  1
  O  O38  1  0.62641700  0.30939300  0.81533700  1
  O  O39  1  0.37358300  0.69060800  0.18466300  1
  O  O40  1  0.84807900  0.05350500  0.28449300  1
  O  O41  1  0.15192100  0.94649500  0.71550700  1
  O  O42  1  0.36300000  0.41433300  0.84783700  1
  O  O43  1  0.63700000  0.58566700  0.15216300  1
  O  O44  1  0.06428300  0.20970900  0.60425800  1
  O  O45  1  0.93571700  0.79029100  0.39574200  1
  O  O46  1  0.82631400  0.35578900  0.62278100  1
  O  O47  1  0.17368600  0.64421100  0.37721900  1
  O  O48  1  0.92603500  0.60862800  0.57144300  1
  O  O49  1  0.07396500  0.39137200  0.42855700  1
  O  O50  1  0.84007300  0.70619100  0.99355200  1
  O  O51  1  0.15992700  0.29380900  0.00644800  1
  O  O52  1  0.15845900  0.88938700  0.25875600  1
  O  O53  1  0.84154100  0.11061300  0.74124400  1
