# generated using pymatgen
data_Hg5(SbI3)2
_symmetry_space_group_name_H-M   'P 1'
_cell_length_a   8.29906663
_cell_length_b   10.99064415
_cell_length_c   21.64837844
_cell_angle_alpha   90.00000000
_cell_angle_beta   90.00000000
_cell_angle_gamma   90.00000000
_symmetry_Int_Tables_number   1
_chemical_formula_structural   Hg5(SbI3)2
_chemical_formula_sum   'Hg20 Sb8 I24'
_cell_volume   1974.59380165
_cell_formula_units_Z   4
loop_
 _symmetry_equiv_pos_site_id
 _symmetry_equiv_pos_as_xyz
  1  'x, y, z'
loop_
 _atom_site_type_symbol
 _atom_site_label
 _atom_site_symmetry_multiplicity
 _atom_site_fract_x
 _atom_site_fract_y
 _atom_site_fract_z
 _atom_site_occupancy
  Hg  Hg0  1  0.91037149  0.78123879  0.17495244  1
  Hg  Hg1  1  0.08962851  0.28123879  0.82504756  1
  Hg  Hg2  1  0.58962851  0.78123879  0.67495244  1
  Hg  Hg3  1  0.41037149  0.28123879  0.32504756  1
  Hg  Hg4  1  0.15396868  0.66310953  0.76950862  1
  Hg  Hg5  1  0.84603132  0.16310953  0.23049138  1
  Hg  Hg6  1  0.34603132  0.66310953  0.26950862  1
  Hg  Hg7  1  0.65396868  0.16310953  0.73049138  1
  Hg  Hg8  1  0.95246334  0.50002440  0.60232021  1
  Hg  Hg9  1  0.04753666  0.00002440  0.39767979  1
  Hg  Hg10  1  0.54753666  0.50002440  0.10232021  1
  Hg  Hg11  1  0.45246334  0.00002440  0.89767979  1
  Hg  Hg12  1  0.22974420  0.64205806  0.47941934  1
  Hg  Hg13  1  0.77025580  0.14205806  0.52058066  1
  Hg  Hg14  1  0.27025580  0.64205806  0.97941934  1
  Hg  Hg15  1  0.72974420  0.14205806  0.02058066  1
  Hg  Hg16  1  0.08575285  0.90370687  0.61400707  1
  Hg  Hg17  1  0.91424715  0.40370687  0.38599293  1
  Hg  Hg18  1  0.41424715  0.90370687  0.11400707  1
  Hg  Hg19  1  0.58575285  0.40370687  0.88599293  1
  Sb  Sb20  1  0.22633408  0.50840796  0.08311687  1
  Sb  Sb21  1  0.77366592  0.00840796  0.91688313  1
  Sb  Sb22  1  0.27366592  0.50840796  0.58311687  1
  Sb  Sb23  1  0.72633408  0.00840796  0.41688313  1
  Sb  Sb24  1  0.22298045  0.72234081  0.15868393  1
  Sb  Sb25  1  0.77701955  0.22234081  0.84131607  1
  Sb  Sb26  1  0.27701955  0.72234081  0.65868393  1
  Sb  Sb27  1  0.72298045  0.22234081  0.34131607  1
  I  I28  1  0.79689168  0.78451998  0.55777963  1
  I  I29  1  0.20310832  0.28451998  0.44222037  1
  I  I30  1  0.70310832  0.78451998  0.05777963  1
  I  I31  1  0.29689168  0.28451998  0.94222037  1
  I  I32  1  0.25225151  0.00129940  0.29391145  1
  I  I33  1  0.74774849  0.50129940  0.70608855  1
  I  I34  1  0.24774849  0.00129940  0.79391145  1
  I  I35  1  0.75225151  0.50129940  0.20608855  1
  I  I36  1  0.00457526  0.60657128  0.87670168  1
  I  I37  1  -0.00457526  0.10657128  0.12329832  1
  I  I38  1  0.49542474  0.60657128  0.37670168  1
  I  I39  1  0.50457526  0.10657128  0.62329832  1
  I  I40  1  0.49253794  0.15151838  0.12126117  1
  I  I41  1  0.50746206  0.65151838  0.87873883  1
  I  I42  1  0.00746206  0.15151838  0.62126117  1
  I  I43  1  0.99253794  0.65151838  0.37873883  1
  I  I44  1  0.70848487  0.41325994  0.51209719  1
  I  I45  1  0.29151513  0.91325994  0.48790281  1
  I  I46  1  0.79151513  0.41325994  0.01209719  1
  I  I47  1  0.20848487  0.91325994  0.98790281  1
  I  I48  1  0.31811622  0.37844361  0.74846604  1
  I  I49  1  0.68188378  0.87844361  0.25153396  1
  I  I50  1  0.18188378  0.37844361  0.24846604  1
  I  I51  1  0.81811622  0.87844361  0.75153396  1
