# generated using pymatgen
data_V2Pb3O8
_symmetry_space_group_name_H-M   'P 1'
_cell_length_a   6.33028822
_cell_length_b   7.45718634
_cell_length_c   9.40980054
_cell_angle_alpha   65.13675042
_cell_angle_beta   90.00000000
_cell_angle_gamma   90.00000000
_symmetry_Int_Tables_number   1
_chemical_formula_structural   V2Pb3O8
_chemical_formula_sum   'V4 Pb6 O16'
_cell_volume   403.02914683
_cell_formula_units_Z   2
loop_
 _symmetry_equiv_pos_site_id
 _symmetry_equiv_pos_as_xyz
  1  'x, y, z'
loop_
 _atom_site_type_symbol
 _atom_site_label
 _atom_site_symmetry_multiplicity
 _atom_site_fract_x
 _atom_site_fract_y
 _atom_site_fract_z
 _atom_site_occupancy
  V  V0  1  0.51827139  0.20413478  0.09662651  1
  V  V1  1  0.01827139  0.79586522  0.40337349  1
  V  V2  1  0.48172861  0.79586522  0.90337349  1
  V  V3  1  0.98172861  0.20413478  0.59662651  1
  Pb  Pb4  1  0.09702110  0.38691134  0.21029964  1
  Pb  Pb5  1  0.59702110  0.61308866  0.28970036  1
  Pb  Pb6  1  0.90297890  0.61308866  0.78970036  1
  Pb  Pb7  1  0.40297890  0.38691134  0.71029964  1
  Pb  Pb8  1  0.50000000  -0.00000000  0.50000000  1
  Pb  Pb9  1  0.00000000  -0.00000000  -0.00000000  1
  O  O10  1  0.54168077  0.96261034  0.22490104  1
  O  O11  1  0.04168077  0.03738966  0.27509896  1
  O  O12  1  0.45831923  0.03738966  0.77509896  1
  O  O13  1  0.95831923  0.96261034  0.72490104  1
  O  O14  1  0.47477978  0.33251851  0.21168598  1
  O  O15  1  0.97477978  0.66748149  0.28831402  1
  O  O16  1  0.52522022  0.66748149  0.78831402  1
  O  O17  1  0.02522022  0.33251851  0.71168598  1
  O  O18  1  0.29794953  0.24809783  0.97503572  1
  O  O19  1  0.79794953  0.75190217  0.52496428  1
  O  O20  1  0.76240350  0.27676910  0.48001570  1
  O  O21  1  0.26240350  0.72323090  0.01998430  1
  O  O22  1  0.23759650  0.72323090  0.51998430  1
  O  O23  1  0.73759650  0.27676910  0.98001570  1
  O  O24  1  0.20205047  0.24809783  0.47503572  1
  O  O25  1  0.70205047  0.75190217  0.02496428  1
