# generated using pymatgen
data_Cs4Mg(WO4)2
_symmetry_space_group_name_H-M   'P 1'
_cell_length_a   6.65074305
_cell_length_b   7.58101948
_cell_length_c   10.68777174
_cell_angle_alpha   67.88341927
_cell_angle_beta   86.57513766
_cell_angle_gamma   63.91608293
_symmetry_Int_Tables_number   1
_chemical_formula_structural   Cs4Mg(WO4)2
_chemical_formula_sum   'Cs4 Mg1 W2 O8'
_cell_volume   444.73635115
_cell_formula_units_Z   1
loop_
 _symmetry_equiv_pos_site_id
 _symmetry_equiv_pos_as_xyz
  1  'x, y, z'
loop_
 _atom_site_type_symbol
 _atom_site_label
 _atom_site_symmetry_multiplicity
 _atom_site_fract_x
 _atom_site_fract_y
 _atom_site_fract_z
 _atom_site_occupancy
  Cs  Cs0  1  0.48237216  0.99654244  0.18371675  1
  Cs  Cs1  1  0.17288002  0.68093405  0.78897601  1
  Cs  Cs2  1  0.82158936  0.31903194  0.21619940  1
  Cs  Cs3  1  0.51215408  0.00017069  0.80869935  1
  Mg  Mg4  1  0.83490701  0.49640914  0.53308903  1
  W  W5  1  0.15962334  0.67355393  0.15337868  1
  W  W6  1  0.84794109  0.32962307  0.83653235  1
  O  O7  1  0.08917234  0.84512317  0.24703946  1
  O  O8  1  0.73266433  0.60431457  0.70489299  1
  O  O9  1  0.07152697  0.28564614  0.94987489  1
  O  O10  1  0.62408656  0.27887226  0.92259262  1
  O  O11  1  0.90708101  0.72626596  0.05672443  1
  O  O12  1  0.35274396  0.72895218  0.03288972  1
  O  O13  1  0.30425462  0.39122308  0.26201460  1
  O  O14  1  0.95700314  0.19333738  0.71744171  1
