# generated using pymatgen
data_Na2Zn2Si3Sn6(S3O16)3
_symmetry_space_group_name_H-M   'P 1'
_cell_length_a   17.55934134
_cell_length_b   8.79114679
_cell_length_c   22.96504622
_cell_angle_alpha   90.01318763
_cell_angle_beta   89.71400981
_cell_angle_gamma   120.08904442
_symmetry_Int_Tables_number   1
_chemical_formula_structural   Na2Zn2Si3Sn6(S3O16)3
_chemical_formula_sum   'Na6 Zn6 Si9 Sn18 S27 O144'
_cell_volume   3067.28705278
_cell_formula_units_Z   3
loop_
 _symmetry_equiv_pos_site_id
 _symmetry_equiv_pos_as_xyz
  1  'x, y, z'
loop_
 _atom_site_type_symbol
 _atom_site_label
 _atom_site_symmetry_multiplicity
 _atom_site_fract_x
 _atom_site_fract_y
 _atom_site_fract_z
 _atom_site_occupancy
  Na  Na0  1  0.00151878  0.99156397  0.49457982  1
  Na  Na1  1  0.50011865  0.00949560  0.99889264  1
  Na  Na2  1  0.32895641  0.32472571  0.83703148  1
  Na  Na3  1  0.83439196  0.33349517  0.83737408  1
  Na  Na4  1  0.32682173  0.32456698  0.33301710  1
  Na  Na5  1  0.83083623  0.33554822  0.33533870  1
  Zn  Zn6  1  0.00866498  0.98465970  0.35306112  1
  Zn  Zn7  1  0.49967569  0.01357589  0.85639858  1
  Zn  Zn8  1  0.00632705  0.01303149  0.65060023  1
  Zn  Zn9  1  0.50394546  0.99703396  0.15331083  1
  Zn  Zn10  1  0.83456189  0.33303078  0.98496655  1
  Zn  Zn11  1  0.33183987  0.33184802  0.48000667  1
  Si  Si12  1  0.14668230  0.00201699  0.25222451  1
  Si  Si13  1  0.64485229  0.99548864  0.24782392  1
  Si  Si14  1  0.14497983  0.29502570  0.74790337  1
  Si  Si15  1  0.68885135  0.03925884  0.58231841  1
  Si  Si16  1  0.18752437  0.33650998  0.08144404  1
  Si  Si17  1  0.52009627  0.37183205  0.91786119  1
  Si  Si18  1  0.16552770  0.94824743  0.91638380  1
  Si  Si19  1  0.66362898  0.38035073  0.41602253  1
  Si  Si20  1  0.01936050  0.66948215  0.41812601  1
  Sn  Sn21  1  0.50885428  0.01331460  0.35276380  1
  Sn  Sn22  1  0.01023623  0.00632142  0.85455551  1
  Sn  Sn23  1  0.50360398  0.00194443  0.64503049  1
  Sn  Sn24  1  0.01027894  0.00718884  0.14779064  1
  Sn  Sn25  1  0.32612519  0.32845409  0.68415769  1
  Sn  Sn26  1  0.83328906  0.32822954  0.68084800  1
  Sn  Sn27  1  0.32552371  0.33006156  0.18525012  1
  Sn  Sn28  1  0.82859177  0.32568473  0.18579781  1
  Sn  Sn29  1  0.32840592  0.31767095  0.97849219  1
  Sn  Sn30  1  0.82737515  0.33680236  0.47651397  1
  Sn  Sn31  1  0.16545946  0.66764795  0.02238879  1
  Sn  Sn32  1  0.66357999  0.65943580  0.02098521  1
  Sn  Sn33  1  0.16470880  0.66931899  0.51679056  1
  Sn  Sn34  1  0.66601645  0.66788481  0.51920869  1
  Sn  Sn35  1  0.15926930  0.66834089  0.31176634  1
  Sn  Sn36  1  0.66814493  0.66835961  0.31159067  1
  Sn  Sn37  1  0.16728836  0.66485739  0.81337449  1
  Sn  Sn38  1  0.66241581  0.66332949  0.81582414  1
  S  S39  1  0.35450185  0.71123719  0.25173274  1
  S  S40  1  0.85601334  0.71206151  0.24839078  1
  S  S41  1  0.99874489  0.28803563  0.25097734  1
  S  S42  1  0.49826829  0.29176322  0.24831108  1
  S  S43  1  0.64743186  0.29376983  0.75088166  1
  S  S44  1  0.99684228  0.70327790  0.74831961  1
  S  S45  1  0.50028254  0.71021984  0.75094459  1
  S  S46  1  0.35708230  0.00162873  0.74868187  1
  S  S47  1  0.85282944  0.99728465  0.75181458  1
  S  S48  1  0.47592943  0.33237730  0.58390985  1
  S  S49  1  0.98058843  0.33163238  0.58178718  1
  S  S50  1  0.18706696  0.03895815  0.58067104  1
  S  S51  1  0.33190253  0.62631788  0.58161405  1
  S  S52  1  0.83640316  0.63348525  0.58419702  1
  S  S53  1  0.47805505  0.62570306  0.08297572  1
  S  S54  1  0.97497481  0.62076863  0.08339623  1
  S  S55  1  0.33752701  0.04100496  0.08410090  1
  S  S56  1  0.83351534  0.03781808  0.08203604  1
  S  S57  1  0.68738901  0.33292071  0.08110477  1
  S  S58  1  0.31459554  0.66902522  0.91667457  1
  S  S59  1  0.81382183  0.66805582  0.91570054  1
  S  S60  1  0.01644889  0.37168976  0.91682365  1
  S  S61  1  0.66874097  0.96213526  0.91706695  1
  S  S62  1  0.31465024  0.96002089  0.41596186  1
  S  S63  1  0.81543992  0.95945374  0.41617565  1
  S  S64  1  0.16837873  0.37809205  0.41639396  1
  S  S65  1  0.51691941  0.66233024  0.41656104  1
  O  O66  1  0.10889958  0.05105797  0.30750719  1
  O  O67  1  0.60819669  0.03845775  0.30791786  1
  O  O68  1  0.40868886  0.79084960  0.30554964  1
  O  O69  1  0.90695440  0.78558098  0.30107452  1
  O  O70  1  0.47792748  0.18131131  0.30249078  1
  O  O71  1  0.98070068  0.18073181  0.30273060  1
  O  O72  1  0.10774870  0.17723607  0.80771342  1
  O  O73  1  0.60844596  0.18250688  0.80204795  1
  O  O74  1  0.48546629  0.78860170  0.80275275  1
  O  O75  1  0.97645505  0.77272241  0.80223167  1
  O  O76  1  0.41057721  0.03096695  0.80025206  1
  O  O77  1  0.90601538  0.02528886  0.80534963  1
  O  O78  1  0.39666730  0.97232804  0.69421924  1
  O  O79  1  0.88857561  0.96676458  0.69863987  1
  O  O80  1  0.08815599  0.21357938  0.69115970  1
  O  O81  1  0.59375092  0.21936852  0.69716472  1
  O  O82  1  0.00875538  0.80545951  0.69603535  1
  O  O83  1  0.51365997  0.81537983  0.69662540  1
  O  O84  1  0.39016876  0.81527561  0.19878902  1
  O  O85  1  0.89367680  0.81829101  0.19399243  1
  O  O86  1  0.00989206  0.21149169  0.19559478  1
  O  O87  1  0.51128614  0.21275988  0.19631795  1
  O  O88  1  0.08806941  0.95621949  0.19248159  1
  O  O89  1  0.58893822  0.96345891  0.19056983  1
  O  O90  1  0.43659182  0.36436945  0.63866579  1
  O  O91  1  0.94515136  0.37126003  0.63688992  1
  O  O92  1  0.24192322  0.11390870  0.63535928  1
  O  O93  1  0.74599538  0.11628166  0.64272741  1
  O  O94  1  0.31614702  0.51961618  0.63626850  1
  O  O95  1  0.81883302  0.52083420  0.63825419  1
  O  O96  1  0.44112451  0.51373645  0.13628739  1
  O  O97  1  0.93599613  0.50791858  0.13716022  1
  O  O98  1  0.32133786  0.12080340  0.13645030  1
  O  O99  1  0.81517700  0.11358260  0.13521046  1
  O  O100  1  0.24906969  0.38257679  0.13916503  1
  O  O101  1  0.74272484  0.36728009  0.13466368  1
  O  O102  1  0.23174328  0.29967450  0.02482023  1
  O  O103  1  0.72917986  0.30779165  0.02906480  1
  O  O104  1  0.42542567  0.54102342  0.02988796  1
  O  O105  1  0.92257060  0.54078479  0.03111768  1
  O  O106  1  0.35413051  0.15081496  0.03055241  1
  O  O107  1  0.84851709  0.14646543  0.03009876  1
  O  O108  1  0.23001349  0.15247391  0.53008720  1
  O  O109  1  0.73402758  0.16753942  0.52724884  1
  O  O110  1  0.34875756  0.54746809  0.53080435  1
  O  O111  1  0.85309436  0.55319124  0.53246702  1
  O  O112  1  0.42193855  0.30190824  0.53251268  1
  O  O113  1  0.92467979  0.30837620  0.53105597  1
  O  O114  1  0.27411601  0.69786923  0.96930729  1
  O  O115  1  0.77566173  0.70307580  0.96854498  1
  O  O116  1  0.07254180  0.44796734  0.96861397  1
  O  O117  1  0.58385239  0.46080777  0.97441707  1
  O  O118  1  0.15002801  0.83022019  0.97456501  1
  O  O119  1  0.65520617  0.85141479  0.97003081  1
  O  O120  1  0.27825124  0.85183299  0.47056487  1
  O  O121  1  0.77519852  0.85184546  0.47027464  1
  O  O122  1  0.15623387  0.45994999  0.47178796  1
  O  O123  1  0.64911067  0.46534058  0.47585578  1
  O  O124  1  0.08079798  0.71011466  0.47680742  1
  O  O125  1  0.57243275  0.69868293  0.46950777  1
  O  O126  1  0.05952133  0.61763009  0.36197580  1
  O  O127  1  0.55754908  0.63260959  0.36415352  1
  O  O128  1  0.25820516  0.87814751  0.36445053  1
  O  O129  1  0.75833744  0.88190413  0.36442145  1
  O  O130  1  0.18605790  0.49264255  0.36405601  1
  O  O131  1  0.68364706  0.50263355  0.35804151  1
  O  O132  1  0.05619760  0.48033923  0.86325097  1
  O  O133  1  0.55937514  0.49436082  0.85829329  1
  O  O134  1  0.18395662  0.86710680  0.85680367  1
  O  O135  1  0.68740618  0.88633728  0.86304850  1
  O  O136  1  0.25965923  0.63510451  0.86349743  1
  O  O137  1  0.75779931  0.63497386  0.86223544  1
  O  O138  1  0.00657031  0.83708279  0.41588153  1
  O  O139  1  0.50673213  0.81870960  0.40960754  1
  O  O140  1  0.40097195  0.97171186  0.40778715  1
  O  O141  1  0.90212115  0.97865491  0.40961541  1
  O  O142  1  0.08705636  0.20920381  0.41292087  1
  O  O143  1  0.57459526  0.19013390  0.41184806  1
  O  O144  1  0.00609476  0.19424159  0.90939143  1
  O  O145  1  0.51160583  0.18197261  0.91321083  1
  O  O146  1  0.07539992  0.95742480  0.91229527  1
  O  O147  1  0.58759230  0.96829543  0.91003117  1
  O  O148  1  0.40191660  0.82464885  0.90981515  1
  O  O149  1  0.89965899  0.83013278  0.90643241  1
  O  O150  1  0.48311686  0.17209253  0.59334964  1
  O  O151  1  0.98606389  0.17163884  0.58800474  1
  O  O152  1  0.09921303  0.01659725  0.58793681  1
  O  O153  1  0.59248924  0.02269072  0.59134807  1
  O  O154  1  0.40990595  0.80321102  0.59136480  1
  O  O155  1  0.91439111  0.80733491  0.59223004  1
  O  O156  1  0.48615247  0.79935606  0.08752271  1
  O  O157  1  0.98033135  0.79252500  0.09082698  1
  O  O158  1  0.41490437  0.02042914  0.09074576  1
  O  O159  1  0.90966846  0.01477916  0.09215343  1
  O  O160  1  0.08947848  0.16576787  0.08810671  1
  O  O161  1  0.59891943  0.18100141  0.08744894  1
  O  O162  1  0.34987528  0.16414758  0.74081395  1
  O  O163  1  0.84450011  0.16111701  0.74762654  1
  O  O164  1  0.24575644  0.31648459  0.74534129  1
  O  O165  1  0.73806300  0.31538912  0.74374326  1
  O  O166  1  0.42252374  0.52952684  0.74261085  1
  O  O167  1  0.91518287  0.51797606  0.74342382  1
  O  O168  1  0.35021206  0.53597632  0.24713073  1
  O  O169  1  0.84810898  0.53327930  0.24096872  1
  O  O170  1  0.42021141  0.31770391  0.24284885  1
  O  O171  1  0.92129530  0.31738433  0.24267085  1
  O  O172  1  0.24752921  0.17697520  0.24680411  1
  O  O173  1  0.74523538  0.17496496  0.24515238  1
  O  O174  1  0.32178597  0.50861426  0.92205399  1
  O  O175  1  0.82235480  0.51098283  0.92216045  1
  O  O176  1  0.42655226  0.36897155  0.92415773  1
  O  O177  1  0.92907793  0.35617085  0.92314723  1
  O  O178  1  0.25231575  0.14331973  0.91835399  1
  O  O179  1  0.74808512  0.13702901  0.92283779  1
  O  O180  1  0.32316920  0.13455932  0.42343823  1
  O  O181  1  0.82084710  0.13321464  0.42250451  1
  O  O182  1  0.24835713  0.36317824  0.42297051  1
  O  O183  1  0.75079453  0.35993449  0.41857026  1
  O  O184  1  0.43003009  0.50244344  0.42404057  1
  O  O185  1  0.92605956  0.48258772  0.42469699  1
  O  O186  1  0.17759633  0.51007730  0.07338764  1
  O  O187  1  0.68421922  0.50112664  0.07742404  1
  O  O188  1  0.06341254  0.63943158  0.07898738  1
  O  O189  1  0.56830243  0.64497780  0.07784901  1
  O  O190  1  0.25560566  0.86912247  0.07719591  1
  O  O191  1  0.75188028  0.86011828  0.07477119  1
  O  O192  1  0.18362958  0.86526003  0.57694484  1
  O  O193  1  0.67637229  0.84443740  0.57408181  1
  O  O194  1  0.25229442  0.64415274  0.57518463  1
  O  O195  1  0.75488001  0.64206408  0.57782544  1
  O  O196  1  0.06972845  0.49177174  0.57697791  1
  O  O197  1  0.56438987  0.48871414  0.57958838  1
  O  O198  1  0.16080379  0.83157950  0.25486052  1
  O  O199  1  0.65776809  0.82638654  0.25920490  1
  O  O200  1  0.26467649  0.68280067  0.26123162  1
  O  O201  1  0.76637585  0.68776775  0.25265046  1
  O  O202  1  0.08085620  0.46210216  0.25466614  1
  O  O203  1  0.57794493  0.46519634  0.25691198  1
  O  O204  1  0.15818614  0.49054725  0.75919154  1
  O  O205  1  0.65847526  0.47312394  0.75622091  1
  O  O206  1  0.07485872  0.68428339  0.75680136  1
  O  O207  1  0.58196980  0.69710049  0.75482739  1
  O  O208  1  0.26850683  0.84562531  0.75290699  1
  O  O209  1  0.76208555  0.83901259  0.76014328  1
