# generated using pymatgen
data_Na2HfNbSi2PO12
_symmetry_space_group_name_H-M   'P 1'
_cell_length_a   8.98767492
_cell_length_b   8.98767461
_cell_length_c   22.87677607
_cell_angle_alpha   90.12349952
_cell_angle_beta   89.87650049
_cell_angle_gamma   119.80089654
_symmetry_Int_Tables_number   1
_chemical_formula_structural   Na2HfNbSi2PO12
_chemical_formula_sum   'Na12 Hf6 Nb6 Si12 P6 O72'
_cell_volume   1603.56524411
_cell_formula_units_Z   6
loop_
 _symmetry_equiv_pos_site_id
 _symmetry_equiv_pos_as_xyz
  1  'x, y, z'
loop_
 _atom_site_type_symbol
 _atom_site_label
 _atom_site_symmetry_multiplicity
 _atom_site_fract_x
 _atom_site_fract_y
 _atom_site_fract_z
 _atom_site_occupancy
  Na  Na0  1  0.99391815  0.62975977  0.25064946  1
  Na  Na1  1  0.37024023  0.00608185  0.75064946  1
  Na  Na2  1  0.66058515  0.96309277  0.58398246  1
  Na  Na3  1  0.03690723  0.33941485  0.08398246  1
  Na  Na4  1  0.32725115  0.29642677  0.91731646  1
  Na  Na5  1  0.70357323  0.67274885  0.41731646  1
  Na  Na6  1  0.01648709  0.00359438  0.49850984  1
  Na  Na7  1  0.99640562  0.98351291  0.99850984  1
  Na  Na8  1  0.68315409  0.33692738  0.83184284  1
  Na  Na9  1  0.66307262  0.31684591  0.33184284  1
  Na  Na10  1  0.34982009  0.67026138  0.16517684  1
  Na  Na11  1  0.32973862  0.65017991  0.66517684  1
  Hf  Hf12  1  0.99826788  0.00308747  0.35368473  1
  Hf  Hf13  1  0.99691253  0.00173212  0.85368473  1
  Hf  Hf14  1  0.66493488  0.33642047  0.68701773  1
  Hf  Hf15  1  0.66357953  0.33506512  0.18701773  1
  Hf  Hf16  1  0.33160088  0.66975447  0.02035173  1
  Hf  Hf17  1  0.33024553  0.66839912  0.52035173  1
  Nb  Nb18  1  0.00086288  0.99943089  0.64633390  1
  Nb  Nb19  1  0.00056911  0.99913712  0.14633390  1
  Nb  Nb20  1  0.66752988  0.33276389  0.97966690  1
  Nb  Nb21  1  0.66723611  0.33247012  0.47966690  1
  Nb  Nb22  1  0.33419588  0.66609789  0.31300090  1
  Nb  Nb23  1  0.33390211  0.66580412  0.81300090  1
  Si  Si24  1  0.70802447  0.71210909  0.25105050  1
  Si  Si25  1  0.00027008  0.29084270  0.24981589  1
  Si  Si26  1  0.28789091  0.29197553  0.75105050  1
  Si  Si27  1  0.70915730  0.99972992  0.74981589  1
  Si  Si28  1  0.37469147  0.04544209  0.58438350  1
  Si  Si29  1  0.66693708  0.62417570  0.58314889  1
  Si  Si30  1  0.95455791  0.62530853  0.08438350  1
  Si  Si31  1  0.37582430  0.33306292  0.08314889  1
  Si  Si32  1  0.04135747  0.37877609  0.91771750  1
  Si  Si33  1  0.33360308  0.95750970  0.91648289  1
  Si  Si34  1  0.62122391  0.95864253  0.41771750  1
  Si  Si35  1  0.04249030  0.66639692  0.41648289  1
  P  P36  1  0.28858943  -0.00002414  0.25059357  1
  P  P37  1  0.00002414  0.71141057  0.75059357  1
  P  P38  1  0.95525643  0.33330886  0.58392657  1
  P  P39  1  0.66669114  0.04474357  0.08392657  1
  P  P40  1  0.62192243  0.66664286  0.91726057  1
  P  P41  1  0.33335714  0.37807757  0.41726057  1
  O  O42  1  0.20424105  0.02329965  0.30480311  1
  O  O43  1  0.82740566  0.79416174  0.30830603  1
  O  O44  1  0.97890425  0.17405197  0.30552220  1
  O  O45  1  0.20583826  0.17259434  0.80830603  1
  O  O46  1  0.97670035  0.79575895  0.80480311  1
  O  O47  1  0.82594803  0.02109575  0.80552220  1
  O  O48  1  0.80037257  0.97220795  0.69053552  1
  O  O49  1  0.16311988  0.18861260  0.69437697  1
  O  O50  1  0.02946517  0.82897722  0.69599574  1
  O  O51  1  0.81138740  0.83688012  0.19437697  1
  O  O52  1  0.02779205  0.19962743  0.19053552  1
  O  O53  1  0.17102278  0.97053483  0.19599574  1
  O  O54  1  0.87090805  0.35663265  0.63813611  1
  O  O55  1  0.49407266  0.12749474  0.64163903  1
  O  O56  1  0.64557125  0.50738497  0.63885520  1
  O  O57  1  0.87250526  0.50592734  0.14163903  1
  O  O58  1  0.64336735  0.12909195  0.13813611  1
  O  O59  1  0.49261503  0.35442875  0.13885520  1
  O  O60  1  0.46703957  0.30554095  0.02386852  1
  O  O61  1  0.82978688  0.52194560  0.02770997  1
  O  O62  1  0.69613217  0.16231022  0.02932874  1
  O  O63  1  0.47805440  0.17021312  0.52770997  1
  O  O64  1  0.69445905  0.53296043  0.52386852  1
  O  O65  1  0.83768978  0.30386783  0.52932874  1
  O  O66  1  0.53757405  0.68996665  0.97147011  1
  O  O67  1  0.16073866  0.46082874  0.97497303  1
  O  O68  1  0.31223725  0.84071897  0.97218920  1
  O  O69  1  0.53917126  0.83926134  0.47497303  1
  O  O70  1  0.31003335  0.46242595  0.47147011  1
  O  O71  1  0.15928103  0.68776275  0.47218920  1
  O  O72  1  0.13370557  0.63887495  0.35720252  1
  O  O73  1  0.49645288  0.85527960  0.36104397  1
  O  O74  1  0.36279817  0.49564422  0.36266274  1
  O  O75  1  0.14472040  0.50354712  0.86104397  1
  O  O76  1  0.36112505  0.86629443  0.85720252  1
  O  O77  1  0.50435578  0.63720183  0.86266274  1
  O  O78  1  0.01314776  0.82994741  0.41102751  1
  O  O79  1  0.80794782  0.97329748  0.41001863  1
  O  O80  1  0.18022892  0.19846445  0.40969427  1
  O  O81  1  0.02670252  0.19205218  0.91001863  1
  O  O82  1  0.17005259  0.98685224  0.91102751  1
  O  O83  1  0.80153555  0.81977108  0.90969427  1
  O  O84  1  0.96223189  0.16303742  0.58852728  1
  O  O85  1  0.18514197  0.02808274  0.59048552  1
  O  O86  1  0.83796009  0.81834623  0.59006933  1
  O  O87  1  0.97191726  0.81485803  0.09048552  1
  O  O88  1  0.83696258  0.03776811  0.08852728  1
  O  O89  1  0.18165377  0.16203991  0.09006933  1
  O  O90  1  0.67981476  0.16328041  0.74436051  1
  O  O91  1  0.47461482  0.30663048  0.74335163  1
  O  O92  1  0.84689592  0.53179745  0.74302727  1
  O  O93  1  0.69336952  0.52538518  0.24335163  1
  O  O94  1  0.83671959  0.32018524  0.24436051  1
  O  O95  1  0.46820255  0.15310408  0.24302727  1
  O  O96  1  0.62889889  0.49637042  0.92186028  1
  O  O97  1  0.85180897  0.36141574  0.92381852  1
  O  O98  1  0.50462709  0.15167923  0.92340233  1
  O  O99  1  0.63858426  0.14819103  0.42381852  1
  O  O100  1  0.50362958  0.37110111  0.42186028  1
  O  O101  1  0.84832077  0.49537291  0.42340233  1
  O  O102  1  0.34648076  0.49661441  0.07769451  1
  O  O103  1  0.14128082  0.63996448  0.07668563  1
  O  O104  1  0.51356192  0.86513145  0.07636127  1
  O  O105  1  0.36003552  0.85871918  0.57668563  1
  O  O106  1  0.50338559  0.65351924  0.57769451  1
  O  O107  1  0.13486855  0.48643808  0.57636127  1
  O  O108  1  0.29556489  0.82970442  0.25519428  1
  O  O109  1  0.51847497  0.69474974  0.25715252  1
  O  O110  1  0.17129309  0.48501323  0.25673633  1
  O  O111  1  0.30525026  0.48152503  0.75715252  1
  O  O112  1  0.17029558  0.70443511  0.75519428  1
  O  O113  1  0.51498677  0.82870691  0.75673633  1
