# generated using pymatgen
data_NaLaYP(SO6)2
_symmetry_space_group_name_H-M   'P 1'
_cell_length_a   9.30263459
_cell_length_b   9.30239225
_cell_length_c   24.80750761
_cell_angle_alpha   89.98185374
_cell_angle_beta   89.99747409
_cell_angle_gamma   120.06183560
_symmetry_Int_Tables_number   1
_chemical_formula_structural   NaLaYP(SO6)2
_chemical_formula_sum   'Na6 La6 Y6 P6 S12 O72'
_cell_volume   1857.99010581
_cell_formula_units_Z   6
loop_
 _symmetry_equiv_pos_site_id
 _symmetry_equiv_pos_as_xyz
  1  'x, y, z'
loop_
 _atom_site_type_symbol
 _atom_site_label
 _atom_site_symmetry_multiplicity
 _atom_site_fract_x
 _atom_site_fract_y
 _atom_site_fract_z
 _atom_site_occupancy
  Na  Na0  1  0.97942514  0.98705566  0.49915431  1
  Na  Na1  1  0.00783083  0.98642865  0.99941142  1
  Na  Na2  1  0.65730443  0.31021130  0.83191262  1
  Na  Na3  1  0.65352336  0.31107359  0.33371011  1
  Na  Na4  1  0.31880744  0.67310526  0.16538655  1
  Na  Na5  1  0.35351421  0.67271876  0.66577310  1
  La  La6  1  0.99878046  0.00066081  0.84973589  1
  La  La7  1  0.00710850  0.99151384  0.14909948  1
  La  La8  1  0.66654561  0.33257116  0.18439306  1
  La  La9  1  0.66679210  0.33241321  0.98260349  1
  La  La10  1  0.33956098  0.68348839  0.31914424  1
  La  La11  1  0.34324719  0.68364605  0.81275458  1
  Y  Y12  1  0.00190471  0.00085742  0.35303103  1
  Y  Y13  1  0.98558609  0.99213741  0.64665820  1
  Y  Y14  1  0.66571142  0.33295005  0.68107747  1
  Y  Y15  1  0.66676340  0.33405108  0.48464303  1
  Y  Y16  1  0.32442013  0.67357340  0.01664795  1
  Y  Y17  1  0.35122733  0.67412087  0.51765389  1
  P  P18  1  0.29802900  0.00402996  0.25301951  1
  P  P19  1  0.70737644  0.00928994  0.74649737  1
  P  P20  1  0.66612602  0.62558958  0.58296545  1
  P  P21  1  0.97126106  0.63126749  0.08241358  1
  P  P22  1  0.33065080  0.96443975  0.91754766  1
  P  P23  1  0.63951867  0.97240280  0.41923320  1
  S  S24  1  0.70553044  0.70438358  0.25287757  1
  S  S25  1  0.00055555  0.29373579  0.25237994  1
  S  S26  1  0.29858183  0.29336016  0.74537891  1
  S  S27  1  0.99304513  0.69933098  0.74570111  1
  S  S28  1  0.96394847  0.33597197  0.58272718  1
  S  S29  1  0.36998528  0.03737718  0.58306814  1
  S  S30  1  0.66111628  0.02394549  0.08257312  1
  S  S31  1  0.36549876  0.34332448  0.08196960  1
  S  S32  1  0.62637561  0.66841537  0.91886605  1
  S  S33  1  0.04282964  0.37329863  0.91736042  1
  S  S34  1  0.33313642  0.36684689  0.41884144  1
  S  S35  1  0.03280213  0.66627989  0.42007499  1
  O  O36  1  0.20104100  0.01169723  0.30247421  1
  O  O37  1  0.80542254  0.79530629  0.30042416  1
  O  O38  1  0.98795883  0.19226298  0.30011390  1
  O  O39  1  0.22593402  0.20060971  0.79658053  1
  O  O40  1  0.97558854  0.77310031  0.79684544  1
  O  O41  1  0.80258348  0.02464933  0.79969991  1
  O  O42  1  0.80170677  0.99238672  0.69798168  1
  O  O43  1  0.19418661  0.20261808  0.69884191  1
  O  O44  1  0.01236504  0.80675470  0.69933119  1
  O  O45  1  0.78148739  0.79741051  0.20236866  1
  O  O46  1  0.01103378  0.21408785  0.20183788  1
  O  O47  1  0.20345538  0.99090611  0.20015715  1
  O  O48  1  0.88353724  0.35612976  0.63166756  1
  O  O49  1  0.47327831  0.11559899  0.63171755  1
  O  O50  1  0.64595504  0.52048161  0.63377997  1
  O  O51  1  0.88417201  0.53095590  0.13403416  1
  O  O52  1  0.64065456  0.10342050  0.13160559  1
  O  O53  1  0.46156180  0.35819567  0.13149665  1
  O  O54  1  0.44706669  0.31984292  0.03400198  1
  O  O55  1  0.86643621  0.54259334  0.03209190  1
  O  O56  1  0.67939012  0.12509404  0.03409945  1
  O  O57  1  0.45082161  0.13901463  0.53462675  1
  O  O58  1  0.68566924  0.53969736  0.53256507  1
  O  O59  1  0.85969141  0.31077282  0.53460873  1
  O  O60  1  0.53685520  0.67581682  0.96670176  1
  O  O61  1  0.13988110  0.45975843  0.96571621  1
  O  O62  1  0.32064869  0.86112425  0.96754910  1
  O  O63  1  0.54695692  0.85720989  0.46791595  1
  O  O64  1  0.31074749  0.45154377  0.46613827  1
  O  O65  1  0.14019205  0.68647275  0.46684134  1
  O  O66  1  0.10274770  0.63934029  0.36973939  1
  O  O67  1  0.53587781  0.89601961  0.36727584  1
  O  O68  1  0.35657981  0.46393225  0.36892563  1
  O  O69  1  0.12481240  0.46536113  0.86746450  1
  O  O70  1  0.34420000  0.87933315  0.86555582  1
  O  O71  1  0.53425531  0.65444656  0.86849702  1
  O  O72  1  0.01875519  0.81841588  0.41457843  1
  O  O73  1  0.81235722  0.98639798  0.41323505  1
  O  O74  1  0.18242400  0.19947642  0.41406877  1
  O  O75  1  0.02498579  0.20506170  0.91673535  1
  O  O76  1  0.17150295  0.97904040  0.91585752  1
  O  O77  1  0.79315961  0.82141482  0.91752593  1
  O  O78  1  0.98297526  0.18665780  0.58845024  1
  O  O79  1  0.20406705  0.02179299  0.58936461  1
  O  O80  1  0.82300763  0.80173462  0.58803094  1
  O  O81  1  0.99008252  0.80687577  0.08386496  1
  O  O82  1  0.81214917  0.00921792  0.08629378  1
  O  O83  1  0.19620072  0.19463943  0.08497685  1
  O  O84  1  0.68794181  0.16450508  0.74103834  1
  O  O85  1  0.46692115  0.31255159  0.74059533  1
  O  O86  1  0.84276848  0.53313217  0.74032343  1
  O  O87  1  0.69413060  0.53935518  0.25121643  1
  O  O88  1  0.84899597  0.30992635  0.25135798  1
  O  O89  1  0.47254778  0.16258727  0.25139184  1
  O  O90  1  0.64746426  0.52023049  0.92044075  1
  O  O91  1  0.87492421  0.35601077  0.91923530  1
  O  O92  1  0.48804160  0.13925481  0.91939568  1
  O  O93  1  0.65755120  0.14580703  0.42698658  1
  O  O94  1  0.48150265  0.34795780  0.42578580  1
  O  O95  1  0.86451345  0.51937890  0.42672786  1
  O  O96  1  0.35349652  0.49454885  0.07662194  1
  O  O97  1  0.14513848  0.64772313  0.07912618  1
  O  O98  1  0.51216340  0.85713234  0.07786349  1
  O  O99  1  0.35106417  0.86905525  0.57711215  1
  O  O100  1  0.50882234  0.64441419  0.57760700  1
  O  O101  1  0.13008981  0.48659771  0.57637516  1
  O  O102  1  0.31532799  0.84631435  0.25440797  1
  O  O103  1  0.53610496  0.68195212  0.25575182  1
  O  O104  1  0.15104824  0.46073954  0.25566779  1
  O  O105  1  0.31344775  0.45994026  0.74842098  1
  O  O106  1  0.14265087  0.68068221  0.74813967  1
  O  O107  1  0.53250221  0.84966379  0.74786965  1
