# generated using pymatgen
data_Ba2MgFeMoO6
_symmetry_space_group_name_H-M   'P 1'
_cell_length_a   5.85429729
_cell_length_b   6.12865974
_cell_length_c   6.27973700
_cell_angle_alpha   104.27147067
_cell_angle_beta   121.20559272
_cell_angle_gamma   106.45770149
_symmetry_Int_Tables_number   1
_chemical_formula_structural   Ba2MgFeMoO6
_chemical_formula_sum   'Ba2 Mg1 Fe1 Mo1 O6'
_cell_volume   162.18587102
_cell_formula_units_Z   1
loop_
 _symmetry_equiv_pos_site_id
 _symmetry_equiv_pos_as_xyz
  1  'x, y, z'
loop_
 _atom_site_type_symbol
 _atom_site_label
 _atom_site_symmetry_multiplicity
 _atom_site_fract_x
 _atom_site_fract_y
 _atom_site_fract_z
 _atom_site_occupancy
  Ba  Ba0  1  0.74546965  0.17625950  0.42366429  1
  Ba  Ba1  1  0.30625414  0.90159260  0.61878581  1
  Mg  Mg2  1  0.18307523  0.34961468  0.24658810  1
  Fe  Fe3  1  0.89976041  0.78441757  0.82304523  1
  Mo  Mo4  1  0.51058610  0.52693743  0.01654023  1
  O  O5  1  0.59540118  0.68569635  0.42671457  1
  O  O6  1  0.38493473  0.34575770  0.61002387  1
  O  O7  1  0.81192375  0.87603790  0.07449740  1
  O  O8  1  0.16578789  0.65177483  -0.12432300  1
  O  O9  1  0.17827223  0.15350349  0.93998261  1
  O  O10  1  0.85395270  0.41993494  0.17712090  1
