# generated using pymatgen
data_Na6Y4Ti4Si5S7O48
_symmetry_space_group_name_H-M   'P 1'
_cell_length_a   18.06239067
_cell_length_b   8.99791997
_cell_length_c   23.15105535
_cell_angle_alpha   90.00469715
_cell_angle_beta   89.79542928
_cell_angle_gamma   119.92113651
_symmetry_Int_Tables_number   1
_chemical_formula_structural   Na6Y4Ti4Si5S7O48
_chemical_formula_sum   'Na18 Y12 Ti12 Si15 S21 O144'
_cell_volume   3261.06726659
_cell_formula_units_Z   3
loop_
 _symmetry_equiv_pos_site_id
 _symmetry_equiv_pos_as_xyz
  1  'x, y, z'
loop_
 _atom_site_type_symbol
 _atom_site_label
 _atom_site_symmetry_multiplicity
 _atom_site_fract_x
 _atom_site_fract_y
 _atom_site_fract_z
 _atom_site_occupancy
  Na  Na0  1  0.99715907  0.62556588  0.25677039  1
  Na  Na1  1  0.50113779  0.62717616  0.25014905  1
  Na  Na2  1  0.00153981  0.38194565  0.74785808  1
  Na  Na3  1  0.49708915  0.36021801  0.75400689  1
  Na  Na4  1  0.66454217  0.30895685  0.92062816  1
  Na  Na5  1  0.16531122  0.01062283  0.43337725  1
  Na  Na6  1  0.00026038  0.99618187  0.51040205  1
  Na  Na7  1  0.49936802  0.98295051  0.50030752  1
  Na  Na8  1  0.00147581  0.01187138  0.99261691  1
  Na  Na9  1  0.50154550  0.00779297  0.00625936  1
  Na  Na10  1  0.32965428  0.32118415  0.84112733  1
  Na  Na11  1  0.82731886  0.32803131  0.82067681  1
  Na  Na12  1  0.34285016  0.34972871  0.32906122  1
  Na  Na13  1  0.82484357  0.33289294  0.34642733  1
  Na  Na14  1  0.19089422  0.65995541  0.16182911  1
  Na  Na15  1  0.67296516  0.65536337  0.15900940  1
  Na  Na16  1  0.17619115  0.69577524  0.66151357  1
  Na  Na17  1  0.68596252  0.69384638  0.66980795  1
  Y  Y18  1  0.99411193  0.98908448  0.36051951  1
  Y  Y19  1  0.49778439  0.00514766  0.85744883  1
  Y  Y20  1  0.32196508  0.33474075  0.67758882  1
  Y  Y21  1  0.82579382  0.31364056  0.68628414  1
  Y  Y22  1  0.33095236  0.34533804  0.18419371  1
  Y  Y23  1  0.82016824  0.31120713  0.17787636  1
  Y  Y24  1  0.83282372  0.32193436  0.98905296  1
  Y  Y25  1  0.33470323  0.35044298  0.49155297  1
  Y  Y26  1  0.16919612  0.66461267  0.31380263  1
  Y  Y27  1  0.67251962  0.65433573  0.31390489  1
  Y  Y28  1  0.17403813  0.69208770  0.81393226  1
  Y  Y29  1  0.66599390  0.65819085  0.80998409  1
  Ti  Ti30  1  0.49877299  0.02037933  0.35131245  1
  Ti  Ti31  1  0.99883162  0.97669454  0.85023773  1
  Ti  Ti32  1  0.99837095  0.97918394  0.65062385  1
  Ti  Ti33  1  0.51335129  0.00213610  0.64046816  1
  Ti  Ti34  1  0.00478025  0.01974131  0.13667892  1
  Ti  Ti35  1  0.49686468  0.01710715  0.14950310  1
  Ti  Ti36  1  0.32368349  0.31311162  0.98097777  1
  Ti  Ti37  1  0.82440941  0.33626906  0.48174668  1
  Ti  Ti38  1  0.16200846  0.66462011  0.01520740  1
  Ti  Ti39  1  0.66164339  0.65029179  0.02303831  1
  Ti  Ti40  1  0.16139571  0.67288654  0.52550289  1
  Ti  Ti41  1  0.66107088  0.65528925  0.51717060  1
  Si  Si42  1  0.36130461  0.72758776  0.25078946  1
  Si  Si43  1  0.49922658  0.29306208  0.24958441  1
  Si  Si44  1  0.64148419  0.28473205  0.74874617  1
  Si  Si45  1  0.00212093  0.70756630  0.74917130  1
  Si  Si46  1  0.86210980  0.99672739  0.75092383  1
  Si  Si47  1  0.17341323  0.02901871  0.58007143  1
  Si  Si48  1  0.68877454  0.02852426  0.58035360  1
  Si  Si49  1  0.33391598  0.65686335  0.58380662  1
  Si  Si50  1  0.82923531  0.01443753  0.08288173  1
  Si  Si51  1  0.18804238  0.34819555  0.08127349  1
  Si  Si52  1  0.67322977  0.32043992  0.07991356  1
  Si  Si53  1  0.51521588  0.37990912  0.91968399  1
  Si  Si54  1  0.16117774  0.96143088  0.91960889  1
  Si  Si55  1  0.66187820  0.36159677  0.41915162  1
  Si  Si56  1  0.01712600  0.64836201  0.41835026  1
  S  S57  1  0.13976166  0.99905961  0.24772261  1
  S  S58  1  0.63994856  0.00659211  0.25247473  1
  S  S59  1  0.85973804  0.71470477  0.24393047  1
  S  S60  1  0.99935020  0.28713958  0.24517457  1
  S  S61  1  0.14008446  0.27373960  0.75264249  1
  S  S62  1  0.49722655  0.70876756  0.74583415  1
  S  S63  1  0.35705920  0.00424310  0.74441708  1
  S  S64  1  0.49087050  0.33711123  0.58507518  1
  S  S65  1  0.98124889  0.33113590  0.58038232  1
  S  S66  1  0.83010852  0.63080678  0.57919388  1
  S  S67  1  0.48239205  0.63417651  0.08059954  1
  S  S68  1  0.99096757  0.64499756  0.08699956  1
  S  S69  1  0.32973047  0.02939665  0.08022355  1
  S  S70  1  0.30905278  0.65336530  0.92240386  1
  S  S71  1  0.81644127  0.67366849  0.91963299  1
  S  S72  1  0.02203039  0.37384170  0.91635783  1
  S  S73  1  0.66781468  0.95779538  0.91973193  1
  S  S74  1  0.31741238  0.96314952  0.41877478  1
  S  S75  1  0.80848669  0.96421805  0.42171925  1
  S  S76  1  0.16982285  0.37310433  0.41932142  1
  S  S77  1  0.52092514  0.66976812  0.41587372  1
  O  O78  1  0.10186442  0.01098430  0.30340187  1
  O  O79  1  0.59685302  0.01699434  0.30586049  1
  O  O80  1  0.41994296  0.83361371  0.30840884  1
  O  O81  1  0.90382146  0.79393499  0.29924028  1
  O  O82  1  0.50053630  0.18530103  0.30796689  1
  O  O83  1  0.99446358  0.19409895  0.29857088  1
  O  O84  1  0.09722461  0.17643559  0.80608081  1
  O  O85  1  0.60035790  0.19783247  0.81146382  1
  O  O86  1  0.48755681  0.78670969  0.79916865  1
  O  O87  1  0.00248340  0.81693727  0.80777347  1
  O  O88  1  0.39905986  0.00943887  0.80026296  1
  O  O89  1  0.92113514  0.00462373  0.80861047  1
  O  O90  1  0.40529246  0.00153780  0.69448509  1
  O  O91  1  0.91628585  0.99330200  0.69273790  1
  O  O92  1  0.09270662  0.18839249  0.69928051  1
  O  O93  1  0.58063286  0.15765156  0.69493806  1
  O  O94  1  0.00811595  0.82443937  0.69186518  1
  O  O95  1  0.49701856  0.80151951  0.69312538  1
  O  O96  1  0.41524467  0.83533896  0.19240093  1
  O  O97  1  0.90986793  0.81626168  0.19430712  1
  O  O98  1  0.00177249  0.19164577  0.19336415  1
  O  O99  1  0.50500368  0.18898063  0.19215792  1
  O  O100  1  0.08713434  0.99400007  0.19834071  1
  O  O101  1  0.59258080  0.99710303  0.19918730  1
  O  O102  1  0.45261201  0.36329553  0.63796562  1
  O  O103  1  0.95408211  0.37108496  0.63611895  1
  O  O104  1  0.23771110  0.10943720  0.63371246  1
  O  O105  1  0.74209030  0.08297586  0.63863915  1
  O  O106  1  0.30785084  0.52967808  0.63907971  1
  O  O107  1  0.81401616  0.52848573  0.63170046  1
  O  O108  1  0.45366990  0.53845159  0.13681810  1
  O  O109  1  0.95293628  0.54251968  0.14002982  1
  O  O110  1  0.31380701  0.09980429  0.13319818  1
  O  O111  1  0.81009849  0.09015886  0.14064767  1
  O  O112  1  0.23822510  0.39023295  0.14130446  1
  O  O113  1  0.73620391  0.36892858  0.13478239  1
  O  O114  1  0.24010029  0.31104081  0.03061484  1
  O  O115  1  0.71346806  0.29248794  0.02088957  1
  O  O116  1  0.42414312  0.53465831  0.03379241  1
  O  O117  1  0.93540221  0.56804080  0.03647731  1
  O  O118  1  0.34298473  0.14087805  0.02961754  1
  O  O119  1  0.86044206  0.14571178  0.02902778  1
  O  O120  1  0.21365339  0.13475756  0.52038573  1
  O  O121  1  0.74256823  0.17124837  0.52924171  1
  O  O122  1  0.36105158  0.58260802  0.52858702  1
  O  O123  1  0.84346706  0.54638094  0.52802246  1
  O  O124  1  0.43680421  0.31061165  0.53411046  1
  O  O125  1  0.92450659  0.31675399  0.53273623  1
  O  O126  1  0.25778260  0.66966797  0.97010781  1
  O  O127  1  0.77509052  0.69222391  0.97193099  1
  O  O128  1  0.07590589  0.47176766  0.96786751  1
  O  O129  1  0.58844305  0.50578337  0.96766505  1
  O  O130  1  0.15293639  0.82819917  0.97310414  1
  O  O131  1  0.66986488  0.86678166  0.97138491  1
  O  O132  1  0.27577376  0.86099797  0.47062643  1
  O  O133  1  0.75956386  0.84561120  0.46909555  1
  O  O134  1  0.16806127  0.46545003  0.47025579  1
  O  O135  1  0.65196261  0.47523656  0.47213151  1
  O  O136  1  0.09158301  0.67511115  0.46550982  1
  O  O137  1  0.57365303  0.67686896  0.46671692  1
  O  O138  1  0.04768164  0.62621945  0.35341744  1
  O  O139  1  0.56171659  0.65707584  0.36134502  1
  O  O140  1  0.26367318  0.88335022  0.36663327  1
  O  O141  1  0.76628821  0.89835902  0.36541649  1
  O  O142  1  0.17475745  0.46249729  0.36448314  1
  O  O143  1  0.68795195  0.47428182  0.36062567  1
  O  O144  1  0.06355969  0.46842323  0.86251233  1
  O  O145  1  0.54494395  0.46692968  0.85609157  1
  O  O146  1  0.18699883  0.89976663  0.86164175  1
  O  O147  1  0.67207295  0.87672640  0.86552645  1
  O  O148  1  0.26570547  0.63217616  0.86655206  1
  O  O149  1  0.76297059  0.64483213  0.86787017  1
  O  O150  1  0.01571768  0.83186562  0.42064917  1
  O  O151  1  0.51388405  0.82618539  0.41540487  1
  O  O152  1  0.40287586  0.97663521  0.41189559  1
  O  O153  1  0.89486076  0.98005244  0.42162940  1
  O  O154  1  0.09081173  0.19863533  0.41839761  1
  O  O155  1  0.57664467  0.17170130  0.41158983  1
  O  O156  1  0.01508393  0.20367676  0.91626688  1
  O  O157  1  0.51285062  0.19461644  0.92444837  1
  O  O158  1  0.07590608  0.97967634  0.91337047  1
  O  O159  1  0.58824041  0.97194706  0.92117991  1
  O  O160  1  0.39389649  0.80968611  0.92334001  1
  O  O161  1  0.90225667  0.83131068  0.91313746  1
  O  O162  1  0.50485625  0.18932524  0.58991229  1
  O  O163  1  0.98866275  0.17478974  0.58454618  1
  O  O164  1  0.07987195  0.01317643  0.59215932  1
  O  O165  1  0.59230311  0.01035969  0.58741651  1
  O  O166  1  0.41700829  0.84750972  0.59761310  1
  O  O167  1  0.90778485  0.80393828  0.58504812  1
  O  O168  1  0.48966344  0.80490542  0.08567230  1
  O  O169  1  0.00553849  0.82273226  0.09424195  1
  O  O170  1  0.40764887  0.01220195  0.08634133  1
  O  O171  1  0.91556246  0.99137345  0.09653446  1
  O  O172  1  0.08982251  0.17232698  0.09005500  1
  O  O173  1  0.57972165  0.14859075  0.09313270  1
  O  O174  1  0.34944363  0.16306128  0.74475007  1
  O  O175  1  0.86346253  0.17838301  0.75068569  1
  O  O176  1  0.22719885  0.29567874  0.75203835  1
  O  O177  1  0.73604133  0.31097136  0.74593295  1
  O  O178  1  0.42459762  0.52716302  0.74394964  1
  O  O179  1  0.91802638  0.52356240  0.74862065  1
  O  O180  1  0.35878427  0.54305539  0.25076121  1
  O  O181  1  0.85233741  0.54164610  0.24378442  1
  O  O182  1  0.41338995  0.30552652  0.24957978  1
  O  O183  1  0.92479738  0.31519505  0.24325775  1
  O  O184  1  0.22733386  0.14590000  0.24474853  1
  O  O185  1  0.72719200  0.15949841  0.25214436  1
  O  O186  1  0.31890378  0.50060031  0.93047433  1
  O  O187  1  0.82752556  0.52014986  0.92370636  1
  O  O188  1  0.41985420  0.35437707  0.93648520  1
  O  O189  1  0.93809719  0.36352908  0.92130368  1
  O  O190  1  0.24665365  0.15079082  0.93363461  1
  O  O191  1  0.74213278  0.13951776  0.91872654  1
  O  O192  1  0.32768794  0.13803128  0.42230826  1
  O  O193  1  0.81974229  0.13760446  0.42915870  1
  O  O194  1  0.24421925  0.34250005  0.41829716  1
  O  O195  1  0.74725382  0.34236335  0.43273068  1
  O  O196  1  0.43560685  0.51221107  0.41932745  1
  O  O197  1  0.92144552  0.48620842  0.43366614  1
  O  O198  1  0.16832269  0.50334422  0.06466976  1
  O  O199  1  0.65725036  0.48602530  0.07094568  1
  O  O200  1  0.07620613  0.65893733  0.07769767  1
  O  O201  1  0.57087393  0.66146014  0.07105305  1
  O  O202  1  0.25475057  0.85290882  0.07068451  1
  O  O203  1  0.74727036  0.82496584  0.07004087  1
  O  O204  1  0.15625382  0.82976907  0.57142296  1
  O  O205  1  0.66897042  0.83495271  0.56045982  1
  O  O206  1  0.24806866  0.67265390  0.56844003  1
  O  O207  1  0.75485926  0.65633079  0.56902079  1
  O  O208  1  0.07092458  0.47996573  0.56972762  1
  O  O209  1  0.57626117  0.49712754  0.57646188  1
  O  O210  1  0.14168616  0.83447429  0.24732756  1
  O  O211  1  0.64630215  0.84751509  0.25439155  1
  O  O212  1  0.26750676  0.71009374  0.25045381  1
  O  O213  1  0.77431032  0.70039943  0.24376904  1
  O  O214  1  0.07807791  0.46020726  0.24408881  1
  O  O215  1  0.58266755  0.48537923  0.24886041  1
  O  O216  1  0.14576484  0.44470067  0.75476048  1
  O  O217  1  0.63770466  0.46287559  0.74250529  1
  O  O218  1  0.08678792  0.68667019  0.74847025  1
  O  O219  1  0.57773005  0.70174730  0.74615479  1
  O  O220  1  0.27064352  0.84827785  0.74395285  1
  O  O221  1  0.76907636  0.82839289  0.75167402  1
