# generated using pymatgen
data_K2Na2Pr2MgNb2O10
_symmetry_space_group_name_H-M   'P 1'
_cell_length_a   5.98501821
_cell_length_b   5.98501821
_cell_length_c   8.68941357
_cell_angle_alpha   90.20513578
_cell_angle_beta   89.79486422
_cell_angle_gamma   86.75266316
_symmetry_Int_Tables_number   1
_chemical_formula_structural   K2Na2Pr2MgNb2O10
_chemical_formula_sum   'K2 Na2 Pr2 Mg1 Nb2 O10'
_cell_volume   310.75463424
_cell_formula_units_Z   1
loop_
 _symmetry_equiv_pos_site_id
 _symmetry_equiv_pos_as_xyz
  1  'x, y, z'
loop_
 _atom_site_type_symbol
 _atom_site_label
 _atom_site_symmetry_multiplicity
 _atom_site_fract_x
 _atom_site_fract_y
 _atom_site_fract_z
 _atom_site_occupancy
  K  K0  1  0.75132285  0.13667152  0.04662248  1
  K  K1  1  0.36332848  0.74867715  0.04662248  1
  Na  Na2  1  0.28604448  0.21395552  0.74172208  1
  Na  Na3  1  0.75121421  0.74878579  0.27961584  1
  Pr  Pr4  1  0.21260200  0.73044053  0.51545928  1
  Pr  Pr5  1  0.76955947  0.28739800  0.51545928  1
  Mg  Mg6  1  0.00042073  0.49957927  0.91081736  1
  Nb  Nb7  1  0.70722549  0.79277451  0.71417685  1
  Nb  Nb8  1  0.24520144  0.25479856  0.25986865  1
  O  O9  1  0.45940251  0.46522201  0.34179051  1
  O  O10  1  0.50833989  0.99166011  0.59370275  1
  O  O11  1  0.47589111  0.02410889  0.25222357  1
  O  O12  1  0.50967133  0.54266836  0.67700760  1
  O  O13  1  0.01277138  0.48722862  0.35102574  1
  O  O14  1  0.19093324  0.30906676  0.04127351  1
  O  O15  1  0.77704992  0.72295008  0.95432127  1
  O  O16  1  0.03477799  0.04059749  0.34179051  1
  O  O17  1  0.99732883  0.50267117  0.69261764  1
  O  O18  1  0.95733164  0.99032867  0.67700760  1
