# generated using pymatgen
data_TlTeF5
_symmetry_space_group_name_H-M   'P 1'
_cell_length_a   4.68558340
_cell_length_b   6.13335926
_cell_length_c   16.73175372
_cell_angle_alpha   90.00000000
_cell_angle_beta   90.00000000
_cell_angle_gamma   90.00000000
_symmetry_Int_Tables_number   1
_chemical_formula_structural   TlTeF5
_chemical_formula_sum   'Tl4 Te4 F20'
_cell_volume   480.84326783
_cell_formula_units_Z   4
loop_
 _symmetry_equiv_pos_site_id
 _symmetry_equiv_pos_as_xyz
  1  'x, y, z'
loop_
 _atom_site_type_symbol
 _atom_site_label
 _atom_site_symmetry_multiplicity
 _atom_site_fract_x
 _atom_site_fract_y
 _atom_site_fract_z
 _atom_site_occupancy
  Tl  Tl0  1  0.31083572  0.75000000  0.56145395  1
  Tl  Tl1  1  0.81083572  0.25000000  0.93854605  1
  Tl  Tl2  1  0.68916428  0.25000000  0.43854605  1
  Tl  Tl3  1  0.18916428  0.75000000  0.06145395  1
  Te  Te4  1  0.05125814  0.75000000  0.33465311  1
  Te  Te5  1  0.55125814  0.25000000  0.16534689  1
  Te  Te6  1  0.94874186  0.25000000  0.66534689  1
  Te  Te7  1  0.44874186  0.75000000  0.83465311  1
  F  F8  1  0.22958627  0.47129226  0.69906244  1
  F  F9  1  0.72958627  0.52870774  0.80093756  1
  F  F10  1  0.77041373  0.97129226  0.30093756  1
  F  F11  1  0.27041373  0.02870774  0.19906244  1
  F  F12  1  0.77041373  0.52870774  0.30093756  1
  F  F13  1  0.27041373  0.47129226  0.19906244  1
  F  F14  1  0.22958627  0.02870774  0.69906244  1
  F  F15  1  0.72958627  0.97129226  0.80093756  1
  F  F16  1  0.70025955  0.75000000  0.92488307  1
  F  F17  1  0.20025955  0.25000000  0.57511693  1
  F  F18  1  0.29974045  0.25000000  0.07511693  1
  F  F19  1  0.79974045  0.75000000  0.42488307  1
  F  F20  1  0.27923332  0.98209254  0.90481834  1
  F  F21  1  0.77923332  0.01790746  0.59518166  1
  F  F22  1  0.72076668  0.48209254  0.09518166  1
  F  F23  1  0.22076668  0.51790746  0.40481834  1
  F  F24  1  0.72076668  0.01790746  0.09518166  1
  F  F25  1  0.22076668  0.98209254  0.40481834  1
  F  F26  1  0.27923332  0.51790746  0.90481834  1
  F  F27  1  0.77923332  0.48209254  0.59518166  1
