# generated using pymatgen
data_MgFe2(CoO3)4
_symmetry_space_group_name_H-M   'P 1'
_cell_length_a   5.02082649
_cell_length_b   4.99565001
_cell_length_c   10.12182391
_cell_angle_alpha   89.99626796
_cell_angle_beta   90.13130661
_cell_angle_gamma   60.06672297
_symmetry_Int_Tables_number   1
_chemical_formula_structural   MgFe2(CoO3)4
_chemical_formula_sum   'Mg1 Fe2 Co4 O12'
_cell_volume   220.01215131
_cell_formula_units_Z   1
loop_
 _symmetry_equiv_pos_site_id
 _symmetry_equiv_pos_as_xyz
  1  'x, y, z'
loop_
 _atom_site_type_symbol
 _atom_site_label
 _atom_site_symmetry_multiplicity
 _atom_site_fract_x
 _atom_site_fract_y
 _atom_site_fract_z
 _atom_site_occupancy
  Mg  Mg0  1  0.49985200  0.32331500  0.25015800  1
  Fe  Fe1  1  0.00313500  0.99795000  0.99097100  1
  Fe  Fe2  1  0.99680500  0.50114200  0.50910000  1
  Co  Co3  1  0.33120700  0.33373300  0.98882300  1
  Co  Co4  1  0.33011300  0.83368600  0.50004600  1
  Co  Co5  1  0.66909100  0.16435900  0.51109100  1
  Co  Co6  1  0.66990800  0.66340800  0.00000400  1
  O  O7  1  0.00501600  0.14318300  0.59918500  1
  O  O8  1  0.00320200  0.34726800  0.09551000  1
  O  O9  1  0.99590400  0.64828000  0.90103700  1
  O  O10  1  0.35666400  0.99255000  0.90291300  1
  O  O11  1  0.99580300  0.85116300  0.40426600  1
  O  O12  1  0.35019800  0.16432900  0.40159100  1
  O  O13  1  0.35111400  0.50749100  0.59784100  1
  O  O14  1  0.34955700  0.63964500  0.09996900  1
  O  O15  1  0.64932800  0.01536900  0.09836500  1
  O  O16  1  0.64813500  0.35914900  0.90169800  1
  O  O17  1  0.65111300  0.48917800  0.40008000  1
  O  O18  1  0.64385200  0.84980000  0.59735200  1
