# generated using pymatgen
data_Na6Hf7MgSi6(SO8)6
_symmetry_space_group_name_H-M   'P 1'
_cell_length_a   17.94401364
_cell_length_b   8.95346715
_cell_length_c   23.18867303
_cell_angle_alpha   89.94150480
_cell_angle_beta   90.07634271
_cell_angle_gamma   119.91557492
_symmetry_Int_Tables_number   1
_chemical_formula_structural   Na6Hf7MgSi6(SO8)6
_chemical_formula_sum   'Na18 Hf21 Mg3 Si18 S18 O144'
_cell_volume   3229.13184661
_cell_formula_units_Z   3
loop_
 _symmetry_equiv_pos_site_id
 _symmetry_equiv_pos_as_xyz
  1  'x, y, z'
loop_
 _atom_site_type_symbol
 _atom_site_label
 _atom_site_symmetry_multiplicity
 _atom_site_fract_x
 _atom_site_fract_y
 _atom_site_fract_z
 _atom_site_occupancy
  Na  Na0  1  0.68725323  0.37898613  0.25172543  1
  Na  Na1  1  0.99521239  0.64962269  0.25264253  1
  Na  Na2  1  0.99695241  0.35407838  0.75275077  1
  Na  Na3  1  0.49303083  0.35765831  0.74727719  1
  Na  Na4  1  0.19326327  0.01804535  0.75306753  1
  Na  Na5  1  0.68429193  0.00906247  0.74914946  1
  Na  Na6  1  0.99741310  0.99839570  0.48988278  1
  Na  Na7  1  0.50833914  0.00203343  0.49771410  1
  Na  Na8  1  0.01354371  0.02021379  0.99808785  1
  Na  Na9  1  0.50334196  0.98583623  0.99718532  1
  Na  Na10  1  0.33023706  0.33342792  0.82396039  1
  Na  Na11  1  0.82721939  0.32411019  0.82730895  1
  Na  Na12  1  0.33365935  0.33087851  0.32936137  1
  Na  Na13  1  0.83366090  0.33472097  0.33656704  1
  Na  Na14  1  0.17221834  0.66647093  0.16529824  1
  Na  Na15  1  0.66219808  0.66304680  0.17275339  1
  Na  Na16  1  0.17967736  0.66760836  0.67069704  1
  Na  Na17  1  0.67070625  0.66327639  0.66789191  1
  Hf  Hf18  1  0.00027733  0.98771814  0.35623099  1
  Hf  Hf19  1  0.50306332  0.01003449  0.35603469  1
  Hf  Hf20  1  0.00667015  0.01790204  0.85544486  1
  Hf  Hf21  1  0.50339542  0.99899862  0.84871204  1
  Hf  Hf22  1  0.99731968  0.00493349  0.64836753  1
  Hf  Hf23  1  0.50005091  0.00158997  0.65250325  1
  Hf  Hf24  1  0.00436131  0.99627362  0.14986562  1
  Hf  Hf25  1  0.50025188  0.00193334  0.14608842  1
  Hf  Hf26  1  0.33379988  0.33728103  0.18691638  1
  Hf  Hf27  1  0.32576422  0.33203915  0.98296295  1
  Hf  Hf28  1  0.83280499  0.32462684  0.97583300  1
  Hf  Hf29  1  0.33458800  0.34352717  0.47740419  1
  Hf  Hf30  1  0.83164023  0.33082657  0.47431975  1
  Hf  Hf31  1  0.16094034  0.65702003  0.01804228  1
  Hf  Hf32  1  0.66065640  0.67354646  0.02072811  1
  Hf  Hf33  1  0.16229701  0.65640807  0.51772415  1
  Hf  Hf34  1  0.66613722  0.66959366  0.51372550  1
  Hf  Hf35  1  0.16339327  0.66136928  0.31580721  1
  Hf  Hf36  1  0.66737330  0.66321805  0.31614344  1
  Hf  Hf37  1  0.16993734  0.66919565  0.81580488  1
  Hf  Hf38  1  0.67045560  0.67900418  0.81028863  1
  Mg  Mg39  1  0.33326666  0.33817232  0.69064103  1
  Mg  Mg40  1  0.82811870  0.32956297  0.68677778  1
  Mg  Mg41  1  0.83418537  0.33714397  0.18541705  1
  Si  Si42  1  0.14883891  0.00187147  0.25153386  1
  Si  Si43  1  0.85252793  0.70664436  0.24788134  1
  Si  Si44  1  0.49869907  0.29290487  0.24985519  1
  Si  Si45  1  0.14733936  0.29551935  0.74865191  1
  Si  Si46  1  0.64949534  0.29590567  0.74975687  1
  Si  Si47  1  0.49687610  0.70366578  0.74970590  1
  Si  Si48  1  0.35267702  0.99637193  0.75020268  1
  Si  Si49  1  0.85618426  0.00412279  0.74987252  1
  Si  Si50  1  0.47726669  0.62353254  0.08321621  1
  Si  Si51  1  0.18459208  0.33525371  0.08543962  1
  Si  Si52  1  0.02038433  0.37631512  0.91508207  1
  Si  Si53  1  0.16837515  0.96087391  0.91672823  1
  Si  Si54  1  0.66209620  0.95800537  0.91612476  1
  Si  Si55  1  0.81232823  0.95499093  0.41564595  1
  Si  Si56  1  0.16591350  0.37257224  0.41567935  1
  Si  Si57  1  0.66535382  0.37642561  0.41692829  1
  Si  Si58  1  0.02118803  0.66579162  0.41730768  1
  Si  Si59  1  0.52130261  0.66713093  0.41536526  1
  S  S60  1  0.64501349  0.00040188  0.24865722  1
  S  S61  1  0.35567399  0.71304748  0.25028255  1
  S  S62  1  0.99904147  0.28962632  0.24919564  1
  S  S63  1  0.99851448  0.70971965  0.74953051  1
  S  S64  1  0.47859147  0.33274261  0.58438749  1
  S  S65  1  0.97857359  0.33484206  0.58513023  1
  S  S66  1  0.18843078  0.04121891  0.58460165  1
  S  S67  1  0.68760606  0.04137039  0.58469337  1
  S  S68  1  0.33423105  0.62505473  0.58403456  1
  S  S69  1  0.83328304  0.62155693  0.58487612  1
  S  S70  1  0.97689022  0.62174487  0.08426234  1
  S  S71  1  0.33358432  0.04370019  0.08338952  1
  S  S72  1  0.83334104  0.04530544  0.08422448  1
  S  S73  1  0.68931796  0.33405368  0.08407312  1
  S  S74  1  0.31295421  0.66862756  0.91816280  1
  S  S75  1  0.81065028  0.66543847  0.91846429  1
  S  S76  1  0.52114766  0.37604394  0.91734070  1
  S  S77  1  0.31046620  0.95486802  0.41782731  1
  O  O78  1  0.10126601  0.02639670  0.30683444  1
  O  O79  1  0.60383093  0.02630891  0.30022693  1
  O  O80  1  0.40726569  0.79377752  0.30219228  1
  O  O81  1  0.91716466  0.79865485  0.30286589  1
  O  O82  1  0.48825151  0.16795717  0.30500350  1
  O  O83  1  0.98742691  0.18903822  0.30135950  1
  O  O84  1  0.10090698  0.17073782  0.80498963  1
  O  O85  1  0.60306135  0.16840554  0.80557651  1
  O  O86  1  0.48556862  0.79690886  0.80667502  1
  O  O87  1  0.98600803  0.78747163  0.80158592  1
  O  O88  1  0.41372439  0.02786870  0.80698427  1
  O  O89  1  0.91632206  0.02598214  0.80530482  1
  O  O90  1  0.39841087  0.96344595  0.69363099  1
  O  O91  1  0.89923822  0.96879189  0.69225946  1
  O  O92  1  0.08152432  0.19793881  0.69314290  1
  O  O93  1  0.58487598  0.20851337  0.69335449  1
  O  O94  1  0.01390677  0.82134595  0.69767476  1
  O  O95  1  0.52089540  0.83548710  0.69428627  1
  O  O96  1  0.39820837  0.81813695  0.19780037  1
  O  O97  1  0.89995186  0.82621143  0.19052731  1
  O  O98  1  0.01334905  0.21057905  0.19714438  1
  O  O99  1  0.51299930  0.19225203  0.19376182  1
  O  O100  1  0.08505001  0.96109881  0.19451781  1
  O  O101  1  0.59026529  0.97658096  0.19648015  1
  O  O102  1  0.43838735  0.35100346  0.63687705  1
  O  O103  1  0.94131014  0.35774437  0.63804838  1
  O  O104  1  0.23805115  0.11947354  0.63704177  1
  O  O105  1  0.73668872  0.11953776  0.63772647  1
  O  O106  1  0.32141397  0.52081390  0.63502701  1
  O  O107  1  0.82476569  0.52028563  0.63655736  1
  O  O108  1  0.43362620  0.50698492  0.13999277  1
  O  O109  1  0.93934852  0.52081639  0.13694923  1
  O  O110  1  0.32121237  0.12260492  0.13530036  1
  O  O111  1  0.81920939  0.12366416  0.13530018  1
  O  O112  1  0.24498996  0.35637554  0.14069214  1
  O  O113  1  0.73824728  0.35478605  0.13703529  1
  O  O114  1  0.22989566  0.30583295  0.02771887  1
  O  O115  1  0.73126495  0.30940987  0.03287407  1
  O  O116  1  0.42075903  0.53160148  0.02537712  1
  O  O117  1  0.92332542  0.53402415  0.03291799  1
  O  O118  1  0.34798863  0.14939765  0.03136273  1
  O  O119  1  0.84264174  0.15101159  0.03173946  1
  O  O120  1  0.23022185  0.14686021  0.53260720  1
  O  O121  1  0.73183322  0.14784595  0.53353064  1
  O  O122  1  0.34281463  0.53925561  0.53106135  1
  O  O123  1  0.84379240  0.53940466  0.53244943  1
  O  O124  1  0.42486200  0.31371297  0.53256395  1
  O  O125  1  0.92671084  0.31550734  0.53379662  1
  O  O126  1  0.27022728  0.68700712  0.96987969  1
  O  O127  1  0.76889213  0.68760113  0.97026442  1
  O  O128  1  0.08054868  0.46735097  0.97120296  1
  O  O129  1  0.57740173  0.46310902  0.96885777  1
  O  O130  1  0.16004746  0.84259859  0.97319798  1
  O  O131  1  0.65487400  0.83897019  0.97201414  1
  O  O132  1  0.27068404  0.84934173  0.46970618  1
  O  O133  1  0.76733369  0.83805288  0.47317655  1
  O  O134  1  0.15871007  0.47439333  0.47283658  1
  O  O135  1  0.65039108  0.46439671  0.47329322  1
  O  O136  1  0.08290156  0.69190425  0.47269342  1
  O  O137  1  0.57955314  0.70038283  0.47342045  1
  O  O138  1  0.06474439  0.63834055  0.35886688  1
  O  O139  1  0.56412126  0.63646796  0.35865865  1
  O  O140  1  0.25802927  0.87855812  0.36555347  1
  O  O141  1  0.75207497  0.87097731  0.35923847  1
  O  O142  1  0.18582920  0.49978147  0.35993175  1
  O  O143  1  0.68088076  0.48298077  0.35734995  1
  O  O144  1  0.06239992  0.48560488  0.85631665  1
  O  O145  1  0.56244715  0.47828651  0.86482409  1
  O  O146  1  0.18020597  0.87072907  0.85764870  1
  O  O147  1  0.67917094  0.87358251  0.85906689  1
  O  O148  1  0.26018783  0.64208614  0.86568041  1
  O  O149  1  0.75718578  0.63442754  0.86646963  1
  O  O150  1  0.01307746  0.83554248  0.41399001  1
  O  O151  1  0.50424691  0.82889905  0.40750392  1
  O  O152  1  0.39618889  0.97091234  0.41133741  1
  O  O153  1  0.90686959  0.97905261  0.40882112  1
  O  O154  1  0.08035713  0.19051767  0.41007699  1
  O  O155  1  0.58014130  0.18396315  0.41151801  1
  O  O156  1  0.00715093  0.18333835  0.91248602  1
  O  O157  1  0.51233396  0.20312735  0.91416316  1
  O  O158  1  0.07933003  0.96889958  0.91139465  1
  O  O159  1  0.57685221  0.97727118  0.91433121  1
  O  O160  1  0.39760727  0.82491505  0.91341372  1
  O  O161  1  0.89668403  0.81640534  0.91178969  1
  O  O162  1  0.48724356  0.17415511  0.58604372  1
  O  O163  1  0.98890769  0.17802162  0.58798253  1
  O  O164  1  0.09945695  0.01701541  0.58856283  1
  O  O165  1  0.60011217  0.02426736  0.58670857  1
  O  O166  1  0.41272420  0.79874336  0.58632436  1
  O  O167  1  0.91311290  0.79765910  0.58885740  1
  O  O168  1  0.49034580  0.81901296  0.09053731  1
  O  O169  1  0.98490372  0.79552671  0.08725186  1
  O  O170  1  0.41183768  0.02462983  0.08979007  1
  O  O171  1  0.91105206  0.02920929  0.08794704  1
  O  O172  1  0.08777216  0.16533000  0.09023982  1
  O  O173  1  0.60116419  0.17784155  0.08818312  1
  O  O174  1  0.34339732  0.16524221  0.74252877  1
  O  O175  1  0.85018808  0.17797717  0.74268134  1
  O  O176  1  0.23758652  0.30532234  0.74158347  1
  O  O177  1  0.74123782  0.30837698  0.74343764  1
  O  O178  1  0.41966703  0.51219099  0.74317844  1
  O  O179  1  0.92573335  0.53562204  0.74110259  1
  O  O180  1  0.34653652  0.54052541  0.24488486  1
  O  O181  1  0.84280720  0.51298586  0.24204579  1
  O  O182  1  0.41378132  0.31121652  0.24387673  1
  O  O183  1  0.92471903  0.31655202  0.24098640  1
  O  O184  1  0.24289286  0.16940006  0.24297607  1
  O  O185  1  0.72917609  0.15823910  0.24147601  1
  O  O186  1  0.32235543  0.51352372  0.92278674  1
  O  O187  1  0.81928307  0.50897773  0.92656185  1
  O  O188  1  0.43638201  0.36235779  0.92435418  1
  O  O189  1  0.92673014  0.36366657  0.92498902  1
  O  O190  1  0.25486433  0.15241175  0.92302509  1
  O  O191  1  0.74800245  0.14913910  0.92577080  1
  O  O192  1  0.32043418  0.12800614  0.42559012  1
  O  O193  1  0.82105838  0.14391445  0.42641219  1
  O  O194  1  0.25064743  0.35042333  0.42626123  1
  O  O195  1  0.74871972  0.35276448  0.42551195  1
  O  O196  1  0.42688305  0.49231634  0.42631990  1
  O  O197  1  0.92832073  0.49519240  0.42559737  1
  O  O198  1  0.17844823  0.51219340  0.07903687  1
  O  O199  1  0.67980325  0.48865876  0.07578239  1
  O  O200  1  0.06475614  0.64480863  0.07771989  1
  O  O201  1  0.57478807  0.64469303  0.07692111  1
  O  O202  1  0.25777213  0.86947268  0.07725808  1
  O  O203  1  0.75665415  0.86867441  0.07581848  1
  O  O204  1  0.17977976  0.86578044  0.57765014  1
  O  O205  1  0.67757969  0.86546729  0.57953437  1
  O  O206  1  0.25745554  0.64964166  0.57699656  1
  O  O207  1  0.75654624  0.64452269  0.58008528  1
  O  O208  1  0.06777735  0.48951522  0.57900844  1
  O  O209  1  0.56589004  0.48786625  0.57870767  1
  O  O210  1  0.15414926  0.82144583  0.25663099  1
  O  O211  1  0.65245320  0.84528881  0.25288338  1
  O  O212  1  0.26983916  0.69870141  0.25421552  1
  O  O213  1  0.75641456  0.68418097  0.25280561  1
  O  O214  1  0.07832798  0.46753737  0.25385646  1
  O  O215  1  0.58768787  0.47836937  0.25362626  1
  O  O216  1  0.14718692  0.47806539  0.75470074  1
  O  O217  1  0.64996073  0.47706043  0.75931289  1
  O  O218  1  0.07954036  0.69911535  0.75410623  1
  O  O219  1  0.58649338  0.69345920  0.75792232  1
  O  O220  1  0.25480907  0.82737824  0.75512689  1
  O  O221  1  0.75956692  0.83667222  0.75500796  1
