# generated using pymatgen
data_Na2ZrTiSi2SO12
_symmetry_space_group_name_H-M   'P 1'
_cell_length_a   9.00646251
_cell_length_b   9.03237560
_cell_length_c   22.79269703
_cell_angle_alpha   89.61589615
_cell_angle_beta   90.59474860
_cell_angle_gamma   119.97798601
_symmetry_Int_Tables_number   1
_chemical_formula_structural   Na2ZrTiSi2SO12
_chemical_formula_sum   'Na12 Zr6 Ti6 Si12 S6 O72'
_cell_volume   1606.03429525
_cell_formula_units_Z   6
loop_
 _symmetry_equiv_pos_site_id
 _symmetry_equiv_pos_as_xyz
  1  'x, y, z'
loop_
 _atom_site_type_symbol
 _atom_site_label
 _atom_site_symmetry_multiplicity
 _atom_site_fract_x
 _atom_site_fract_y
 _atom_site_fract_z
 _atom_site_occupancy
  Na  Na0  1  0.99163194  0.62916251  0.25349074  1
  Na  Na1  1  0.37193517  0.00049714  0.75606581  1
  Na  Na2  1  0.65807252  0.96264007  0.58711525  1
  Na  Na3  1  0.04111899  0.33789599  0.08543331  1
  Na  Na4  1  0.33259486  0.29508099  0.92005400  1
  Na  Na5  1  0.70747424  0.67076630  0.42151359  1
  Na  Na6  1  0.01633995  0.98948931  0.50155373  1
  Na  Na7  1  0.00171388  0.97742578  0.99740798  1
  Na  Na8  1  0.68357263  0.32830449  0.83707577  1
  Na  Na9  1  0.67591209  0.31275591  0.33146160  1
  Na  Na10  1  0.35541354  0.66152197  0.16430534  1
  Na  Na11  1  0.34056049  0.64627324  0.66841032  1
  Zr  Zr12  1  0.98486531  0.99555377  0.35331877  1
  Zr  Zr13  1  0.99750888  0.99848586  0.64926370  1
  Zr  Zr14  1  0.99983579  0.00029941  0.14321525  1
  Zr  Zr15  1  0.65066486  0.32936558  0.68869832  1
  Zr  Zr16  1  0.66810083  0.33427896  0.48050447  1
  Zr  Zr17  1  0.33165530  0.66446857  0.31222571  1
  Ti  Ti18  1  0.01063417  0.02708769  0.85559152  1
  Ti  Ti19  1  0.67860697  0.35927357  0.18404292  1
  Ti  Ti20  1  0.66435273  0.33199883  0.97922703  1
  Ti  Ti21  1  0.30915117  0.65576516  0.01908123  1
  Ti  Ti22  1  0.34364109  0.69260069  0.52035634  1
  Ti  Ti23  1  0.33516198  0.66863804  0.81679981  1
  Si  Si24  1  0.70272362  0.70436911  0.24808051  1
  Si  Si25  1  0.99097413  0.29188489  0.24531564  1
  Si  Si26  1  0.28686169  0.30146866  0.75379193  1
  Si  Si27  1  0.70659931  0.99494890  0.75303855  1
  Si  Si28  1  0.36686943  0.03776643  0.58331374  1
  Si  Si29  1  0.65835907  0.62729510  0.58050478  1
  Si  Si30  1  0.95143688  0.62129630  0.08004364  1
  Si  Si31  1  0.38721536  0.34306842  0.07937983  1
  Si  Si32  1  0.03820919  0.38331210  0.91632745  1
  Si  Si33  1  0.33032078  0.95217647  0.91634618  1
  Si  Si34  1  0.62161365  0.96152221  0.41759008  1
  Si  Si35  1  0.04685198  0.66942797  0.41643456  1
  S  S36  1  0.29899804  0.00925436  0.24938188  1
  S  S37  1  0.00264115  0.70990970  0.75443755  1
  S  S38  1  0.96670954  0.34149043  0.58453000  1
  S  S39  1  0.65709451  0.04486853  0.08193623  1
  S  S40  1  0.62340032  0.66993121  0.91784018  1
  S  S41  1  0.32937747  0.37677700  0.41922063  1
  O  O42  1  0.21735867  0.02864400  0.30252211  1
  O  O43  1  0.82195871  0.78124285  0.30812920  1
  O  O44  1  0.97560149  0.17498925  0.30316010  1
  O  O45  1  0.19820896  0.17406152  0.81165320  1
  O  O46  1  0.98076089  0.79281815  0.80581852  1
  O  O47  1  0.83829927  0.01211009  0.80744529  1
  O  O48  1  0.78282045  0.96714544  0.69156793  1
  O  O49  1  0.17145247  0.20302064  0.69631748  1
  O  O50  1  0.02761226  0.81382966  0.69975572  1
  O  O51  1  0.80948269  0.82636113  0.19336341  1
  O  O52  1  0.02305976  0.20805378  0.18657400  1
  O  O53  1  0.18760720  0.98062515  0.19678388  1
  O  O54  1  0.88346735  0.36135648  0.63704049  1
  O  O55  1  0.48851360  0.11678971  0.64275436  1
  O  O56  1  0.64359210  0.50787150  0.63757645  1
  O  O57  1  0.87170937  0.50656245  0.14085572  1
  O  O58  1  0.64053614  0.12565984  0.13538144  1
  O  O59  1  0.50757664  0.35649186  0.13677719  1
  O  O60  1  0.47601621  0.31560479  0.02030119  1
  O  O61  1  0.82762834  0.50803461  0.02557165  1
  O  O62  1  0.68350299  0.15221912  0.02866714  1
  O  O63  1  0.47057123  0.15788103  0.52804967  1
  O  O64  1  0.69089907  0.54612809  0.52135914  1
  O  O65  1  0.85661050  0.31247332  0.53146131  1
  O  O66  1  0.54196130  0.69065361  0.97039757  1
  O  O67  1  0.16192715  0.46306484  0.97585780  1
  O  O68  1  0.31040452  0.82489112  0.97242411  1
  O  O69  1  0.53241689  0.84260158  0.47700849  1
  O  O70  1  0.31231735  0.45976494  0.47140708  1
  O  O71  1  0.16953875  0.67782409  0.47236167  1
  O  O72  1  0.12440764  0.64378039  0.35513581  1
  O  O73  1  0.50823345  0.85879803  0.36071419  1
  O  O74  1  0.35196578  0.47855736  0.36470768  1
  O  O75  1  0.14829426  0.50788507  0.86182023  1
  O  O76  1  0.35809684  0.86354170  0.85745716  1
  O  O77  1  0.51367852  0.64191670  0.86435797  1
  O  O78  1  0.03259991  0.84412359  0.41473962  1
  O  O79  1  0.80839204  0.96842193  0.41477107  1
  O  O80  1  0.17998470  0.20335239  0.41336281  1
  O  O81  1  0.02898396  0.19429860  0.90907455  1
  O  O82  1  0.15922648  0.97532078  0.90973300  1
  O  O83  1  0.79739474  0.81838697  0.91121359  1
  O  O84  1  0.97414582  0.17958345  0.58870828  1
  O  O85  1  0.17803542  0.01443383  0.58908435  1
  O  O86  1  0.82036879  0.82427886  0.58719408  1
  O  O87  1  0.97421962  0.81015256  0.08367147  1
  O  O88  1  0.82040398  0.03474340  0.08475679  1
  O  O89  1  0.19055391  0.17845609  0.08474173  1
  O  O90  1  0.68920998  0.16817505  0.74958342  1
  O  O91  1  0.47304782  0.30653673  0.74901709  1
  O  O92  1  0.85249611  0.53642636  0.74727246  1
  O  O93  1  0.69142806  0.51620594  0.23996657  1
  O  O94  1  0.81597173  0.30686593  0.23952957  1
  O  O95  1  0.47044560  0.15756025  0.24270181  1
  O  O96  1  0.63340227  0.50763679  0.92109585  1
  O  O97  1  0.84769689  0.35756371  0.92382145  1
  O  O98  1  0.49629595  0.14791883  0.92517479  1
  O  O99  1  0.64601905  0.15081999  0.42071632  1
  O  O100  1  0.48954983  0.36466872  0.42110391  1
  O  O101  1  0.84939156  0.50830050  0.42119401  1
  O  O102  1  0.36703528  0.51513610  0.07397288  1
  O  O103  1  0.14079528  0.63210396  0.07374193  1
  O  O104  1  0.50899050  0.87117364  0.07591328  1
  O  O105  1  0.35479608  0.84923646  0.57580414  1
  O  O106  1  0.48328411  0.64201251  0.57522122  1
  O  O107  1  0.13836378  0.48922797  0.57787921  1
  O  O108  1  0.30750669  0.84777964  0.25327776  1
  O  O109  1  0.51342147  0.68035029  0.25247960  1
  O  O110  1  0.15274211  0.48902012  0.25118323  1
  O  O111  1  0.31101464  0.49053695  0.76214956  1
  O  O112  1  0.16273577  0.69830378  0.75759149  1
  O  O113  1  0.51108575  0.83133582  0.76229491  1
