# generated using pymatgen
data_Na14Ca4Zr4Si7S5O48
_symmetry_space_group_name_H-M   'P 1'
_cell_length_a   18.80128937
_cell_length_b   9.39938172
_cell_length_c   22.76727128
_cell_angle_alpha   89.92573344
_cell_angle_beta   89.94381857
_cell_angle_gamma   119.95750954
_symmetry_Int_Tables_number   1
_chemical_formula_structural   Na14Ca4Zr4Si7S5O48
_chemical_formula_sum   'Na42 Ca12 Zr12 Si21 S15 O144'
_cell_volume   3485.88610191
_cell_formula_units_Z   3
loop_
 _symmetry_equiv_pos_site_id
 _symmetry_equiv_pos_as_xyz
  1  'x, y, z'
loop_
 _atom_site_type_symbol
 _atom_site_label
 _atom_site_symmetry_multiplicity
 _atom_site_fract_x
 _atom_site_fract_y
 _atom_site_fract_z
 _atom_site_occupancy
  Na  Na0  1  0.80429016  0.98030520  0.26042492  1
  Na  Na1  1  0.18400108  0.34598888  0.25885448  1
  Na  Na2  1  0.69537701  0.36453959  0.25477818  1
  Na  Na3  1  0.99003380  0.64633919  0.23995161  1
  Na  Na4  1  0.49752857  0.64737343  0.25019362  1
  Na  Na5  1  0.30491861  0.62730716  0.73981491  1
  Na  Na6  1  0.99735969  0.34586337  0.74159628  1
  Na  Na7  1  0.49572433  0.34189525  0.73286043  1
  Na  Na8  1  0.19283805  0.02156602  0.74669457  1
  Na  Na9  1  0.68641367  0.02202963  0.75061855  1
  Na  Na10  1  0.14663044  0.32646434  0.58922073  1
  Na  Na11  1  0.66291730  0.33465915  0.57716042  1
  Na  Na12  1  0.34320278  0.00548509  0.57476316  1
  Na  Na13  1  0.83785747  0.99084972  0.57653655  1
  Na  Na14  1  0.16052809  0.99304656  0.08659455  1
  Na  Na15  1  0.64733739  0.96407367  0.09756491  1
  Na  Na16  1  0.33649527  0.68274532  0.09045435  1
  Na  Na17  1  0.84072994  0.68381986  0.08351788  1
  Na  Na18  1  0.48366253  0.68089031  0.93132795  1
  Na  Na19  1  0.96775209  0.66623746  0.92802564  1
  Na  Na20  1  0.35662041  0.04594593  0.91491098  1
  Na  Na21  1  0.84634141  0.02931990  0.90483969  1
  Na  Na22  1  0.16771538  0.28220536  0.91433032  1
  Na  Na23  1  0.67480052  0.28300979  0.90437585  1
  Na  Na24  1  0.47013533  0.27332773  0.43004037  1
  Na  Na25  1  0.97312133  0.26919213  0.43134117  1
  Na  Na26  1  0.17099311  0.06625075  0.40397286  1
  Na  Na27  1  0.67840494  0.04200085  0.41111193  1
  Na  Na28  1  0.34938675  0.66626669  0.40492144  1
  Na  Na29  1  0.85152500  0.68185771  0.41963680  1
  Na  Na30  1  0.99122444  0.99535945  0.49688316  1
  Na  Na31  1  0.50311747  0.00069718  0.50039862  1
  Na  Na32  1  0.99716036  0.99759917  0.00348145  1
  Na  Na33  1  0.50039862  0.00065798  0.00492796  1
  Na  Na34  1  0.32489311  0.31843501  0.81770704  1
  Na  Na35  1  0.81712643  0.33266520  0.82916375  1
  Na  Na36  1  0.31903123  0.30421972  0.33338136  1
  Na  Na37  1  0.82197110  0.30505194  0.32811482  1
  Na  Na38  1  0.16823753  0.67756864  0.17130256  1
  Na  Na39  1  0.66098609  0.66180288  0.17535783  1
  Na  Na40  1  0.15866245  0.65643243  0.67198390  1
  Na  Na41  1  0.66768266  0.65732477  0.66293699  1
  Ca  Ca42  1  0.99968616  0.99863189  0.35132425  1
  Ca  Ca43  1  0.49672187  0.99323756  0.34805312  1
  Ca  Ca44  1  0.99623301  0.00024532  0.84741112  1
  Ca  Ca45  1  0.50437866  0.00930816  0.84781062  1
  Ca  Ca46  1  0.33938051  0.33492411  0.67759751  1
  Ca  Ca47  1  0.83790531  0.33894845  0.17994010  1
  Ca  Ca48  1  0.33504554  0.32971838  0.99442106  1
  Ca  Ca49  1  0.83093979  0.33335689  0.98285073  1
  Ca  Ca50  1  0.33094739  0.32934406  0.48339897  1
  Ca  Ca51  1  0.83341057  0.33422123  0.49001967  1
  Ca  Ca52  1  0.66923948  0.67592739  0.31414760  1
  Ca  Ca53  1  0.16700864  0.66222565  0.81112022  1
  Zr  Zr54  1  0.99188014  0.00135739  0.65322720  1
  Zr  Zr55  1  0.50480613  0.01900214  0.65268329  1
  Zr  Zr56  1  0.00365460  0.99083694  0.15265850  1
  Zr  Zr57  1  0.49246954  0.98413027  0.15320956  1
  Zr  Zr58  1  0.83123539  0.33607126  0.67673473  1
  Zr  Zr59  1  0.33050258  0.32635091  0.17647253  1
  Zr  Zr60  1  0.16784369  0.66757894  0.02681734  1
  Zr  Zr61  1  0.66419484  0.66993033  0.01701496  1
  Zr  Zr62  1  0.16424772  0.65923698  0.51690290  1
  Zr  Zr63  1  0.67353893  0.68155483  0.52304518  1
  Zr  Zr64  1  0.17937948  0.67874679  0.31311480  1
  Zr  Zr65  1  0.67917045  0.68175329  0.81174716  1
  Si  Si66  1  0.15519413  -0.00028296  0.25272625  1
  Si  Si67  1  0.65060613  0.00354376  0.25146431  1
  Si  Si68  1  0.34695268  0.67967451  0.25274911  1
  Si  Si69  1  0.84718477  0.69370067  0.25159033  1
  Si  Si70  1  0.15159196  0.29594702  0.75332954  1
  Si  Si71  1  0.65644093  0.31360372  0.75329281  1
  Si  Si72  1  0.34783345  0.99773250  0.75440823  1
  Si  Si73  1  0.84785914  0.01666521  0.75432351  1
  Si  Si74  1  0.48935692  0.33121187  0.58184702  1
  Si  Si75  1  0.98908911  0.34009819  0.58538814  1
  Si  Si76  1  0.67803904  0.02870572  0.58236659  1
  Si  Si77  1  0.83955579  0.64552101  0.57459643  1
  Si  Si78  1  0.48818004  0.64027655  0.08243975  1
  Si  Si79  1  0.98625096  0.64776021  0.08184591  1
  Si  Si80  1  0.34043292  0.03440656  0.07343914  1
  Si  Si81  1  0.17794592  0.32612837  0.07923929  1
  Si  Si82  1  0.81506311  0.66791227  0.92049326  1
  Si  Si83  1  0.66395988  0.96023986  0.91492744  1
  Si  Si84  1  0.31555607  0.96381688  0.42135580  1
  Si  Si85  1  0.81717634  0.97469967  0.41456198  1
  Si  Si86  1  0.16656121  0.37153909  0.41547301  1
  S  S87  1  0.00359444  0.30098666  0.25166902  1
  S  S88  1  0.49466476  0.29397446  0.24937698  1
  S  S89  1  0.99553580  0.69572425  0.75051501  1
  S  S90  1  0.50109630  0.70202219  0.75389058  1
  S  S91  1  0.17554950  0.02121075  0.58428257  1
  S  S92  1  0.33154574  0.64838657  0.58300386  1
  S  S93  1  0.83172969  0.01631957  0.08049841  1
  S  S94  1  0.67510360  0.32911339  0.08221288  1
  S  S95  1  0.31386221  0.66176096  0.91852256  1
  S  S96  1  0.02299201  0.37550949  0.91911264  1
  S  S97  1  0.52147767  0.38153010  0.91403944  1
  S  S98  1  0.16794308  0.96145124  0.91662406  1
  S  S99  1  0.66478752  0.36909642  0.41638612  1
  S  S100  1  0.02368601  0.66466645  0.41345776  1
  S  S101  1  0.52053671  0.66748119  0.41861481  1
  O  O102  1  0.12521460  0.04932634  0.31168347  1
  O  O103  1  0.61476699  0.03544038  0.31210936  1
  O  O104  1  0.39720998  0.75311856  0.31264424  1
  O  O105  1  0.89846853  0.77992148  0.31065862  1
  O  O106  1  0.48496652  0.21187215  0.30617233  1
  O  O107  1  0.99862651  0.22116803  0.30783740  1
  O  O108  1  0.11852036  0.20188500  0.81625061  1
  O  O109  1  0.62639784  0.20751624  0.81345858  1
  O  O110  1  0.49447440  0.76857789  0.81094904  1
  O  O111  1  0.98841434  0.75977334  0.80797781  1
  O  O112  1  0.39149155  0.00727463  0.81725846  1
  O  O113  1  0.89624926  0.03986595  0.81497305  1
  O  O114  1  0.40680669  0.98760221  0.70054040  1
  O  O115  1  0.90178169  0.00114992  0.69948064  1
  O  O116  1  0.09219035  0.16785657  0.69984671  1
  O  O117  1  0.59023021  0.20392981  0.70023000  1
  O  O118  1  -0.00254144  0.80316121  0.70191999  1
  O  O119  1  0.51013597  0.81669845  0.70553955  1
  O  O120  1  0.39874461  0.80052082  0.19631907  1
  O  O121  1  0.90345332  0.81429925  0.19384458  1
  O  O122  1  0.01192718  0.20533107  0.20225040  1
  O  O123  1  0.49587188  0.18988011  0.20030100  1
  O  O124  1  0.09080244  0.97617415  0.19770137  1
  O  O125  1  0.59376761  0.01411614  0.19515925  1
  O  O126  1  0.45502676  0.35935171  0.64305808  1
  O  O127  1  0.93952250  0.35383676  0.64275241  1
  O  O128  1  0.22833628  0.09848091  0.63651609  1
  O  O129  1  0.74529198  0.13112445  0.63579489  1
  O  O130  1  0.32085033  0.54901661  0.63660235  1
  O  O131  1  0.82469031  0.50297152  0.62396184  1
  O  O132  1  0.43408592  0.52074755  0.13710936  1
  O  O133  1  0.95275938  0.54940876  0.14251336  1
  O  O134  1  0.32222151  0.14471383  0.12127839  1
  O  O135  1  0.82035257  0.09662638  0.13291661  1
  O  O136  1  0.24633341  0.35939901  0.13152225  1
  O  O137  1  0.72818776  0.35458179  0.13386717  1
  O  O138  1  0.20794103  0.28198867  0.01886049  1
  O  O139  1  0.71132940  0.30098018  0.02892907  1
  O  O140  1  0.43794005  0.57966615  0.02148072  1
  O  O141  1  0.92718725  0.56763146  0.02524844  1
  O  O142  1  0.35307514  0.11266704  0.00890178  1
  O  O143  1  0.83719480  0.10409326  0.02633682  1
  O  O144  1  0.21287756  0.12535167  0.53190715  1
  O  O145  1  0.70640718  0.13927341  0.52352154  1
  O  O146  1  0.33695804  0.56783596  0.53006378  1
  O  O147  1  0.85196655  0.59019838  0.51069167  1
  O  O148  1  0.42517206  0.28523595  0.52756371  1
  O  O149  1  0.93637854  0.29805978  0.52597508  1
  O  O150  1  0.26542919  0.66450575  0.97064956  1
  O  O151  1  0.76063578  0.66122630  0.97951622  1
  O  O152  1  0.07765522  0.48461791  0.96738559  1
  O  O153  1  0.56920155  0.47640886  0.96705482  1
  O  O154  1  0.17243626  0.86666856  0.96815722  1
  O  O155  1  0.66350613  0.84818275  0.97316155  1
  O  O156  1  0.26201968  0.86292591  0.48095763  1
  O  O157  1  0.75877986  0.85748690  0.47151379  1
  O  O158  1  0.16740115  0.48245432  0.47422447  1
  O  O159  1  0.66733818  0.47043099  0.46783733  1
  O  O160  1  0.07156997  0.66148095  0.46618331  1
  O  O161  1  0.57327194  0.66487994  0.46708161  1
  O  O162  1  0.06795347  0.66161527  0.35955988  1
  O  O163  1  0.55261122  0.65019858  0.36132840  1
  O  O164  1  0.26027412  0.84810802  0.36450369  1
  O  O165  1  0.76750912  0.89205009  0.35447973  1
  O  O166  1  0.16385770  0.47603275  0.35738621  1
  O  O167  1  0.66190990  0.44849288  0.36092740  1
  O  O168  1  0.05647848  0.45749424  0.86222914  1
  O  O169  1  0.56655211  0.46960671  0.86030257  1
  O  O170  1  0.16760211  0.87817241  0.86157681  1
  O  O171  1  0.66113234  0.84946578  0.85741949  1
  O  O172  1  0.26946858  0.65518425  0.86423932  1
  O  O173  1  0.75986612  0.67337188  0.86364950  1
  O  O174  1  0.02143033  0.81885955  0.41734781  1
  O  O175  1  0.51966697  0.82474046  0.42260756  1
  O  O176  1  0.40478896  0.97432785  0.42353970  1
  O  O177  1  0.90444922  0.97700704  0.42220718  1
  O  O178  1  0.08597087  0.19192424  0.42298520  1
  O  O179  1  0.58863247  0.20539565  0.42266317  1
  O  O180  1  0.02147881  0.21615980  0.92376312  1
  O  O181  1  0.51401113  0.21721153  0.91805740  1
  O  O182  1  0.09088522  0.96891213  0.92280869  1
  O  O183  1  0.58159100  0.97571961  0.92239179  1
  O  O184  1  0.39600189  0.81289016  0.92178813  1
  O  O185  1  0.90458933  0.83554616  0.92282849  1
  O  O186  1  0.49854157  0.16000707  0.58716630  1
  O  O187  1  0.00471202  0.18038554  0.59534939  1
  O  O188  1  0.09264548  0.00114063  0.59195464  1
  O  O189  1  0.58609950  -0.00766234  0.60028118  1
  O  O190  1  0.40386797  0.81694058  0.58789394  1
  O  O191  1  0.91377626  0.83205345  0.59173582  1
  O  O192  1  0.50246786  0.82937621  0.09310802  1
  O  O193  1  0.99903124  0.83828529  0.08609502  1
  O  O194  1  0.41465449  -0.00288861  0.09001725  1
  O  O195  1  0.90412828  -0.00706722  0.08613216  1
  O  O196  1  0.08705160  0.17568842  0.09645947  1
  O  O197  1  0.59168977  0.18350909  0.08954298  1
  O  O198  1  0.34106503  0.16414040  0.74672721  1
  O  O199  1  0.83718578  0.17875988  0.74475015  1
  O  O200  1  0.24680041  0.33914068  0.74380722  1
  O  O201  1  0.74695094  0.33786682  0.73776371  1
  O  O202  1  0.42619418  0.53995521  0.74565345  1
  O  O203  1  0.92517249  0.52625848  0.74346052  1
  O  O204  1  0.33588781  0.49580703  0.24264276  1
  O  O205  1  0.83907873  0.51179622  0.24689335  1
  O  O206  1  0.42468373  0.32475114  0.24129739  1
  O  O207  1  0.92867602  0.31371875  0.24425043  1
  O  O208  1  0.24601687  0.15516909  0.23610068  1
  O  O209  1  0.74616628  0.14956877  0.24389281  1
  O  O210  1  0.32275448  0.51314772  0.92017432  1
  O  O211  1  0.82030620  0.50053824  0.91367012  1
  O  O212  1  0.43989359  0.37025856  0.91414438  1
  O  O213  1  0.93951628  0.35076915  0.92585169  1
  O  O214  1  0.24148223  0.12952413  0.91576192  1
  O  O215  1  0.74970347  0.13482732  0.91293235  1
  O  O216  1  0.32034773  0.14103498  0.41454857  1
  O  O217  1  0.82770712  0.15876563  0.41786336  1
  O  O218  1  0.25297474  0.37060326  0.41270112  1
  O  O219  1  0.73936082  0.35284680  0.41527423  1
  O  O220  1  0.43602866  0.52665629  0.42501870  1
  O  O221  1  0.94143745  0.51800375  0.41403554  1
  O  O222  1  0.17677049  0.50239074  0.07744707  1
  O  O223  1  0.66753461  0.47977528  0.07710921  1
  O  O224  1  0.08326624  0.68854566  0.07219944  1
  O  O225  1  0.58282737  0.66661209  0.08197865  1
  O  O226  1  0.25525041  0.84756761  0.07703950  1
  O  O227  1  0.75599707  0.84473095  0.07974889  1
  O  O228  1  0.16811540  0.85589236  0.57811229  1
  O  O229  1  0.67674451  0.85101741  0.58027861  1
  O  O230  1  0.25566133  0.66740427  0.58151142  1
  O  O231  1  0.75386976  0.65829885  0.57829019  1
  O  O232  1  0.08434113  0.50213533  0.58306406  1
  O  O233  1  0.58425430  0.48035795  0.57096532  1
  O  O234  1  0.15256943  0.82079207  0.25466461  1
  O  O235  1  0.64101637  0.82084066  0.24466716  1
  O  O236  1  0.25305570  0.65656064  0.25088218  1
  O  O237  1  0.75633145  0.67629907  0.24453215  1
  O  O238  1  0.07786599  0.46986682  0.24922911  1
  O  O239  1  0.57260251  0.45379043  0.24661899  1
  O  O240  1  0.14542774  0.46408925  0.74538982  1
  O  O241  1  0.65307706  0.48641761  0.75429847  1
  O  O242  1  0.07348620  0.69002663  0.74698469  1
  O  O243  1  0.57499472  0.68080444  0.75163756  1
  O  O244  1  0.25674913  0.83382481  0.74499665  1
  O  O245  1  0.75359800  0.85274972  0.75141515  1
