# generated using pymatgen
data_Na6Ti2Si5Sn2SO24
_symmetry_space_group_name_H-M   'P 1'
_cell_length_a   9.01516194
_cell_length_b   9.00454615
_cell_length_c   22.24138891
_cell_angle_alpha   90.00347809
_cell_angle_beta   89.73811060
_cell_angle_gamma   119.99438845
_symmetry_Int_Tables_number   1
_chemical_formula_structural   Na6Ti2Si5Sn2SO24
_chemical_formula_sum   'Na18 Ti6 Si15 Sn6 S3 O72'
_cell_volume   1563.67496078
_cell_formula_units_Z   3
loop_
 _symmetry_equiv_pos_site_id
 _symmetry_equiv_pos_as_xyz
  1  'x, y, z'
loop_
 _atom_site_type_symbol
 _atom_site_label
 _atom_site_symmetry_multiplicity
 _atom_site_fract_x
 _atom_site_fract_y
 _atom_site_fract_z
 _atom_site_occupancy
  Na  Na0  1  0.64097928  0.00785355  0.24904572  1
  Na  Na1  1  0.36458845  0.36804228  0.24796200  1
  Na  Na2  1  0.99509517  0.63016806  0.24987730  1
  Na  Na3  1  0.63548209  0.63607270  0.74860090  1
  Na  Na4  1  0.00143024  0.36932435  0.75115505  1
  Na  Na5  1  0.36809167  0.99933163  0.75116117  1
  Na  Na6  1  0.30112885  0.33191390  0.58607198  1
  Na  Na7  1  0.03214306  0.70078268  0.58341278  1
  Na  Na8  1  0.67011215  0.96898192  0.58277903  1
  Na  Na9  1  0.03474536  0.33002986  0.08719998  1
  Na  Na10  1  0.96855301  0.66392595  0.91654883  1
  Na  Na11  1  0.32985190  0.02621411  0.41723491  1
  Na  Na12  1  0.97969562  0.98881339  0.49805945  1
  Na  Na13  1  0.01308053  0.00486494  0.00031606  1
  Na  Na14  1  0.65922765  0.31434233  0.83815666  1
  Na  Na15  1  0.68566439  0.33946453  0.33294040  1
  Na  Na16  1  0.34355772  0.67054459  0.16298701  1
  Na  Na17  1  0.33403372  0.66835455  0.66732023  1
  Ti  Ti18  1  0.01490485  0.01592968  0.85314803  1
  Ti  Ti19  1  0.01122149  0.99461552  0.14765657  1
  Ti  Ti20  1  0.66669056  0.34695248  0.18548048  1
  Ti  Ti21  1  0.65603870  0.32765733  0.98157429  1
  Ti  Ti22  1  0.30535933  0.65144482  0.01987410  1
  Ti  Ti23  1  0.32844438  0.67866004  0.31053812  1
  Si  Si24  1  0.29430145  0.00618648  0.25103535  1
  Si  Si25  1  0.70922101  0.71167258  0.24739508  1
  Si  Si26  1  0.99937944  0.28936346  0.24747035  1
  Si  Si27  1  0.29403267  0.29439423  0.75040107  1
  Si  Si28  1  0.99981446  0.71193312  0.75260520  1
  Si  Si29  1  0.71288474  0.99911486  0.75217010  1
  Si  Si30  1  0.96111335  0.33221252  0.58390022  1
  Si  Si31  1  0.37711581  0.04577977  0.58271103  1
  Si  Si32  1  0.66597421  0.62223429  0.58283648  1
  Si  Si33  1  0.94947375  0.62674417  0.08164874  1
  Si  Si34  1  0.37565685  0.33632195  0.08327559  1
  Si  Si35  1  0.03079251  0.36437976  0.91763812  1
  Si  Si36  1  0.33498359  0.96211930  0.91829115  1
  Si  Si37  1  0.62851637  0.95928885  0.41529924  1
  Si  Si38  1  0.03735014  0.66658449  0.41530252  1
  Sn  Sn39  1  0.98695796  0.98923507  0.35009160  1
  Sn  Sn40  1  -0.00000301  0.00000624  0.64826870  1
  Sn  Sn41  1  0.67080058  0.33577054  0.68770345  1
  Sn  Sn42  1  0.67980687  0.33342420  0.47880151  1
  Sn  Sn43  1  0.33633340  0.67486821  0.51864176  1
  Sn  Sn44  1  0.32972318  0.67165724  0.81749798  1
  S  S45  1  0.66277530  0.04206809  0.08277489  1
  S  S46  1  0.62259642  0.66461579  0.91888670  1
  S  S47  1  0.33255900  0.37664291  0.41514667  1
  O  O48  1  0.22175187  0.05408189  0.31112562  1
  O  O49  1  0.83490056  0.77150090  0.30586614  1
  O  O50  1  0.94943136  0.16180550  0.30559820  1
  O  O51  1  0.19630834  0.16300320  0.80672418  1
  O  O52  1  0.97179935  0.80503050  0.81081444  1
  O  O53  1  0.84608036  0.03064338  0.80656147  1
  O  O54  1  0.78023024  0.95778228  0.68902981  1
  O  O55  1  0.17805551  0.22347167  0.68963225  1
  O  O56  1  0.04010290  0.82500958  0.69060916  1
  O  O57  1  0.80461055  0.84682220  0.19226704  1
  O  O58  1  0.03747874  0.20187499  0.18898540  1
  O  O59  1  0.15938736  0.96359488  0.19549776  1
  O  O60  1  0.89087877  0.38117653  0.64486486  1
  O  O61  1  0.49672165  0.12439141  0.64254241  1
  O  O62  1  0.62325745  0.50835270  0.64499102  1
  O  O63  1  0.86290200  0.50091893  0.14116112  1
  O  O64  1  0.63937696  0.11853707  0.13943810  1
  O  O65  1  0.49393293  0.35625573  0.14283674  1
  O  O66  1  0.47859823  0.31070627  0.02721459  1
  O  O67  1  0.83570797  0.52806060  0.02305183  1
  O  O68  1  0.68887997  0.15605509  0.03090855  1
  O  O69  1  0.45628770  0.16478684  0.52232013  1
  O  O70  1  0.70953387  0.53658328  0.52603943  1
  O  O71  1  0.83169207  0.28007707  0.52728206  1
  O  O72  1  0.52858350  0.68107382  0.96965499  1
  O  O73  1  0.15589653  0.46392894  0.97637966  1
  O  O74  1  0.30713408  0.82168161  0.97189251  1
  O  O75  1  0.55005726  0.85258036  0.47794735  1
  O  O76  1  0.31337916  0.45222954  0.47188533  1
  O  O77  1  0.15066501  0.69728974  0.47638424  1
  O  O78  1  0.14193724  0.64930780  0.35644878  1
  O  O79  1  0.50175974  0.85386109  0.35775091  1
  O  O80  1  0.34694173  0.47959200  0.36150944  1
  O  O81  1  0.11311569  0.49016409  0.85810104  1
  O  O82  1  0.37626085  0.89417925  0.85487096  1
  O  O83  1  0.52692220  0.63865516  0.86059468  1
  O  O84  1  0.03852104  0.84989067  0.41167844  1
  O  O85  1  0.82030054  0.98607571  0.41231703  1
  O  O86  1  0.17950576  0.20108014  0.41309032  1
  O  O87  1  0.01913579  0.17820504  0.91225862  1
  O  O88  1  0.15273906  0.96245432  0.91399182  1
  O  O89  1  0.79575755  0.81830897  0.91531038  1
  O  O90  1  0.98148369  0.16246984  0.58804509  1
  O  O91  1  0.18617286  0.02448372  0.58688111  1
  O  O92  1  0.83583457  0.81366731  0.58656935  1
  O  O93  1  0.97201185  0.81729823  0.08950904  1
  O  O94  1  0.82415033  0.03399053  0.08579538  1
  O  O95  1  0.18165358  0.16770934  0.08907375  1
  O  O96  1  0.69602416  0.17245859  0.74952444  1
  O  O97  1  0.47940704  0.30336742  0.74877429  1
  O  O98  1  0.82521104  0.52254152  0.74995689  1
  O  O99  1  0.68288961  0.51696166  0.23905757  1
  O  O100  1  0.83146781  0.31417098  0.23994411  1
  O  O101  1  0.48650588  0.16781647  0.24121340  1
  O  O102  1  0.64456163  0.51049598  0.92262688  1
  O  O103  1  0.84697226  0.35657050  0.92592792  1
  O  O104  1  0.50174174  0.15215393  0.92830507  1
  O  O105  1  0.62173623  0.14003269  0.41564083  1
  O  O106  1  0.48928575  0.35956209  0.41650855  1
  O  O107  1  0.84916718  0.49459089  0.41529281  1
  O  O108  1  0.35533897  0.50782332  0.07668989  1
  O  O109  1  0.14050172  0.63764757  0.07668438  1
  O  O110  1  0.51165791  0.86976834  0.07624588  1
  O  O111  1  0.35580209  0.85378303  0.58028447  1
  O  O112  1  0.49300152  0.63863023  0.57722531  1
  O  O113  1  0.15190442  0.50088072  0.57611394  1
  O  O114  1  0.30897603  0.83035691  0.25526090  1
  O  O115  1  0.51779668  0.68859484  0.25552381  1
  O  O116  1  0.17259784  0.48056960  0.25595066  1
  O  O117  1  0.31769567  0.48534518  0.75886283  1
  O  O118  1  0.16996337  0.68931561  0.75483072  1
  O  O119  1  0.52302087  0.82692491  0.75802337  1
