# generated using pymatgen
data_Na3Zr2Al2P5SO24
_symmetry_space_group_name_H-M   'P 1'
_cell_length_a   8.71561656
_cell_length_b   8.68830378
_cell_length_c   22.41834611
_cell_angle_alpha   90.13094210
_cell_angle_beta   89.86904154
_cell_angle_gamma   120.18391742
_symmetry_Int_Tables_number   1
_chemical_formula_structural   Na3Zr2Al2P5SO24
_chemical_formula_sum   'Na9 Zr6 Al6 P15 S3 O72'
_cell_volume   1467.43188424
_cell_formula_units_Z   3
loop_
 _symmetry_equiv_pos_site_id
 _symmetry_equiv_pos_as_xyz
  1  'x, y, z'
loop_
 _atom_site_type_symbol
 _atom_site_label
 _atom_site_symmetry_multiplicity
 _atom_site_fract_x
 _atom_site_fract_y
 _atom_site_fract_z
 _atom_site_occupancy
  Na  Na0  1  -0.00003067  0.36269597  0.75185123  1
  Na  Na1  1  0.66754213  0.97382356  0.58352991  1
  Na  Na2  1  0.02795009  0.33407167  0.08347620  1
  Na  Na3  1  0.00806315  0.99471457  0.50422234  1
  Na  Na4  1  0.00594832  0.99342425  0.00362223  1
  Na  Na5  1  0.65641899  0.32701263  0.83360483  1
  Na  Na6  1  0.67779286  0.33726072  0.33274778  1
  Na  Na7  1  0.34411661  0.67226549  0.16749497  1
  Na  Na8  1  0.33366458  0.66698097  0.66649774  1
  Zr  Zr9  1  0.98665040  0.99149652  0.35665039  1
  Zr  Zr10  1  0.00628887  0.00317810  0.85642709  1
  Zr  Zr11  1  0.66215372  0.33521468  0.68389729  1
  Zr  Zr12  1  0.67001734  0.33698652  0.18485639  1
  Zr  Zr13  1  0.66613222  0.32886731  0.98025766  1
  Zr  Zr14  1  0.67328919  0.33441252  0.47988227  1
  Al  Al15  1  0.00342513  0.99814199  0.64938480  1
  Al  Al16  1  0.99026049  0.99775592  0.14834878  1
  Al  Al17  1  0.32956019  0.66964601  0.01988689  1
  Al  Al18  1  0.32907695  0.67029039  0.51972609  1
  Al  Al19  1  0.33188880  0.66472622  0.31255482  1
  Al  Al20  1  0.33231629  0.67479021  0.81167293  1
  P  P21  1  0.70047884  0.71487939  0.24836588  1
  P  P22  1  0.01311316  0.29705626  0.24869552  1
  P  P23  1  0.28721609  0.29596143  0.74901441  1
  P  P24  1  0.01039866  0.71795757  0.74865912  1
  P  P25  1  0.70333721  0.98617573  0.74858534  1
  P  P26  1  0.97747360  0.33592691  0.58418613  1
  P  P27  1  0.35751160  0.02932354  0.58227588  1
  P  P28  1  0.66592520  0.63817644  0.58207385  1
  P  P29  1  0.97160026  0.64364645  0.08272476  1
  P  P30  1  0.66219910  0.02374147  0.08349172  1
  P  P31  1  0.36268630  0.33270834  0.08321979  1
  P  P32  1  0.05926126  0.39520914  0.91655067  1
  P  P33  1  0.33439846  0.93937790  0.91679390  1
  P  P34  1  0.60140402  0.93873940  0.41680253  1
  P  P35  1  0.06270838  0.66652299  0.41568396  1
  S  S36  1  0.28324240  0.99036005  0.24935635  1
  S  S37  1  0.60567679  0.66501652  0.91661359  1
  S  S38  1  0.33513527  0.39200917  0.41645306  1
  O  O39  1  0.20769561  0.02138514  0.30396564  1
  O  O40  1  0.81614866  0.79144716  0.30517844  1
  O  O41  1  0.98241566  0.18005948  0.30424533  1
  O  O42  1  0.20821891  0.18309159  0.80585483  1
  O  O43  1  0.97442721  0.79315744  0.80562021  1
  O  O44  1  0.82519274  0.02818540  0.80355429  1
  O  O45  1  0.79264903  0.96645814  0.69176643  1
  O  O46  1  0.16532373  0.20431660  0.69523218  1
  O  O47  1  0.03148097  0.83148960  0.69408009  1
  O  O48  1  0.79754614  0.83125622  0.19422004  1
  O  O49  1  0.03326980  0.20664412  0.19196192  1
  O  O50  1  0.17530478  0.96963084  0.19619531  1
  O  O51  1  0.89316362  0.37057197  0.64024854  1
  O  O52  1  0.48708974  0.11395620  0.63626244  1
  O  O53  1  0.62987214  0.51656582  0.63693317  1
  O  O54  1  0.88606109  0.51257820  0.13633878  1
  O  O55  1  0.62817000  0.11194712  0.13798631  1
  O  O56  1  0.48447737  0.36794380  0.13759718  1
  O  O57  1  0.44997891  0.29830643  0.02835423  1
  O  O58  1  0.84912910  0.55448292  0.02815019  1
  O  O59  1  0.70775617  0.15479590  0.02964791  1
  O  O60  1  0.44888461  0.15186119  0.52785446  1
  O  O61  1  0.70022261  0.54985462  0.52774911  1
  O  O62  1  0.84428810  0.29295359  0.53123667  1
  O  O63  1  0.52519392  0.68454588  0.97137574  1
  O  O64  1  0.16387742  0.47775655  0.97410664  1
  O  O65  1  0.31635272  0.83541290  0.97348001  1
  O  O66  1  0.52322089  0.83677589  0.47526919  1
  O  O67  1  0.31391603  0.47306505  0.47125773  1
  O  O68  1  0.16552630  0.68500742  0.47287022  1
  O  O69  1  0.14449322  0.64217913  0.35873481  1
  O  O70  1  0.49760722  0.84995855  0.36042560  1
  O  O71  1  0.35561672  0.49138916  0.36164026  1
  O  O72  1  0.14466201  0.49676983  0.85846185  1
  O  O73  1  0.35782339  0.85772794  0.85947089  1
  O  O74  1  0.50623858  0.64506021  0.86163574  1
  O  O75  1  0.04205362  0.83467929  0.41263946  1
  O  O76  1  0.79342530  0.96590105  0.41455375  1
  O  O77  1  0.17587935  0.20991193  0.41342760  1
  O  O78  1  0.03233114  0.20380375  0.91427553  1
  O  O79  1  0.16721202  0.96058651  0.91438553  1
  O  O80  1  0.78723653  0.82521051  0.91397289  1
  O  O81  1  0.98328153  0.16323324  0.59308025  1
  O  O82  1  0.17878585  0.01458090  0.59350130  1
  O  O83  1  0.83104024  0.82244622  0.59222061  1
  O  O84  1  0.98809906  0.82368502  0.09507865  1
  O  O85  1  0.83453150  0.01751480  0.09271816  1
  O  O86  1  0.17718246  0.16779760  0.09324993  1
  O  O87  1  0.68916179  0.15859982  0.74309861  1
  O  O88  1  0.47322181  0.31673510  0.74374811  1
  O  O89  1  0.84652797  0.52498238  0.74348164  1
  O  O90  1  0.67912673  0.52643836  0.24314149  1
  O  O91  1  0.84372998  0.31406537  0.24387549  1
  O  O92  1  0.46423653  0.15082451  0.24441942  1
  O  O93  1  0.62787871  0.50531319  0.91990865  1
  O  O94  1  0.87069587  0.37419620  0.92023270  1
  O  O95  1  0.49937430  0.13160374  0.92057962  1
  O  O96  1  0.62593034  0.12911998  0.42012527  1
  O  O97  1  0.49487983  0.37123520  0.42023437  1
  O  O98  1  0.87042904  0.50154002  0.42016692  1
  O  O99  1  0.34082507  0.49679492  0.07362583  1
  O  O100  1  0.15100207  0.65146557  0.07403206  1
  O  O101  1  0.49989783  0.84237376  0.07228952  1
  O  O102  1  0.34873146  0.84859883  0.57392519  1
  O  O103  1  0.50195233  0.65905082  0.57319562  1
  O  O104  1  0.15713335  0.49959341  0.57233834  1
  O  O105  1  0.30192311  0.83088898  0.25544546  1
  O  O106  1  0.51812751  0.69826530  0.25768754  1
  O  O107  1  0.17797426  0.48234790  0.25738465  1
  O  O108  1  0.30263511  0.47978006  0.75751413  1
  O  O109  1  0.17277610  0.69188148  0.75593512  1
  O  O110  1  0.51981691  0.82248732  0.75807510  1
