# generated using pymatgen
data_Na6Y2In2Si3(SO8)3
_symmetry_space_group_name_H-M   'P 1'
_cell_length_a   9.33083236
_cell_length_b   9.32937017
_cell_length_c   23.07298235
_cell_angle_alpha   90.07557097
_cell_angle_beta   89.82498079
_cell_angle_gamma   120.04596240
_symmetry_Int_Tables_number   1
_chemical_formula_structural   Na6Y2In2Si3(SO8)3
_chemical_formula_sum   'Na18 Y6 In6 Si9 S9 O72'
_cell_volume   1738.61615195
_cell_formula_units_Z   3
loop_
 _symmetry_equiv_pos_site_id
 _symmetry_equiv_pos_as_xyz
  1  'x, y, z'
loop_
 _atom_site_type_symbol
 _atom_site_label
 _atom_site_symmetry_multiplicity
 _atom_site_fract_x
 _atom_site_fract_y
 _atom_site_fract_z
 _atom_site_occupancy
  Na  Na0  1  0.63469097  0.01438532  0.26063508  1
  Na  Na1  1  0.33920960  0.33923351  0.25372663  1
  Na  Na2  1  0.65427525  0.65783170  0.73462981  1
  Na  Na3  1  0.98691657  0.36818892  0.74731366  1
  Na  Na4  1  0.01037437  0.67796094  0.59482580  1
  Na  Na5  1  0.67987833  0.97209287  0.58069496  1
  Na  Na6  1  0.31536984  0.96784929  0.09897316  1
  Na  Na7  1  0.02335813  0.31746958  0.08102769  1
  Na  Na8  1  0.96937678  0.65384306  0.89583284  1
  Na  Na9  1  0.71495119  0.04846075  0.90691158  1
  Na  Na10  1  0.95011083  0.28582474  0.42716977  1
  Na  Na11  1  0.34676488  0.02686698  0.41068282  1
  Na  Na12  1  0.96219392  0.99282232  0.50748134  1
  Na  Na13  1  0.98910593  0.01718120  0.99680357  1
  Na  Na14  1  0.66395841  0.32046232  0.82355623  1
  Na  Na15  1  0.67756821  0.32134900  0.33205166  1
  Na  Na16  1  0.32327363  0.67391006  0.17178402  1
  Na  Na17  1  0.33272332  0.66535686  0.66431417  1
  Y  Y18  1  0.98445358  0.99285293  0.34979726  1
  Y  Y19  1  0.99344880  0.00016884  0.65231423  1
  Y  Y20  1  0.67609553  0.34024366  0.68305743  1
  Y  Y21  1  0.66761331  0.31948935  0.18289417  1
  Y  Y22  1  0.66728898  0.33704723  0.48762549  1
  Y  Y23  1  0.32723638  0.67840323  0.31286049  1
  In  In24  1  0.00029324  0.01132153  0.84606066  1
  In  In25  1  0.99213688  0.00107654  0.15146753  1
  In  In26  1  0.68316428  0.32826639  0.98394552  1
  In  In27  1  0.33646137  0.65950946  0.01380282  1
  In  In28  1  0.35379445  0.66373668  0.52060436  1
  In  In29  1  0.32168019  0.67051724  0.81467054  1
  Si  Si30  1  0.29214829  0.99890931  0.24584517  1
  Si  Si31  1  0.00409826  0.30264433  0.24576917  1
  Si  Si32  1  0.99992928  0.70192257  0.75463191  1
  Si  Si33  1  0.68986694  0.99646092  0.75635519  1
  Si  Si34  1  0.98157364  0.34137593  0.57974987  1
  Si  Si35  1  0.66577148  0.64017410  0.58769580  1
  Si  Si36  1  0.66369896  0.01684221  0.07996572  1
  Si  Si37  1  0.04124897  0.36841499  0.91991951  1
  Si  Si38  1  0.63273068  0.97017856  0.41736982  1
  S  S39  1  0.69543391  0.69606274  0.24686848  1
  S  S40  1  0.30204439  0.30223027  0.75496634  1
  S  S41  1  0.36254734  0.02893200  0.58046988  1
  S  S42  1  0.96866671  0.63937032  0.07897843  1
  S  S43  1  0.37328063  0.33355850  0.08001023  1
  S  S44  1  0.63685775  0.66120840  0.91867447  1
  S  S45  1  0.33481403  0.96902222  0.92162796  1
  S  S46  1  0.33184974  0.36556152  0.41303368  1
  S  S47  1  0.03619109  0.66705025  0.42021851  1
  O  O48  1  0.19698395  0.00484500  0.30462327  1
  O  O49  1  0.79490715  0.77260516  0.29955961  1
  O  O50  1  0.97554215  0.18024029  0.30100406  1
  O  O51  1  0.22930143  0.20891160  0.80958872  1
  O  O52  1  0.99585137  0.79934678  0.81496004  1
  O  O53  1  0.80442000  0.03579782  0.81574637  1
  O  O54  1  0.78393484  0.97243654  0.70039077  1
  O  O55  1  0.19717467  0.21567326  0.70427107  1
  O  O56  1  0.01535481  0.80793523  0.69704788  1
  O  O57  1  0.77521061  0.79763618  0.19442603  1
  O  O58  1  0.02611132  0.22331302  0.18424448  1
  O  O59  1  0.18784168  0.98028145  0.18535760  1
  O  O60  1  0.89029230  0.36759312  0.63712094  1
  O  O61  1  0.47345981  0.12638545  0.62836567  1
  O  O62  1  0.65177471  0.54341171  0.64795482  1
  O  O63  1  0.87305487  0.53469031  0.12874393  1
  O  O64  1  0.62814149  0.10407087  0.13591168  1
  O  O65  1  0.46020686  0.34718027  0.13503067  1
  O  O66  1  0.47234881  0.33197576  0.02963929  1
  O  O67  1  0.87786654  0.56751816  0.02374277  1
  O  O68  1  0.70443889  0.13904650  0.02251242  1
  O  O69  1  0.43234479  0.11302392  0.52389193  1
  O  O70  1  0.67004295  0.53313022  0.53259845  1
  O  O71  1  0.86534978  0.30987594  0.52168457  1
  O  O72  1  0.55633737  0.68784303  0.97046056  1
  O  O73  1  0.13451730  0.44687506  0.98268840  1
  O  O74  1  0.31402125  0.87196083  0.97589266  1
  O  O75  1  0.52829826  0.86771196  0.47522437  1
  O  O76  1  0.30952298  0.45072979  0.46392412  1
  O  O77  1  0.13033127  0.67944103  0.47310426  1
  O  O78  1  0.11977371  0.64702398  0.36834613  1
  O  O79  1  0.53468266  0.88005051  0.35710410  1
  O  O80  1  0.34357836  0.45515150  0.35865793  1
  O  O81  1  0.13600646  0.49611491  0.86637875  1
  O  O82  1  0.36883935  0.88927517  0.87150170  1
  O  O83  1  0.54272283  0.64345803  0.86529709  1
  O  O84  1  0.02812844  0.82216611  0.41539430  1
  O  O85  1  0.82241205  0.99975910  0.42046228  1
  O  O86  1  0.18123906  0.19512257  0.41246625  1
  O  O87  1  0.01108048  0.17788886  0.91481333  1
  O  O88  1  0.18148840  0.97773678  0.91515421  1
  O  O89  1  0.80790898  0.81117396  0.91683621  1
  O  O90  1  0.99734466  0.17593779  0.58521821  1
  O  O91  1  0.19413469  0.00585563  0.58632335  1
  O  O92  1  0.84057041  0.81965763  0.58468963  1
  O  O93  1  0.00045899  0.81191804  0.08314776  1
  O  O94  1  0.83681309  0.00780899  0.08538745  1
  O  O95  1  0.20979764  0.17464496  0.07804219  1
  O  O96  1  0.66773231  0.15814866  0.74913505  1
  O  O97  1  0.47025421  0.32730768  0.74950554  1
  O  O98  1  0.82536679  0.52048637  0.75512091  1
  O  O99  1  0.66821182  0.52658430  0.24171831  1
  O  O100  1  0.83663377  0.31904645  0.24595068  1
  O  O101  1  0.47086769  0.17747079  0.24569811  1
  O  O102  1  0.65599796  0.51166501  0.92518419  1
  O  O103  1  0.85299349  0.35514345  0.91876681  1
  O  O104  1  0.48385131  0.13913680  0.92526124  1
  O  O105  1  0.64492827  0.15529915  0.41514875  1
  O  O106  1  0.47908389  0.34448153  0.41732516  1
  O  O107  1  0.86670450  0.51881959  0.42019985  1
  O  O108  1  0.34119440  0.47507139  0.07802669  1
  O  O109  1  0.13290960  0.64477195  0.07968888  1
  O  O110  1  0.48716767  0.83711819  0.07440403  1
  O  O111  1  0.34914344  0.86252725  0.58175511  1
  O  O112  1  0.51430648  0.68288771  0.58653886  1
  O  O113  1  0.15604425  0.52044221  0.57532039  1
  O  O114  1  0.33942603  0.85103985  0.24585190  1
  O  O115  1  0.53062058  0.68447188  0.25174658  1
  O  O116  1  0.17835616  0.47807344  0.25072791  1
  O  O117  1  0.31171693  0.46760004  0.75684878  1
  O  O118  1  0.15055940  0.65719705  0.75393022  1
  O  O119  1  0.51814533  0.81463681  0.76154841  1
