# generated using pymatgen
data_MgFe4As2O11
_symmetry_space_group_name_H-M   'P 1'
_cell_length_a   5.34330604
_cell_length_b   6.53094262
_cell_length_c   6.93416874
_cell_angle_alpha   109.24843313
_cell_angle_beta   103.42083966
_cell_angle_gamma   98.62879229
_symmetry_Int_Tables_number   1
_chemical_formula_structural   MgFe4As2O11
_chemical_formula_sum   'Mg1 Fe4 As2 O11'
_cell_volume   215.34638751
_cell_formula_units_Z   1
loop_
 _symmetry_equiv_pos_site_id
 _symmetry_equiv_pos_as_xyz
  1  'x, y, z'
loop_
 _atom_site_type_symbol
 _atom_site_label
 _atom_site_symmetry_multiplicity
 _atom_site_fract_x
 _atom_site_fract_y
 _atom_site_fract_z
 _atom_site_occupancy
  Mg  Mg0  1  0.81408200  0.65776800  0.74195800  1
  Fe  Fe1  1  0.15612900  0.79249500  0.11119900  1
  Fe  Fe2  1  0.89824300  0.23833700  0.95707300  1
  Fe  Fe3  1  0.63563900  0.59942300  0.21768400  1
  Fe  Fe4  1  0.32873700  0.35378600  0.74731700  1
  As  As5  1  0.31512600  0.81318200  0.59963000  1
  As  As6  1  0.68288400  0.17531900  0.39096500  1
  O  O7  1  0.74653800  0.52172100  0.95407400  1
  O  O8  1  0.25694200  0.47006900  0.05186600  1
  O  O9  1  0.97226900  0.97030900  0.95973900  1
  O  O10  1  0.91864500  0.21232000  0.62515100  1
  O  O11  1  0.06118300  0.79847200  0.38760900  1
  O  O12  1  0.42464500  0.26915600  0.46015900  1
  O  O13  1  0.18719700  0.64428700  0.71723200  1
  O  O14  1  0.79051400  0.33565500  0.25221700  1
  O  O15  1  0.46992900  0.07875100  0.78379500  1
  O  O16  1  0.57264800  0.90125200  0.20910600  1
  O  O17  1  0.56864800  0.70936400  0.51322800  1
