# generated using pymatgen
data_AuBr3
_symmetry_space_group_name_H-M   'P 1'
_cell_length_a   6.89106513
_cell_length_b   7.78975593
_cell_length_c   20.56925189
_cell_angle_alpha   90.00000000
_cell_angle_beta   90.00000000
_cell_angle_gamma   110.81440975
_symmetry_Int_Tables_number   1
_chemical_formula_structural   AuBr3
_chemical_formula_sum   'Au8 Br24'
_cell_volume   1032.09061401
_cell_formula_units_Z   8
loop_
 _symmetry_equiv_pos_site_id
 _symmetry_equiv_pos_as_xyz
  1  'x, y, z'
loop_
 _atom_site_type_symbol
 _atom_site_label
 _atom_site_symmetry_multiplicity
 _atom_site_fract_x
 _atom_site_fract_y
 _atom_site_fract_z
 _atom_site_occupancy
  Au  Au0  1  0.16072246  0.78439025  0.28944108  1
  Au  Au1  1  0.33927754  0.71560975  0.78944108  1
  Au  Au2  1  0.83927754  0.21560975  0.71055892  1
  Au  Au3  1  0.66072246  0.28439025  0.21055892  1
  Au  Au4  1  0.02500582  0.75923207  0.46173366  1
  Au  Au5  1  0.47499418  0.74076793  0.96173366  1
  Au  Au6  1  0.97499318  0.24076793  0.53826634  1
  Au  Au7  1  0.52500682  0.25923207  0.03826634  1
  Br  Br8  1  0.47093569  0.78991601  0.23287902  1
  Br  Br9  1  0.02906431  0.71008399  0.73287902  1
  Br  Br10  1  0.52906431  0.21008399  0.76712098  1
  Br  Br11  1  0.97093569  0.28991601  0.26712098  1
  Br  Br12  1  0.97993365  0.78930015  0.18837807  1
  Br  Br13  1  0.52006635  0.71069985  0.68837807  1
  Br  Br14  1  0.02006635  0.21069985  0.81162193  1
  Br  Br15  1  0.47993365  0.28930015  0.31162193  1
  Br  Br16  1  0.82936116  0.26380850  0.10509136  1
  Br  Br17  1  0.67063884  0.23619150  0.60509136  1
  Br  Br18  1  0.17063884  0.73619150  0.89490864  1
  Br  Br19  1  0.32936116  0.76380850  0.39490864  1
  Br  Br20  1  0.69745533  0.22942543  0.93858980  1
  Br  Br21  1  0.80254467  0.27057457  0.43858980  1
  Br  Br22  1  0.30254467  0.77057457  0.06141020  1
  Br  Br23  1  0.19745533  0.72942543  0.56141020  1
  Br  Br24  1  0.21864734  0.25401520  0.97912015  1
  Br  Br25  1  0.28135266  0.24598480  0.47912015  1
  Br  Br26  1  0.78135266  0.74598480  0.02087985  1
  Br  Br27  1  0.71864734  0.75401520  0.52087985  1
  Br  Br28  1  0.36276244  0.29527595  0.14409963  1
  Br  Br29  1  0.13723756  0.20472405  0.64409963  1
  Br  Br30  1  0.63723756  0.70472405  0.85590037  1
  Br  Br31  1  0.86276244  0.79527595  0.35590037  1
