# generated using pymatgen
data_NaYInP(SO6)2
_symmetry_space_group_name_H-M   'P 1'
_cell_length_a   8.98717986
_cell_length_b   8.99253797
_cell_length_c   24.12623357
_cell_angle_alpha   89.89248447
_cell_angle_beta   90.25413477
_cell_angle_gamma   120.13797239
_symmetry_Int_Tables_number   1
_chemical_formula_structural   NaYInP(SO6)2
_chemical_formula_sum   'Na6 Y6 In6 P6 S12 O72'
_cell_volume   1686.22717820
_cell_formula_units_Z   6
loop_
 _symmetry_equiv_pos_site_id
 _symmetry_equiv_pos_as_xyz
  1  'x, y, z'
loop_
 _atom_site_type_symbol
 _atom_site_label
 _atom_site_symmetry_multiplicity
 _atom_site_fract_x
 _atom_site_fract_y
 _atom_site_fract_z
 _atom_site_occupancy
  Na  Na0  1  0.97846608  0.98635693  0.50018686  1
  Na  Na1  1  0.00612421  0.98805608  0.99996355  1
  Na  Na2  1  0.65987518  0.31431838  0.83586630  1
  Na  Na3  1  0.65475086  0.31272475  0.33129036  1
  Na  Na4  1  0.32065087  0.67254483  0.16898556  1
  Na  Na5  1  0.35364378  0.67276752  0.66888633  1
  Y  Y6  1  0.00211473  0.00055806  0.34850179  1
  Y  Y7  1  0.98531189  0.99121358  0.65098689  1
  Y  Y8  1  0.66533076  0.33122428  0.68707056  1
  Y  Y9  1  0.66542081  0.33265902  0.48084937  1
  Y  Y10  1  0.32185538  0.67362242  0.01836789  1
  Y  Y11  1  0.34927432  0.67314358  0.51801829  1
  In  In12  1  0.00068072  0.00056638  0.85046159  1
  In  In13  1  0.00505162  0.98730888  0.14993422  1
  In  In14  1  0.66466266  0.33060017  0.18342255  1
  In  In15  1  0.66474255  0.33194377  0.98343092  1
  In  In16  1  0.33828846  0.68391656  0.31465356  1
  In  In17  1  0.34506972  0.68481819  0.81976110  1
  P  P18  1  0.30302325  0.00251526  0.24796367  1
  P  P19  1  0.70126125  0.99551507  0.75469092  1
  P  P20  1  0.66781265  0.62766349  0.58377633  1
  P  P21  1  0.94784502  0.62130814  0.08457305  1
  P  P22  1  0.33422879  0.97347351  0.91562906  1
  P  P23  1  0.63207956  0.96527934  0.41414094  1
  S  S24  1  0.69786844  0.69909479  0.24801513  1
  S  S25  1  0.00300390  0.29999994  0.24763809  1
  S  S26  1  0.29312384  0.30199886  0.75335653  1
  S  S27  1  0.00704604  0.70501844  0.75342316  1
  S  S28  1  0.96558975  0.33487592  0.58344939  1
  S  S29  1  0.36580894  0.03583426  0.58382939  1
  S  S30  1  0.67603817  0.04297792  0.08507489  1
  S  S31  1  0.36963210  0.32906862  0.08405791  1
  S  S32  1  0.63052912  0.66460688  0.91637168  1
  S  S33  1  0.03618188  0.36970381  0.91444382  1
  S  S34  1  0.33292898  0.37668787  0.41334513  1
  S  S35  1  0.04082400  0.66485662  0.41492452  1
  O  O36  1  0.22029490  0.02590942  0.30016935  1
  O  O37  1  0.80186588  0.78136773  0.29820623  1
  O  O38  1  0.97864032  0.19579515  0.29794465  1
  O  O39  1  0.21314552  0.19450292  0.80295942  1
  O  O40  1  0.98498463  0.78734959  0.80317983  1
  O  O41  1  0.81129102  0.01784951  0.80660006  1
  O  O42  1  0.78444496  0.97448227  0.70170109  1
  O  O43  1  0.19318418  0.21979831  0.70237436  1
  O  O44  1  0.03017988  0.80799066  0.70278438  1
  O  O45  1  0.77743710  0.80681916  0.19812934  1
  O  O46  1  0.02268056  0.21625385  0.19759432  1
  O  O47  1  0.19483820  0.97664333  0.19522687  1
  O  O48  1  0.87984372  0.34942307  0.63375677  1
  O  O49  1  0.47148575  0.11887807  0.63377235  1
  O  O50  1  0.65535287  0.52356543  0.63606072  1
  O  O51  1  0.86544431  0.51570307  0.13723139  1
  O  O52  1  0.64680936  0.12028047  0.13478785  1
  O  O53  1  0.47220034  0.35187128  0.13459925  1
  O  O54  1  0.44725790  0.30187547  0.03363930  1
  O  O55  1  0.84328225  0.53810840  0.03094506  1
  O  O56  1  0.69760326  0.14336071  0.03391012  1
  O  O57  1  0.45065907  0.13567479  0.53339515  1
  O  O58  1  0.67999888  0.53827134  0.53103809  1
  O  O59  1  0.86155750  0.31303661  0.53324975  1
  O  O60  1  0.54575773  0.68453034  0.96595148  1
  O  O61  1  0.14051029  0.45086130  0.96482470  1
  O  O62  1  0.30778785  0.86286655  0.96740584  1
  O  O63  1  0.54587866  0.85991250  0.46673346  1
  O  O64  1  0.31302025  0.45599662  0.46432489  1
  O  O65  1  0.14034751  0.68110646  0.46556030  1
  O  O66  1  0.12071706  0.64211710  0.36442853  1
  O  O67  1  0.52468986  0.87997932  0.36147718  1
  O  O68  1  0.34828304  0.47817318  0.36317057  1
  O  O69  1  0.11998565  0.47382642  0.86423855  1
  O  O70  1  0.36253590  0.89373664  0.86304148  1
  O  O71  1  0.52621932  0.63785184  0.86546266  1
  O  O72  1  0.02629152  0.82160273  0.41059653  1
  O  O73  1  0.81138299  0.98144896  0.41011746  1
  O  O74  1  0.17928927  0.20243274  0.41009668  1
  O  O75  1  0.01706216  0.19609390  0.91027370  1
  O  O76  1  0.17040572  0.98984323  0.90936219  1
  O  O77  1  0.80312214  0.82178586  0.91140116  1
  O  O78  1  0.98659781  0.18198236  0.58759412  1
  O  O79  1  0.19656514  0.02320034  0.58857468  1
  O  O80  1  0.83027519  0.80931772  0.58589314  1
  O  O81  1  0.96515852  0.80282715  0.08820040  1
  O  O82  1  0.83404632  0.03025396  0.09182518  1
  O  O83  1  0.19440679  0.17450327  0.08922679  1
  O  O84  1  0.68100547  0.15594465  0.74986634  1
  O  O85  1  0.46764328  0.32284284  0.74885802  1
  O  O86  1  0.85080067  0.53338677  0.74818994  1
  O  O87  1  0.68483637  0.52842021  0.24309985  1
  O  O88  1  0.84824077  0.31954760  0.24338812  1
  O  O89  1  0.48521601  0.16593110  0.24264904  1
  O  O90  1  0.65087657  0.51061495  0.92130726  1
  O  O91  1  0.86326720  0.35318720  0.91981524  1
  O  O92  1  0.49866197  0.15469468  0.92293139  1
  O  O93  1  0.64863508  0.14451010  0.41847817  1
  O  O94  1  0.48874824  0.36060825  0.41747971  1
  O  O95  1  0.86658705  0.51178984  0.41837542  1
  O  O96  1  0.35499679  0.48525064  0.07772210  1
  O  O97  1  0.12986345  0.64225229  0.08032978  1
  O  O98  1  0.52283792  0.86787820  0.07933586  1
  O  O99  1  0.34466006  0.86197688  0.58008269  1
  O  O100  1  0.50518969  0.64574120  0.58211662  1
  O  O101  1  0.13549312  0.49185271  0.57910476  1
  O  O102  1  0.31917321  0.83778538  0.25201605  1
  O  O103  1  0.52300353  0.67675028  0.25343053  1
  O  O104  1  0.16029798  0.47283964  0.25405590  1
  O  O105  1  0.30663741  0.47276355  0.75919134  1
  O  O106  1  0.16068773  0.68497401  0.75822368  1
  O  O107  1  0.52168112  0.82857382  0.75757353  1
