# generated using pymatgen
data_Co2(GeS)3
_symmetry_space_group_name_H-M   'P 1'
_cell_length_a   7.99698448
_cell_length_b   7.99698448
_cell_length_c   7.99698464
_cell_angle_alpha   89.91715686
_cell_angle_beta   89.91715687
_cell_angle_gamma   89.91715001
_symmetry_Int_Tables_number   1
_chemical_formula_structural   Co2(GeS)3
_chemical_formula_sum   'Co8 Ge12 S12'
_cell_volume   511.41964622
_cell_formula_units_Z   4
loop_
 _symmetry_equiv_pos_site_id
 _symmetry_equiv_pos_as_xyz
  1  'x, y, z'
loop_
 _atom_site_type_symbol
 _atom_site_label
 _atom_site_symmetry_multiplicity
 _atom_site_fract_x
 _atom_site_fract_y
 _atom_site_fract_z
 _atom_site_occupancy
  Co  Co0  1  0.25835007  0.25394413  0.75629166  1
  Co  Co1  1  0.74164993  0.74605587  0.24370834  1
  Co  Co2  1  0.75629166  0.25835007  0.25394413  1
  Co  Co3  1  0.24370834  0.74164993  0.74605587  1
  Co  Co4  1  0.25394413  0.75629166  0.25835007  1
  Co  Co5  1  0.75586997  0.75586997  0.75586997  1
  Co  Co6  1  0.74605587  0.24370834  0.74164993  1
  Co  Co7  1  0.24413003  0.24413003  0.24413003  1
  Ge  Ge8  1  0.99886368  0.33453254  0.84979740  1
  Ge  Ge9  1  0.00113632  0.66546746  0.15020260  1
  Ge  Ge10  1  0.50149961  0.16576561  0.35008313  1
  Ge  Ge11  1  0.35008313  0.50149961  0.16576561  1
  Ge  Ge12  1  0.16576561  0.35008313  0.50149961  1
  Ge  Ge13  1  0.84979740  0.99886368  0.33453254  1
  Ge  Ge14  1  0.49850039  0.83423439  0.64991687  1
  Ge  Ge15  1  0.64991687  0.49850039  0.83423439  1
  Ge  Ge16  1  0.66546746  0.15020260  0.00113632  1
  Ge  Ge17  1  0.33453254  0.84979740  0.99886368  1
  Ge  Ge18  1  0.15020260  0.00113632  0.66546746  1
  Ge  Ge19  1  0.83423439  0.64991687  0.49850039  1
  S  S20  1  0.99688626  0.65400165  0.85377723  1
  S  S21  1  0.35314638  0.50068533  0.84580688  1
  S  S22  1  0.34599835  0.14622277  0.00311374  1
  S  S23  1  0.85377723  0.99688626  0.65400165  1
  S  S24  1  0.65400165  0.85377723  0.99688626  1
  S  S25  1  0.64685362  0.49931467  0.15419312  1
  S  S26  1  0.15419312  0.64685362  0.49931467  1
  S  S27  1  0.50068533  0.84580688  0.35314638  1
  S  S28  1  0.49931467  0.15419312  0.64685362  1
  S  S29  1  0.14622277  0.00311374  0.34599835  1
  S  S30  1  0.84580688  0.35314638  0.50068533  1
  S  S31  1  0.00311374  0.34599835  0.14622277  1
