# generated using pymatgen
data_SbClF8
_symmetry_space_group_name_H-M   'P 1'
_cell_length_a   5.09479631
_cell_length_b   5.54478463
_cell_length_c   10.34178073
_cell_angle_alpha   91.11212546
_cell_angle_beta   94.40080463
_cell_angle_gamma   92.55323471
_symmetry_Int_Tables_number   1
_chemical_formula_structural   SbClF8
_chemical_formula_sum   'Sb2 Cl2 F16'
_cell_volume   290.92367613
_cell_formula_units_Z   2
loop_
 _symmetry_equiv_pos_site_id
 _symmetry_equiv_pos_as_xyz
  1  'x, y, z'
loop_
 _atom_site_type_symbol
 _atom_site_label
 _atom_site_symmetry_multiplicity
 _atom_site_fract_x
 _atom_site_fract_y
 _atom_site_fract_z
 _atom_site_occupancy
  Sb  Sb0  1  -0.00000000  0.00000000  0.00000000  1
  Sb  Sb1  1  -0.00000000  0.00000000  0.50000000  1
  Cl  Cl2  1  0.58148773  0.60675763  0.75127834  1
  Cl  Cl3  1  0.41851227  0.39324237  0.24872166  1
  F  F4  1  0.71595145  0.05401898  0.10103427  1
  F  F5  1  0.28404855  0.94598102  0.89896573  1
  F  F6  1  0.67566307  0.96257359  0.40001381  1
  F  F7  1  0.32433693  0.03742641  0.59998619  1
  F  F8  1  0.39123890  0.46889252  0.84282556  1
  F  F9  1  0.60876110  0.53110748  0.15717444  1
  F  F10  1  0.40829843  0.54263147  0.61995105  1
  F  F11  1  0.59170157  0.45736853  0.38004895  1
  F  F12  1  0.83069431  0.69708566  0.93411410  1
  F  F13  1  0.16930569  0.30291434  0.06588590  1
  F  F14  1  0.87056529  0.79870039  0.63453174  1
  F  F15  1  0.12943471  0.20129961  0.36546826  1
  F  F16  1  0.83464437  0.16394565  0.86115128  1
  F  F17  1  0.16535563  0.83605435  0.13884872  1
  F  F18  1  0.88572053  0.27741244  0.58234015  1
  F  F19  1  0.11427947  0.72258756  0.41765985  1
