# generated using pymatgen
data_Na3MgGaSi(SO6)2
_symmetry_space_group_name_H-M   'P 1'
_cell_length_a   8.94716951
_cell_length_b   8.91079689
_cell_length_c   21.93829314
_cell_angle_alpha   90.55198353
_cell_angle_beta   90.00000000
_cell_angle_gamma   120.13511889
_symmetry_Int_Tables_number   1
_chemical_formula_structural   Na3MgGaSi(SO6)2
_chemical_formula_sum   'Na18 Mg6 Ga6 Si6 S12 O72'
_cell_volume   1512.57112874
_cell_formula_units_Z   6
loop_
 _symmetry_equiv_pos_site_id
 _symmetry_equiv_pos_as_xyz
  1  'x, y, z'
loop_
 _atom_site_type_symbol
 _atom_site_label
 _atom_site_symmetry_multiplicity
 _atom_site_fract_x
 _atom_site_fract_y
 _atom_site_fract_z
 _atom_site_occupancy
  Na  Na0  1  0.63493960  0.00380741  0.25388651  1
  Na  Na1  1  0.00558038  0.63792772  0.23700724  1
  Na  Na2  1  0.63234734  0.63792772  0.73700724  1
  Na  Na3  1  0.36886782  0.00380741  0.75388651  1
  Na  Na4  1  0.31530251  0.34247297  0.58753808  1
  Na  Na5  1  0.66158355  0.95214098  0.58003766  1
  Na  Na6  1  0.29055843  0.95214098  0.08003766  1
  Na  Na7  1  0.02717145  0.34247297  0.08753808  1
  Na  Na8  1  0.98533140  0.67996445  0.92759189  1
  Na  Na9  1  0.69473272  0.03500059  0.90579718  1
  Na  Na10  1  0.34026688  0.03500059  0.40579718  1
  Na  Na11  1  0.69463205  0.67996445  0.42759189  1
  Na  Na12  1  0.98191847  0.99648446  0.49826956  1
  Na  Na13  1  0.01456599  0.99648446  0.99826956  1
  Na  Na14  1  0.66514186  0.31418093  0.83306171  1
  Na  Na15  1  0.64904007  0.31418093  0.33306171  1
  Na  Na16  1  0.33134463  0.66045044  0.16548028  1
  Na  Na17  1  0.32910481  0.66045044  0.66548028  1
  Mg  Mg18  1  0.00607727  0.01085255  0.35165985  1
  Mg  Mg19  1  0.00477528  0.01085255  0.85165985  1
  Mg  Mg20  1  0.67444296  0.32981962  0.68493162  1
  Mg  Mg21  1  0.65537767  0.32981962  0.18493162  1
  Mg  Mg22  1  0.32784033  0.67398809  0.01819006  1
  Mg  Mg23  1  0.34614675  0.67398809  0.51819006  1
  Ga  Ga24  1  0.97095764  0.96887620  0.65145973  1
  Ga  Ga25  1  0.99791856  0.96887620  0.15145973  1
  Ga  Ga26  1  0.65102982  0.33681199  0.98600894  1
  Ga  Ga27  1  0.68578316  0.33681199  0.48600894  1
  Ga  Ga28  1  0.34018797  0.69651718  0.32012504  1
  Ga  Ga29  1  0.35632821  0.69651718  0.82012504  1
  Si  Si30  1  0.29838326  0.99921539  0.25311406  1
  Si  Si31  1  0.70083213  0.99921539  0.75311406  1
  Si  Si32  1  0.67069404  0.62186506  0.58434685  1
  Si  Si33  1  0.95117202  0.62186506  0.08434685  1
  Si  Si34  1  0.33847012  0.97939972  0.92100669  1
  Si  Si35  1  0.64092859  0.97939972  0.42100669  1
  S  S36  1  0.70155935  0.70633701  0.25248451  1
  S  S37  1  0.00912363  0.29346592  0.24784616  1
  S  S38  1  0.28434229  0.29346592  0.74784616  1
  S  S39  1  0.00477766  0.70633701  0.75248451  1
  S  S40  1  0.96614814  0.33321054  0.58438323  1
  S  S41  1  0.36005496  0.03501937  0.58433598  1
  S  S42  1  0.67496541  0.03501937  0.08433598  1
  S  S43  1  0.36706341  0.33321054  0.08438323  1
  S  S44  1  0.61993827  0.65828553  0.91597856  1
  S  S45  1  0.05208252  0.38292484  0.91513446  1
  S  S46  1  0.33084132  0.38292484  0.41513446  1
  S  S47  1  0.03834626  0.65828553  0.41597856  1
  O  O48  1  0.20468257  0.00964985  0.31392378  1
  O  O49  1  0.80394231  0.78987247  0.30783291  1
  O  O50  1  0.98093748  0.17989533  0.29957066  1
  O  O51  1  0.19895785  0.17989533  0.79957066  1
  O  O52  1  0.98593016  0.78987247  0.80783291  1
  O  O53  1  0.80496728  0.00964985  0.81392378  1
  O  O54  1  0.78536749  0.95957758  0.69121002  1
  O  O55  1  0.18880775  0.20955869  0.68935789  1
  O  O56  1  0.04261767  0.82348069  0.69802670  1
  O  O57  1  0.78086302  0.82348069  0.19802670  1
  O  O58  1  0.02075093  0.20955869  0.18935789  1
  O  O59  1  0.17421010  0.95957758  0.19121002  1
  O  O60  1  0.88153721  0.34845213  0.63874486  1
  O  O61  1  0.47243555  0.11486451  0.63841939  1
  O  O62  1  0.64791875  0.50813648  0.64362228  1
  O  O63  1  0.86021873  0.50813648  0.14362228  1
  O  O64  1  0.64242995  0.11486451  0.13841939  1
  O  O65  1  0.46691592  0.34845213  0.13874486  1
  O  O66  1  0.44163263  0.29459227  0.02879185  1
  O  O67  1  0.83933729  0.52525431  0.02018228  1
  O  O68  1  0.69939663  0.14167348  0.02870526  1
  O  O69  1  0.44227785  0.14167348  0.52870526  1
  O  O70  1  0.68591801  0.52525431  0.52018228  1
  O  O71  1  0.85296063  0.29459227  0.52879185  1
  O  O72  1  0.52197782  0.66828075  0.96731918  1
  O  O73  1  0.13848628  0.45845247  0.97380853  1
  O  O74  1  0.30943672  0.85945981  0.97942158  1
  O  O75  1  0.55002209  0.85945981  0.47942158  1
  O  O76  1  0.31996519  0.45845247  0.47380853  1
  O  O77  1  0.14630193  0.66828075  0.46731918  1
  O  O78  1  0.11122363  0.63873454  0.35639277  1
  O  O79  1  0.51186253  0.89423215  0.35931111  1
  O  O80  1  0.34130692  0.49499175  0.36286549  1
  O  O81  1  0.15368383  0.49499175  0.86286549  1
  O  O82  1  0.38236863  0.89423215  0.85931111  1
  O  O83  1  0.52750990  0.63873454  0.85639277  1
  O  O84  1  0.02474411  0.81871067  0.41604546  1
  O  O85  1  0.82526700  0.98978032  0.41118913  1
  O  O86  1  0.18140590  0.20495988  0.41119989  1
  O  O87  1  0.02355398  0.20495988  0.91119989  1
  O  O88  1  0.16451332  0.98978032  0.91118913  1
  O  O89  1  0.79396656  0.81871067  0.91604546  1
  O  O90  1  0.99184919  0.17883751  0.58713236  1
  O  O91  1  0.19189737  0.03188097  0.59070214  1
  O  O92  1  0.84539293  0.82126179  0.58527403  1
  O  O93  1  0.97586886  0.82126179  0.08527403  1
  O  O94  1  0.83998361  0.03188097  0.09070214  1
  O  O95  1  0.18698832  0.17883751  0.08713236  1
  O  O96  1  0.66664033  0.16066181  0.74560789  1
  O  O97  1  0.46302666  0.31887932  0.74565018  1
  O  O98  1  0.84436045  0.53820689  0.74446811  1
  O  O99  1  0.69384744  0.53820689  0.24446811  1
  O  O100  1  0.85585366  0.31887932  0.24565018  1
  O  O101  1  0.49402248  0.16066181  0.24560789  1
  O  O102  1  0.64617410  0.50556278  0.91787421  1
  O  O103  1  0.87937420  0.37191164  0.91241200  1
  O  O104  1  0.52702639  0.16865406  0.92685978  1
  O  O105  1  0.64162867  0.16865406  0.42685978  1
  O  O106  1  0.49253844  0.37191164  0.41241200  1
  O  O107  1  0.85938968  0.50556278  0.41787421  1
  O  O108  1  0.35341915  0.49032816  0.07701289  1
  O  O109  1  0.14604147  0.64515510  0.08111157  1
  O  O110  1  0.52581211  0.85717076  0.07803447  1
  O  O111  1  0.33135765  0.85717076  0.57803447  1
  O  O112  1  0.49911263  0.64515510  0.58111157  1
  O  O113  1  0.13690802  0.49032816  0.57701289  1
  O  O114  1  0.31120369  0.81373756  0.25324690  1
  O  O115  1  0.52546603  0.68417718  0.25599933  1
  O  O116  1  0.16785889  0.46664541  0.25299724  1
  O  O117  1  0.29878552  0.46664541  0.75299724  1
  O  O118  1  0.15871015  0.68417718  0.75599933  1
  O  O119  1  0.50253287  0.81373756  0.75324690  1
