# generated using pymatgen
data_W(S4Cl3)2
_symmetry_space_group_name_H-M   'P 1'
_cell_length_a   8.08000456
_cell_length_b   8.07939785
_cell_length_c   12.98539558
_cell_angle_alpha   96.97489383
_cell_angle_beta   100.50861270
_cell_angle_gamma   90.14721677
_symmetry_Int_Tables_number   1
_chemical_formula_structural   W(S4Cl3)2
_chemical_formula_sum   'W2 S16 Cl12'
_cell_volume   827.05522683
_cell_formula_units_Z   2
loop_
 _symmetry_equiv_pos_site_id
 _symmetry_equiv_pos_as_xyz
  1  'x, y, z'
loop_
 _atom_site_type_symbol
 _atom_site_label
 _atom_site_symmetry_multiplicity
 _atom_site_fract_x
 _atom_site_fract_y
 _atom_site_fract_z
 _atom_site_occupancy
  W  W0  1  0.71230521  0.22411337  0.89188748  1
  W  W1  1  0.28769479  0.77588663  0.10811252  1
  S  S2  1  0.44055703  0.75583680  0.65985240  1
  S  S3  1  0.55944297  0.24416320  0.34014760  1
  S  S4  1  0.27248894  0.90848795  0.58209341  1
  S  S5  1  0.72751106  0.09151205  0.41790659  1
  S  S6  1  0.08873257  0.97017837  0.66898078  1
  S  S7  1  0.91126743  0.02982163  0.33101922  1
  S  S8  1  0.88307276  0.81492322  0.61322479  1
  S  S9  1  0.11692724  0.18507678  0.38677521  1
  S  S10  1  0.89078024  0.62427171  0.70504074  1
  S  S11  1  0.10921976  0.37572829  0.29495926  1
  S  S12  1  0.99002231  0.41999533  0.63166395  1
  S  S13  1  0.00997769  0.58000467  0.36833605  1
  S  S14  1  0.24034446  0.41109786  0.69572823  1
  S  S15  1  0.75965554  0.58890214  0.30427177  1
  S  S16  1  0.62226125  0.48727864  0.40007373  1
  S  S17  1  0.37773875  0.51272136  0.59992627  1
  Cl  Cl18  1  0.75603857  0.25621369  0.07237670  1
  Cl  Cl19  1  0.24396143  0.74378631  0.92762330  1
  Cl  Cl20  1  0.66470177  0.18985559  0.71062470  1
  Cl  Cl21  1  0.33529823  0.81014441  0.28937530  1
  Cl  Cl22  1  0.43986136  0.13645612  0.88686617  1
  Cl  Cl23  1  0.56013864  0.86354388  0.11313383  1
  Cl  Cl24  1  0.62742555  0.49530642  0.89163063  1
  Cl  Cl25  1  0.37257445  0.50469358  0.10836937  1
  Cl  Cl26  1  0.98464683  0.31187381  0.89653669  1
  Cl  Cl27  1  0.01535317  0.68812619  0.10346331  1
  Cl  Cl28  1  0.79973104  0.95352236  0.89179959  1
  Cl  Cl29  1  0.20026896  0.04647764  0.10820041  1
