# generated using pymatgen
data_K2NaMgVOF5
_symmetry_space_group_name_H-M   'P 1'
_cell_length_a   6.59396302
_cell_length_b   6.69406931
_cell_length_c   6.15846661
_cell_angle_alpha   61.56718580
_cell_angle_beta   63.21786106
_cell_angle_gamma   55.55323016
_symmetry_Int_Tables_number   1
_chemical_formula_structural   K2NaMgVOF5
_chemical_formula_sum   'K2 Na1 Mg1 V1 O1 F5'
_cell_volume   190.87204895
_cell_formula_units_Z   1
loop_
 _symmetry_equiv_pos_site_id
 _symmetry_equiv_pos_as_xyz
  1  'x, y, z'
loop_
 _atom_site_type_symbol
 _atom_site_label
 _atom_site_symmetry_multiplicity
 _atom_site_fract_x
 _atom_site_fract_y
 _atom_site_fract_z
 _atom_site_occupancy
  K  K0  1  0.25073426  0.37210382  0.26605232  1
  K  K1  1  0.62789618  0.74926574  0.88888940  1
  Na  Na2  1  0.50487939  0.49512061  0.50275148  1
  Mg  Mg3  1  0.02659406  0.97340594  0.47134461  1
  V  V4  1  0.00862362  0.99137638  0.99175827  1
  O  O5  1  0.23068907  0.76931093  0.25392939  1
  F  F6  1  0.22564911  0.20435477  0.76003581  1
  F  F7  1  0.77809681  0.22190319  0.25429950  1
  F  F8  1  0.23094799  0.76905201  0.72932576  1
  F  F9  1  0.79564523  0.77435089  0.19003869  1
  F  F10  1  0.80982727  0.19017273  0.69157377  1
