# generated using pymatgen
data_KMgNiIO6
_symmetry_space_group_name_H-M   'P 1'
_cell_length_a   5.43935331
_cell_length_b   5.43934746
_cell_length_c   5.44346016
_cell_angle_alpha   90.01411189
_cell_angle_beta   90.01430306
_cell_angle_gamma   119.96412756
_symmetry_Int_Tables_number   1
_chemical_formula_structural   KMgNiIO6
_chemical_formula_sum   'K1 Mg1 Ni1 I1 O6'
_cell_volume   139.52645842
_cell_formula_units_Z   1
loop_
 _symmetry_equiv_pos_site_id
 _symmetry_equiv_pos_as_xyz
  1  'x, y, z'
loop_
 _atom_site_type_symbol
 _atom_site_label
 _atom_site_symmetry_multiplicity
 _atom_site_fract_x
 _atom_site_fract_y
 _atom_site_fract_z
 _atom_site_occupancy
  K  K0  1  0.99949600  0.00049400  0.00002500  1
  Mg  Mg1  1  0.66584500  0.33415000  0.99998500  1
  Ni  Ni2  1  0.33298900  0.66701100  0.50000500  1
  I  I3  1  0.66641600  0.33359300  0.50005900  1
  O  O4  1  0.41529700  0.03534700  0.71561600  1
  O  O5  1  0.96510600  0.38119800  0.71553600  1
  O  O6  1  0.61905900  0.58516800  0.71542600  1
  O  O7  1  0.96467300  0.58469200  0.28436100  1
  O  O8  1  0.61877500  0.03487600  0.28444000  1
  O  O9  1  0.41484400  0.38097100  0.28454900  1
