# generated using pymatgen
data_Na6Ca2Zn2SiS5O24
_symmetry_space_group_name_H-M   'P 1'
_cell_length_a   9.26071410
_cell_length_b   9.22771919
_cell_length_c   22.79270376
_cell_angle_alpha   89.46187592
_cell_angle_beta   90.16806985
_cell_angle_gamma   120.02183854
_symmetry_Int_Tables_number   1
_chemical_formula_structural   Na6Ca2Zn2SiS5O24
_chemical_formula_sum   'Na18 Ca6 Zn6 Si3 S15 O72'
_cell_volume   1686.35751948
_cell_formula_units_Z   3
loop_
 _symmetry_equiv_pos_site_id
 _symmetry_equiv_pos_as_xyz
  1  'x, y, z'
loop_
 _atom_site_type_symbol
 _atom_site_label
 _atom_site_symmetry_multiplicity
 _atom_site_fract_x
 _atom_site_fract_y
 _atom_site_fract_z
 _atom_site_occupancy
  Na  Na0  1  0.62809552  -0.00033682  0.24597019  1
  Na  Na1  1  0.36235247  0.34649011  0.25119023  1
  Na  Na2  1  0.01136739  0.64725539  0.24104565  1
  Na  Na3  1  0.63919923  0.65349565  0.74042408  1
  Na  Na4  1  0.98086222  0.34123586  0.76021920  1
  Na  Na5  1  0.38113378  0.99881445  0.75601388  1
  Na  Na6  1  0.33038184  0.35451519  0.58586630  1
  Na  Na7  1  0.00481494  0.69178562  0.57717765  1
  Na  Na8  1  0.67227573  0.95678914  0.59214974  1
  Na  Na9  1  0.29404323  0.96222759  0.08798394  1
  Na  Na10  1  0.70103080  0.03109119  0.91326676  1
  Na  Na11  1  0.69777451  0.66470425  0.42461052  1
  Na  Na12  1  0.99498156  0.99741766  0.49886360  1
  Na  Na13  1  0.99889726  0.99874980  0.00123043  1
  Na  Na14  1  0.66626427  0.33184572  0.83974120  1
  Na  Na15  1  0.64596702  0.30434402  0.32897942  1
  Na  Na16  1  0.33233073  0.66332377  0.16365514  1
  Na  Na17  1  0.36935907  0.68314215  0.66837511  1
  Ca  Ca18  1  0.01767054  0.00978106  0.34522596  1
  Ca  Ca19  1  0.98808735  0.99227105  0.65397097  1
  Ca  Ca20  1  0.66698953  0.33432414  0.68360152  1
  Ca  Ca21  1  0.66547898  0.33118954  0.48016801  1
  Ca  Ca22  1  0.33564083  0.67009748  0.51223914  1
  Ca  Ca23  1  0.33719774  0.66440215  0.82702115  1
  Zn  Zn24  1  0.98855618  0.99775516  0.84869402  1
  Zn  Zn25  1  0.01115218  0.99569800  0.15715284  1
  Zn  Zn26  1  0.65446713  0.32217148  0.17453413  1
  Zn  Zn27  1  0.67150382  0.34349938  0.99059720  1
  Zn  Zn28  1  0.32962826  0.65095156  0.01319152  1
  Zn  Zn29  1  0.32870326  0.68800595  0.31734205  1
  Si  Si30  1  0.31007649  0.00368163  0.24349145  1
  Si  Si31  1  0.69515029  0.99973786  0.75478851  1
  Si  Si32  1  0.66757949  0.64216066  0.58160568  1
  S  S33  1  0.70051816  0.69955246  0.24885277  1
  S  S34  1  0.99875850  0.29948584  0.24578768  1
  S  S35  1  0.29465216  0.29397693  0.75260668  1
  S  S36  1  0.00370461  0.70316956  0.75373299  1
  S  S37  1  0.97286019  0.33591932  0.58477709  1
  S  S38  1  0.36070115  0.02874243  0.58476278  1
  S  S39  1  0.96280734  0.62819359  0.08393602  1
  S  S40  1  0.66638074  0.03261441  0.08160570  1
  S  S41  1  0.37075616  0.33621701  0.08239870  1
  S  S42  1  0.63847689  0.66319892  0.92049460  1
  S  S43  1  0.02328199  0.35958527  0.92008280  1
  S  S44  1  0.33381448  0.97505621  0.92069652  1
  S  S45  1  0.63706862  0.96704788  0.41211198  1
  S  S46  1  0.33336612  0.37439133  0.41242028  1
  S  S47  1  0.02721450  0.66348746  0.41351450  1
  O  O48  1  0.23276090  0.05459850  0.29744643  1
  O  O49  1  0.79274611  0.76996970  0.30435561  1
  O  O50  1  0.96020077  0.19536291  0.29950399  1
  O  O51  1  0.20239595  0.18092447  0.80201551  1
  O  O52  1  0.99400967  0.80076896  0.80286502  1
  O  O53  1  0.81493999  0.02177555  0.81190858  1
  O  O54  1  0.77327615  0.98043404  0.69312749  1
  O  O55  1  0.21320218  0.22381214  0.69544029  1
  O  O56  1  0.02966737  0.79338708  0.69687014  1
  O  O57  1  0.78574544  0.81832572  0.19915522  1
  O  O58  1  0.02154113  0.21298548  0.19484737  1
  O  O59  1  0.18880737  0.95941406  0.18513212  1
  O  O60  1  0.89594017  0.34544381  0.64045264  1
  O  O61  1  0.45581903  0.09920918  0.63973318  1
  O  O62  1  0.64761811  0.53720741  0.64242064  1
  O  O63  1  0.88250296  0.53246742  0.13933578  1
  O  O64  1  0.64255810  0.11319751  0.13506330  1
  O  O65  1  0.46483738  0.36074211  0.13867344  1
  O  O66  1  0.46100816  0.31203261  0.03307287  1
  O  O67  1  0.86256786  0.53958001  0.03222601  1
  O  O68  1  0.68651272  0.13629011  0.02818329  1
  O  O69  1  0.45449890  0.13019960  0.53357781  1
  O  O70  1  0.68252957  0.54641535  0.52371241  1
  O  O71  1  0.86027515  0.30806701  0.53494683  1
  O  O72  1  0.54023890  0.68746950  0.96753892  1
  O  O73  1  0.13517741  0.45940087  0.96832981  1
  O  O74  1  0.31282489  0.86545298  0.97266768  1
  O  O75  1  0.55385620  0.87762803  0.46715722  1
  O  O76  1  0.33036631  0.45295527  0.46857166  1
  O  O77  1  0.11219781  0.66935455  0.46921972  1
  O  O78  1  0.12256545  0.66172787  0.36154606  1
  O  O79  1  0.53766785  0.87569301  0.35952261  1
  O  O80  1  0.33941896  0.47928491  0.36097605  1
  O  O81  1  0.08949665  0.44361635  0.86241589  1
  O  O82  1  0.35911049  0.90029959  0.86621197  1
  O  O83  1  0.55310786  0.64005085  0.86302723  1
  O  O84  1  0.00326701  0.81202467  0.41272774  1
  O  O85  1  0.80028930  0.97166512  0.41124198  1
  O  O86  1  0.18489515  0.20557843  0.41239362  1
  O  O87  1  0.00657416  0.18919393  0.92054724  1
  O  O88  1  0.18478518  0.99485742  0.91485944  1
  O  O89  1  0.80493914  0.82203766  0.91894286  1
  O  O90  1  0.00962805  0.19622891  0.58566894  1
  O  O91  1  0.19819458  0.02477882  0.58593240  1
  O  O92  1  0.83892130  0.82815359  0.57937523  1
  O  O93  1  0.98166290  0.79954807  0.08523099  1
  O  O94  1  0.81347490  0.01088921  0.08798501  1
  O  O95  1  0.20365740  0.17952036  0.08579712  1
  O  O96  1  0.67759987  0.16942909  0.75655574  1
  O  O97  1  0.46694708  0.31920410  0.75315979  1
  O  O98  1  0.84552079  0.53809220  0.75271782  1
  O  O99  1  0.69137790  0.53429330  0.24069943  1
  O  O100  1  0.85669810  0.33167050  0.23775413  1
  O  O101  1  0.50267342  0.16837764  0.23652656  1
  O  O102  1  0.65797119  0.51464597  0.93009778  1
  O  O103  1  0.85117647  0.33668555  0.92632604  1
  O  O104  1  0.49229877  0.14096832  0.92645633  1
  O  O105  1  0.65878056  0.13698571  0.41126573  1
  O  O106  1  0.49050240  0.36482523  0.40984033  1
  O  O107  1  0.85860852  0.51108690  0.41073197  1
  O  O108  1  0.35113340  0.48653555  0.07452527  1
  O  O109  1  0.13628839  0.65102075  0.08034706  1
  O  O110  1  0.50562781  0.86611480  0.07722633  1
  O  O111  1  0.32906538  0.85437072  0.58067553  1
  O  O112  1  0.49988511  0.66306915  0.58175905  1
  O  O113  1  0.13349345  0.49634546  0.57906478  1
  O  O114  1  0.32425014  0.82997726  0.25245232  1
  O  O115  1  0.52695892  0.67253300  0.25229578  1
  O  O116  1  0.15739678  0.46506329  0.25194806  1
  O  O117  1  0.30393593  0.45986424  0.75761173  1
  O  O118  1  0.14651800  0.67260439  0.75981259  1
  O  O119  1  0.50827142  0.82962574  0.75669422  1
