# generated using pymatgen
data_Rb3TlO3
_symmetry_space_group_name_H-M   'P 1'
_cell_length_a   7.15476624
_cell_length_b   7.82907322
_cell_length_c   11.51133910
_cell_angle_alpha   86.39357345
_cell_angle_beta   90.00000000
_cell_angle_gamma   90.00000000
_symmetry_Int_Tables_number   1
_chemical_formula_structural   Rb3TlO3
_chemical_formula_sum   'Rb12 Tl4 O12'
_cell_volume   643.53290243
_cell_formula_units_Z   4
loop_
 _symmetry_equiv_pos_site_id
 _symmetry_equiv_pos_as_xyz
  1  'x, y, z'
loop_
 _atom_site_type_symbol
 _atom_site_label
 _atom_site_symmetry_multiplicity
 _atom_site_fract_x
 _atom_site_fract_y
 _atom_site_fract_z
 _atom_site_occupancy
  Rb  Rb0  1  0.86827150  0.94125494  0.65558080  1
  Rb  Rb1  1  0.63172850  0.94125494  0.15558080  1
  Rb  Rb2  1  0.18224058  0.35957964  0.57541238  1
  Rb  Rb3  1  0.29925911  0.63155461  0.31004789  1
  Rb  Rb4  1  0.79925911  0.36844539  0.18995211  1
  Rb  Rb5  1  0.70074089  0.36844539  0.68995211  1
  Rb  Rb6  1  0.20074089  0.63155461  0.81004789  1
  Rb  Rb7  1  0.31775942  0.35957964  0.07541238  1
  Rb  Rb8  1  0.81775942  0.64042036  0.42458762  1
  Rb  Rb9  1  0.68224058  0.64042036  0.92458762  1
  Rb  Rb10  1  0.36827150  0.05874506  0.84441920  1
  Rb  Rb11  1  0.13172850  0.05874506  0.34441920  1
  Tl  Tl12  1  0.40538531  0.83462939  0.57004942  1
  Tl  Tl13  1  0.59461469  0.16537061  0.42995058  1
  Tl  Tl14  1  0.09461469  0.83462939  0.07004942  1
  Tl  Tl15  1  0.90538531  0.16537061  0.92995058  1
  O  O16  1  0.93398958  0.69080499  0.19614386  1
  O  O17  1  0.96232657  0.89079465  0.89492026  1
  O  O18  1  0.46232657  0.10920535  0.60507974  1
  O  O19  1  0.36692569  0.74060684  0.03724001  1
  O  O20  1  0.86692569  0.25939316  0.46275999  1
  O  O21  1  0.63307431  0.25939316  0.96275999  1
  O  O22  1  0.13307431  0.74060684  0.53724001  1
  O  O23  1  0.56601042  0.69080499  0.69614386  1
  O  O24  1  0.03767343  0.10920535  0.10507974  1
  O  O25  1  0.06601042  0.30919501  0.80385614  1
  O  O26  1  0.43398958  0.30919501  0.30385614  1
  O  O27  1  0.53767343  0.89079465  0.39492026  1
