# generated using pymatgen
data_Na7Y2Ta2Si5PO24
_symmetry_space_group_name_H-M   'P 1'
_cell_length_a   9.30260951
_cell_length_b   9.31546901
_cell_length_c   22.53193718
_cell_angle_alpha   90.15092975
_cell_angle_beta   89.87702455
_cell_angle_gamma   119.93194285
_symmetry_Int_Tables_number   1
_chemical_formula_structural   Na7Y2Ta2Si5PO24
_chemical_formula_sum   'Na21 Y6 Ta6 Si15 P3 O72'
_cell_volume   1692.13262591
_cell_formula_units_Z   3
loop_
 _symmetry_equiv_pos_site_id
 _symmetry_equiv_pos_as_xyz
  1  'x, y, z'
loop_
 _atom_site_type_symbol
 _atom_site_label
 _atom_site_symmetry_multiplicity
 _atom_site_fract_x
 _atom_site_fract_y
 _atom_site_fract_z
 _atom_site_occupancy
  Na  Na0  1  0.65612623  0.01814388  0.24985675  1
  Na  Na1  1  0.36917767  0.35651412  0.24537314  1
  Na  Na2  1  0.98421347  0.63023730  0.24541024  1
  Na  Na3  1  0.64067837  0.62739726  0.74717428  1
  Na  Na4  1  0.98362890  0.34873093  0.74656261  1
  Na  Na5  1  0.36727579  0.01734834  0.74582962  1
  Na  Na6  1  0.31465195  0.34516364  0.58151019  1
  Na  Na7  1  0.03573437  0.69181010  0.57778876  1
  Na  Na8  1  0.65210184  0.96108410  0.57909651  1
  Na  Na9  1  0.30127025  0.96426819  0.07365727  1
  Na  Na10  1  0.03495295  0.34907437  0.08002149  1
  Na  Na11  1  0.98692683  0.68175670  0.91254537  1
  Na  Na12  1  0.31566578  0.28928257  0.91234274  1
  Na  Na13  1  0.32011308  0.01909861  0.41222445  1
  Na  Na14  1  0.70912669  0.68114544  0.41161516  1
  Na  Na15  1  0.99029628  0.00473672  0.49601206  1
  Na  Na16  1  0.98124849  0.99899279  0.99739998  1
  Na  Na17  1  0.66789796  0.31837748  0.83056185  1
  Na  Na18  1  0.68030036  0.33281889  0.33110164  1
  Na  Na19  1  0.34053914  0.65535123  0.16229258  1
  Na  Na20  1  0.33556733  0.66616532  0.66191957  1
  Y  Y21  1  0.99915976  0.00612614  0.35121028  1
  Y  Y22  1  0.99434449  0.00169096  0.85232326  1
  Y  Y23  1  0.66749957  0.33383289  0.68254162  1
  Y  Y24  1  0.66583377  0.33805740  0.18188287  1
  Y  Y25  1  0.33891449  0.66630918  0.01842726  1
  Y  Y26  1  0.33134763  0.66554905  0.51529785  1
  Ta  Ta27  1  0.99827734  0.99807800  0.64722881  1
  Ta  Ta28  1  0.00244968  0.99757437  0.14768656  1
  Ta  Ta29  1  0.66569673  0.33404399  0.98105752  1
  Ta  Ta30  1  0.67345807  0.33246200  0.48130396  1
  Ta  Ta31  1  0.32861377  0.66854915  0.31385109  1
  Ta  Ta32  1  0.32962626  0.66975885  0.81343291  1
  Si  Si33  1  0.29463998  0.99135278  0.25170259  1
  Si  Si34  1  0.69916086  0.70945153  0.25215094  1
  Si  Si35  1  0.00841876  0.30159304  0.24749054  1
  Si  Si36  1  0.29112819  0.30101902  0.75177801  1
  Si  Si37  1  0.00840543  0.70757662  0.75199929  1
  Si  Si38  1  0.69685744  0.99004771  0.74873381  1
  Si  Si39  1  0.96214851  0.32189634  0.58519975  1
  Si  Si40  1  0.36252383  0.03938808  0.58322600  1
  Si  Si41  1  0.67643974  0.63600681  0.58407261  1
  Si  Si42  1  0.95979086  0.63880938  0.08372569  1
  Si  Si43  1  0.35958047  0.32278599  0.08566222  1
  Si  Si44  1  0.02949966  0.37476075  0.91925928  1
  Si  Si45  1  0.34578341  0.97000175  0.91913788  1
  Si  Si46  1  0.62655109  0.97141270  0.41865461  1
  Si  Si47  1  0.02733021  0.65502738  0.41844165  1
  P  P48  1  0.68179245  0.04760482  0.08367633  1
  P  P49  1  0.62130730  0.65031208  0.91513086  1
  P  P50  1  0.34941545  0.37733224  0.41654654  1
  O  O51  1  0.22315823  0.02528692  0.31123565  1
  O  O52  1  0.80545230  0.77868990  0.31181898  1
  O  O53  1  0.96474331  0.17830137  0.30179324  1
  O  O54  1  0.21818708  0.19281846  0.81069321  1
  O  O55  1  0.98196777  0.78291370  0.81187517  1
  O  O56  1  0.82015046  0.03326898  0.80296059  1
  O  O57  1  0.79739792  0.96617320  0.68934950  1
  O  O58  1  0.16170571  0.19343356  0.69394768  1
  O  O59  1  0.02873485  0.83488301  0.69451894  1
  O  O60  1  0.81047229  0.84363413  0.19645274  1
  O  O61  1  0.03250889  0.20233383  0.18795545  1
  O  O62  1  0.16450556  0.97129023  0.19471122  1
  O  O63  1  0.89273886  0.35671822  0.64546428  1
  O  O64  1  0.46802461  0.11395445  0.64286984  1
  O  O65  1  0.64592869  0.53439459  0.64454437  1
  O  O66  1  0.88880028  0.53189253  0.14321648  1
  O  O67  1  0.66106507  0.11728233  0.14230484  1
  O  O68  1  0.44816224  0.33179529  0.14733865  1
  O  O69  1  0.47509661  0.30830216  0.02907163  1
  O  O70  1  0.83392359  0.52708735  0.02646045  1
  O  O71  1  0.69739306  0.17230825  0.03165130  1
  O  O72  1  0.47072742  0.16830075  0.52601648  1
  O  O73  1  0.69321292  0.52442757  0.52722609  1
  O  O74  1  0.82871160  0.30478099  0.52972603  1
  O  O75  1  0.54299999  0.67193495  0.97054450  1
  O  O76  1  0.13048701  0.45841710  0.97893580  1
  O  O77  1  0.32038632  0.86666897  0.97841551  1
  O  O78  1  0.54743703  0.87413707  0.47941671  1
  O  O79  1  0.33114779  0.44956030  0.47489940  1
  O  O80  1  0.12616850  0.67764209  0.47893841  1
  O  O81  1  0.13879133  0.63933211  0.36104301  1
  O  O82  1  0.49370441  0.85702150  0.36213698  1
  O  O83  1  0.36028606  0.49334446  0.36287462  1
  O  O84  1  0.14212727  0.50560734  0.86181337  1
  O  O85  1  0.36231300  0.85974180  0.86112177  1
  O  O86  1  0.51051531  0.63336656  0.85916426  1
  O  O87  1  0.00572505  0.81669642  0.41356433  1
  O  O88  1  0.80654288  0.98813880  0.41391486  1
  O  O89  1  0.20699099  0.19831970  0.41171214  1
  O  O90  1  0.01310413  0.19489829  0.91506030  1
  O  O91  1  0.18527583  0.99398386  0.91387321  1
  O  O92  1  0.80234605  0.78900470  0.91116016  1
  O  O93  1  0.95729340  0.14124831  0.58705673  1
  O  O94  1  0.18355463  0.03991910  0.58795767  1
  O  O95  1  0.85639729  0.81360894  0.58719836  1
  O  O96  1  0.96538152  0.82055587  0.08928254  1
  O  O97  1  0.84900454  0.04590652  0.08396191  1
  O  O98  1  0.17858958  0.14239234  0.08576782  1
  O  O99  1  0.65575103  0.13926916  0.74507792  1
  O  O100  1  0.47910441  0.33567680  0.74560697  1
  O  O101  1  0.85778161  0.51890110  0.74688027  1
  O  O102  1  0.66375723  0.52154865  0.24491356  1
  O  O103  1  0.85846584  0.34192625  0.24424715  1
  O  O104  1  0.48512348  0.13653307  0.24453745  1
  O  O105  1  0.62082307  0.47955843  0.91976862  1
  O  O106  1  0.84946891  0.37459529  0.92177069  1
  O  O107  1  0.51654952  0.15637437  0.92397146  1
  O  O108  1  0.62456862  0.14997490  0.42077349  1
  O  O109  1  0.51905005  0.37812660  0.41731654  1
  O  O110  1  0.84189720  0.48394055  0.42173296  1
  O  O111  1  0.32264620  0.47413806  0.08228752  1
  O  O112  1  0.14950664  0.67537930  0.07914247  1
  O  O113  1  0.53069472  0.87670442  0.07602118  1
  O  O114  1  0.32710110  0.85066944  0.57907595  1
  O  O115  1  0.52206877  0.66906838  0.57862397  1
  O  O116  1  0.15098540  0.47146672  0.57804038  1
  O  O117  1  0.28915776  0.80823343  0.25593950  1
  O  O118  1  0.51824335  0.70705921  0.25686856  1
  O  O119  1  0.18922717  0.47869651  0.25653592  1
  O  O120  1  0.29189518  0.48073306  0.75631445  1
  O  O121  1  0.19002142  0.70836561  0.75546812  1
  O  O122  1  0.51995013  0.80946585  0.75627191  1
