# generated using pymatgen
data_MgFe12(OF)12
_symmetry_space_group_name_H-M   'P 1'
_cell_length_a   9.81396147
_cell_length_b   14.54891376
_cell_length_c   3.09880600
_cell_angle_alpha   90.00000000
_cell_angle_beta   90.00000000
_cell_angle_gamma   90.95054250
_symmetry_Int_Tables_number   1
_chemical_formula_structural   MgFe12(OF)12
_chemical_formula_sum   'Mg1 Fe12 O12 F12'
_cell_volume   442.39431545
_cell_formula_units_Z   1
loop_
 _symmetry_equiv_pos_site_id
 _symmetry_equiv_pos_as_xyz
  1  'x, y, z'
loop_
 _atom_site_type_symbol
 _atom_site_label
 _atom_site_symmetry_multiplicity
 _atom_site_fract_x
 _atom_site_fract_y
 _atom_site_fract_z
 _atom_site_occupancy
  Mg  Mg0  1  0.75266000  0.32317500  0.50000000  1
  Fe  Fe1  1  0.03083200  0.99866100  0.00000000  1
  Fe  Fe2  1  0.04380500  0.33361600  0.00000000  1
  Fe  Fe3  1  0.99899700  0.66988700  0.00000000  1
  Fe  Fe4  1  0.23578500  0.16528000  0.50000000  1
  Fe  Fe5  1  0.24853300  0.49691700  0.50000000  1
  Fe  Fe6  1  0.25540300  0.84832500  0.50000000  1
  Fe  Fe7  1  0.48409300  0.35497900  0.00000000  1
  Fe  Fe8  1  0.49569200  0.99191300  0.00000000  1
  Fe  Fe9  1  0.50742000  0.67134400  0.00000000  1
  Fe  Fe10  1  0.73453400  0.06234700  0.50000000  1
  Fe  Fe11  1  0.71976400  0.51475300  0.50000000  1
  Fe  Fe12  1  0.72810100  0.82938700  0.50000000  1
  O  O13  1  0.10919100  0.26918200  0.50000000  1
  O  O14  1  0.10475000  0.92881400  0.50000000  1
  O  O15  1  0.16759900  0.10142600  0.00000000  1
  O  O16  1  0.15946300  0.44208300  0.00000000  1
  O  O17  1  0.35652300  0.89842000  0.00000000  1
  O  O18  1  0.40442100  0.41377200  0.50000000  1
  O  O19  1  0.61349800  0.94653000  0.50000000  1
  O  O20  1  0.57604700  0.60808400  0.50000000  1
  O  O21  1  0.63933800  0.09849100  0.00000000  1
  O  O22  1  0.67195300  0.40828900  0.00000000  1
  O  O23  1  0.64137800  0.77352900  0.00000000  1
  O  O24  1  0.92042200  0.05110400  0.50000000  1
  F  F25  1  0.10350900  0.60329000  0.50000000  1
  F  F26  1  0.16244400  0.76937200  0.00000000  1
  F  F27  1  0.34763100  0.23694400  0.00000000  1
  F  F28  1  0.33602100  0.57712700  0.00000000  1
  F  F29  1  0.40297200  0.06558200  0.50000000  1
  F  F30  1  0.39195900  0.73447300  0.50000000  1
  F  F31  1  0.56782800  0.27121700  0.50000000  1
  F  F32  1  0.84777900  0.26211400  0.00000000  1
  F  F33  1  0.83974000  0.89257800  0.00000000  1
  F  F34  1  0.84493000  0.56895600  0.00000000  1
  F  F35  1  0.92420200  0.39928600  0.50000000  1
  F  F36  1  0.89364200  0.73819500  0.50000000  1
