# generated using pymatgen
data_MgFe4(PO4)4
_symmetry_space_group_name_H-M   'P 1'
_cell_length_a   10.16436958
_cell_length_b   5.98995136
_cell_length_c   4.88591314
_cell_angle_alpha   89.53644729
_cell_angle_beta   87.76145571
_cell_angle_gamma   90.07809552
_symmetry_Int_Tables_number   1
_chemical_formula_structural   MgFe4(PO4)4
_chemical_formula_sum   'Mg1 Fe4 P4 O16'
_cell_volume   297.23716278
_cell_formula_units_Z   1
loop_
 _symmetry_equiv_pos_site_id
 _symmetry_equiv_pos_as_xyz
  1  'x, y, z'
loop_
 _atom_site_type_symbol
 _atom_site_label
 _atom_site_symmetry_multiplicity
 _atom_site_fract_x
 _atom_site_fract_y
 _atom_site_fract_z
 _atom_site_occupancy
  Mg  Mg0  1  0.99999700  0.00000300  0.00000200  1
  Fe  Fe1  1  0.76485300  0.25573400  0.52000300  1
  Fe  Fe2  1  0.70912000  0.74603500  0.03093500  1
  Fe  Fe3  1  0.29088500  0.25395700  0.96906300  1
  Fe  Fe4  1  0.23514300  0.74427000  0.47999600  1
  P  P5  1  0.09898900  0.24559700  0.41001900  1
  P  P6  1  0.40603300  0.75330100  0.91974900  1
  P  P7  1  0.59396400  0.24668800  0.08026900  1
  P  P8  1  0.90101300  0.75441400  0.58997600  1
  O  O9  1  0.55263100  0.75174600  0.82360400  1
  O  O10  1  0.88808900  0.77383600  0.27624300  1
  O  O11  1  0.83809000  0.95963500  0.75626200  1
  O  O12  1  0.82157100  0.55910400  0.72326400  1
  O  O13  1  0.04573000  0.75930900  0.67876300  1
  O  O14  1  0.11191500  0.22617000  0.72376200  1
  O  O15  1  0.16191500  0.04036700  0.24373700  1
  O  O16  1  0.17843200  0.44090300  0.27673500  1
  O  O17  1  0.33208400  0.54719700  0.79129800  1
  O  O18  1  0.66791400  0.45280000  0.20869700  1
  O  O19  1  0.39272900  0.75261300  0.22874900  1
  O  O20  1  0.44736600  0.24824700  0.17639600  1
  O  O21  1  0.95427300  0.24069600  0.32124100  1
  O  O22  1  0.60726600  0.24738100  0.77123800  1
  O  O23  1  0.66746400  0.04205800  0.21345400  1
  O  O24  1  0.33253500  0.95793400  0.78654600  1
