# generated using pymatgen
data_Na2CuH6C2O9
_symmetry_space_group_name_H-M   'P 1'
_cell_length_a   6.05383861
_cell_length_b   9.66807994
_cell_length_c   16.29965248
_cell_angle_alpha   55.79396645
_cell_angle_beta   90.00000471
_cell_angle_gamma   90.00006529
_symmetry_Int_Tables_number   1
_chemical_formula_structural   Na2CuH6C2O9
_chemical_formula_sum   'Na8 Cu4 H24 C8 O36'
_cell_volume   788.98028866
_cell_formula_units_Z   4
loop_
 _symmetry_equiv_pos_site_id
 _symmetry_equiv_pos_as_xyz
  1  'x, y, z'
loop_
 _atom_site_type_symbol
 _atom_site_label
 _atom_site_symmetry_multiplicity
 _atom_site_fract_x
 _atom_site_fract_y
 _atom_site_fract_z
 _atom_site_occupancy
  Na  Na0  1  0.23863365  0.96419087  0.69991400  1
  Na  Na1  1  0.73863407  0.03580945  0.80008588  1
  Na  Na2  1  0.76136635  0.03580913  0.30008600  1
  Na  Na3  1  0.26136593  0.96419055  0.19991412  1
  Na  Na4  1  0.51814919  0.29639387  0.09713503  1
  Na  Na5  1  0.01814866  0.70360582  0.40286489  1
  Na  Na6  1  0.48185081  0.70360613  0.90286497  1
  Na  Na7  1  0.98185134  0.29639418  0.59713511  1
  Cu  Cu8  1  0.50698255  0.70147264  0.67724852  1
  Cu  Cu9  1  0.00698132  0.29852752  0.82275148  1
  Cu  Cu10  1  0.49301745  0.29852736  0.32275148  1
  Cu  Cu11  1  0.99301868  0.70147248  0.17724852  1
  H  H12  1  0.45411832  0.27824368  0.61011702  1
  H  H13  1  0.95411803  0.72175580  0.88988362  1
  H  H14  1  0.54588168  0.72175632  0.38988298  1
  H  H15  1  0.04588197  0.27824420  0.11011638  1
  H  H16  1  0.39423969  0.29489356  0.51180547  1
  H  H17  1  0.89424204  0.70510605  0.98819510  1
  H  H18  1  0.60576031  0.70510644  0.48819453  1
  H  H19  1  0.10575796  0.29489395  0.01180490  1
  H  H20  1  0.52238800  0.43554041  0.88006371  1
  H  H21  1  0.02238765  0.56445924  0.61993625  1
  H  H22  1  0.47761200  0.56445959  0.11993629  1
  H  H23  1  0.97761235  0.43554076  0.38006375  1
  H  H24  1  0.75861530  0.44649552  0.91168581  1
  H  H25  1  0.25861528  0.55350486  0.58831369  1
  H  H26  1  0.24138470  0.55350448  0.08831419  1
  H  H27  1  0.74138472  0.44649514  0.41168631  1
  H  H28  1  0.06946256  0.85368313  0.59361100  1
  H  H29  1  0.56946372  0.14631780  0.90638813  1
  H  H30  1  0.93053744  0.14631687  0.40638900  1
  H  H31  1  0.43053628  0.85368220  0.09361187  1
  H  H32  1  0.23978107  0.97615284  0.51420919  1
  H  H33  1  0.73978201  0.02384776  0.98579038  1
  H  H34  1  0.76021893  0.02384716  0.48579081  1
  H  H35  1  0.26021799  0.97615224  0.01420962  1
  C  C36  1  0.74164618  0.90984195  0.66925489  1
  C  C37  1  0.24164726  0.09015786  0.83074502  1
  C  C38  1  0.25835382  0.09015805  0.33074511  1
  C  C39  1  0.75835274  0.90984214  0.16925498  1
  C  C40  1  0.15526787  0.55555867  0.82659184  1
  C  C41  1  0.65526764  0.44444149  0.67340770  1
  C  C42  1  0.84473213  0.44444133  0.17340816  1
  C  C43  1  0.34473236  0.55555851  0.32659230  1
  O  O44  1  0.34919286  0.23881392  0.58101611  1
  O  O45  1  0.84919384  0.76118569  0.91898477  1
  O  O46  1  0.65080714  0.76118608  0.41898389  1
  O  O47  1  0.15080616  0.23881431  0.08101523  1
  O  O48  1  0.60172492  0.44402377  0.92883604  1
  O  O49  1  0.10172465  0.55597687  0.57116362  1
  O  O50  1  0.39827508  0.55597623  0.07116396  1
  O  O51  1  0.89827535  0.44402313  0.42883638  1
  O  O52  1  0.22564821  0.88482703  0.58485774  1
  O  O53  1  0.72564959  0.11517381  0.91514211  1
  O  O54  1  0.77435179  0.11517297  0.41514226  1
  O  O55  1  0.27435041  0.88482619  0.08485789  1
  O  O56  1  0.86201469  0.01765482  0.66649613  1
  O  O57  1  0.36201579  0.98234497  0.83350411  1
  O  O58  1  0.13798531  0.98234518  0.33350387  1
  O  O59  1  0.63798421  0.01765503  0.16649589  1
  O  O60  1  0.58172845  0.83310375  0.73330128  1
  O  O61  1  0.08173018  0.16689843  0.76669859  1
  O  O62  1  0.41827155  0.16689625  0.26669872  1
  O  O63  1  0.91826982  0.83310157  0.23330141  1
  O  O64  1  0.76231668  0.86068629  0.60889885  1
  O  O65  1  0.26231459  0.13931432  0.89110072  1
  O  O66  1  0.23768332  0.13931371  0.39110115  1
  O  O67  1  0.73768541  0.86068568  0.10889928  1
  O  O68  1  0.15253516  0.68167437  0.83136026  1
  O  O69  1  0.65253634  0.31832650  0.66863893  1
  O  O70  1  0.84746484  0.31832563  0.16863974  1
  O  O71  1  0.34746366  0.68167350  0.33136107  1
  O  O72  1  0.02327732  0.42770716  0.88188161  1
  O  O73  1  0.52327749  0.57229255  0.61811800  1
  O  O74  1  0.97672268  0.57229284  0.11811839  1
  O  O75  1  0.47672251  0.42770745  0.38188200  1
  O  O76  1  0.28885971  0.54051408  0.76974001  1
  O  O77  1  0.78885977  0.45948374  0.73026059  1
  O  O78  1  0.71114029  0.45948592  0.23025999  1
  O  O79  1  0.21114023  0.54051626  0.26973941  1
