# generated using pymatgen
data_Na5Nb3GaSi5PO24
_symmetry_space_group_name_H-M   'P 1'
_cell_length_a   9.00953139
_cell_length_b   8.99671374
_cell_length_c   22.44070058
_cell_angle_alpha   89.94157182
_cell_angle_beta   89.85173135
_cell_angle_gamma   120.12308724
_symmetry_Int_Tables_number   1
_chemical_formula_structural   Na5Nb3GaSi5PO24
_chemical_formula_sum   'Na15 Nb9 Ga3 Si15 P3 O72'
_cell_volume   1573.29490650
_cell_formula_units_Z   3
loop_
 _symmetry_equiv_pos_site_id
 _symmetry_equiv_pos_as_xyz
  1  'x, y, z'
loop_
 _atom_site_type_symbol
 _atom_site_label
 _atom_site_symmetry_multiplicity
 _atom_site_fract_x
 _atom_site_fract_y
 _atom_site_fract_z
 _atom_site_occupancy
  Na  Na0  1  0.99075347  0.62679871  0.24355674  1
  Na  Na1  1  0.63403289  0.62287920  0.74566154  1
  Na  Na2  1  0.98896527  0.36552926  0.74549787  1
  Na  Na3  1  0.37502855  0.00996524  0.74656130  1
  Na  Na4  1  0.31271832  0.97174256  0.08431854  1
  Na  Na5  1  0.66583948  0.69238051  0.08448840  1
  Na  Na6  1  0.96737230  0.29112764  0.41216482  1
  Na  Na7  1  0.32249596  0.03267582  0.41145382  1
  Na  Na8  1  0.70852514  0.67683871  0.41290884  1
  Na  Na9  1  0.99919688  0.99946824  0.49978444  1
  Na  Na10  1  0.99950318  0.01020293  0.99536108  1
  Na  Na11  1  0.66622770  0.33402047  0.83329051  1
  Na  Na12  1  0.65161193  0.31999607  0.32225284  1
  Na  Na13  1  0.33461555  0.65696937  0.16549058  1
  Na  Na14  1  0.33256495  0.66472342  0.66365087  1
  Nb  Nb15  1  0.00033660  0.99941340  0.85554624  1
  Nb  Nb16  1  0.99660087  0.99969376  0.64321538  1
  Nb  Nb17  1  0.00357234  0.00387441  0.14588051  1
  Nb  Nb18  1  0.66695638  0.33179469  0.97733867  1
  Nb  Nb19  1  0.67104489  0.33601187  0.48091805  1
  Nb  Nb20  1  0.32763158  0.66211232  0.02110962  1
  Nb  Nb21  1  0.33380360  0.66253949  0.52255441  1
  Nb  Nb22  1  0.33766560  0.67165542  0.31029568  1
  Nb  Nb23  1  0.33364071  0.66620197  0.81333026  1
  Ga  Ga24  1  0.00667015  0.00363797  0.35161263  1
  Ga  Ga25  1  0.67018380  0.33906712  0.68661790  1
  Ga  Ga26  1  0.65216185  0.32150396  0.18289548  1
  Si  Si27  1  0.29925975  0.01318555  0.25224178  1
  Si  Si28  1  0.29198927  0.28805761  0.74824229  1
  Si  Si29  1  0.99812727  0.70904803  0.74882029  1
  Si  Si30  1  0.71079546  0.00363760  0.74920004  1
  Si  Si31  1  0.95477770  0.33452288  0.58705503  1
  Si  Si32  1  0.66626048  0.62095591  0.58701535  1
  Si  Si33  1  0.94900776  0.61088671  0.08872823  1
  Si  Si34  1  0.66854295  0.04894133  0.08514895  1
  Si  Si35  1  0.38428334  0.33664895  0.08549539  1
  Si  Si36  1  0.62391530  0.66660302  0.91748409  1
  Si  Si37  1  0.04053662  0.37399461  0.91607399  1
  Si  Si38  1  0.33330274  0.95856178  0.91691713  1
  Si  Si39  1  0.62654947  0.95621213  0.41586691  1
  Si  Si40  1  0.32998469  0.37416076  0.41543900  1
  Si  Si41  1  0.04604715  0.67037395  0.41562143  1
  P  P42  1  0.71308697  0.71045407  0.25221315  1
  P  P43  1  0.99625765  0.28661299  0.25330183  1
  P  P44  1  0.38018379  0.04538217  0.58555414  1
  O  O45  1  0.20648511  0.02578100  0.31277088  1
  O  O46  1  0.82104143  0.79816601  0.30847102  1
  O  O47  1  0.97610677  0.18411923  0.31089298  1
  O  O48  1  0.19595559  0.16361069  0.80608968  1
  O  O49  1  0.96892146  0.80554943  0.80616875  1
  O  O50  1  0.83736970  0.03498615  0.80596189  1
  O  O51  1  0.80260142  0.96387066  0.69201989  1
  O  O52  1  0.16139577  0.19752023  0.69162242  1
  O  O53  1  0.03716413  0.83965710  0.69198470  1
  O  O54  1  0.79872999  0.82248885  0.19527376  1
  O  O55  1  0.01658589  0.18995555  0.19842643  1
  O  O56  1  0.16905705  0.97538262  0.19392998  1
  O  O57  1  0.87063118  0.36116588  0.64634449  1
  O  O58  1  0.48451942  0.12380259  0.64222903  1
  O  O59  1  0.63337706  0.50849936  0.64646149  1
  O  O60  1  0.86931421  0.50534973  0.14962628  1
  O  O61  1  0.61725525  0.12365061  0.14148274  1
  O  O62  1  0.50784538  0.38561945  0.14236620  1
  O  O63  1  0.46498126  0.29247408  0.02703679  1
  O  O64  1  0.82401280  0.52670972  0.03054384  1
  O  O65  1  0.69916660  0.16744774  0.02562829  1
  O  O66  1  0.47110472  0.15681991  0.52838987  1
  O  O67  1  0.68682717  0.52465427  0.52611612  1
  O  O68  1  0.83738725  0.30947442  0.52600271  1
  O  O69  1  0.52944712  0.69011579  0.97646290  1
  O  O70  1  0.16400231  0.47543077  0.97322565  1
  O  O71  1  0.31045989  0.84180894  0.97638590  1
  O  O72  1  0.53145097  0.82897609  0.47250625  1
  O  O73  1  0.30106890  0.47093831  0.47300264  1
  O  O74  1  0.17371088  0.70095984  0.47148221  1
  O  O75  1  0.13104760  0.62883837  0.35671983  1
  O  O76  1  0.49445847  0.86361466  0.35851315  1
  O  O77  1  0.36976928  0.50698509  0.35910756  1
  O  O78  1  0.13463419  0.49168322  0.85614372  1
  O  O79  1  0.35647117  0.86259040  0.85743951  1
  O  O80  1  0.50537707  0.64315836  0.85786402  1
  O  O81  1  0.01855341  0.83444803  0.41089098  1
  O  O82  1  0.81446655  0.97714322  0.40849331  1
  O  O83  1  0.15911783  0.18657293  0.41176539  1
  O  O84  1  0.02678824  0.18783860  0.91164357  1
  O  O85  1  0.16058463  0.97237106  0.91126560  1
  O  O86  1  0.81106723  0.83922343  0.91118032  1
  O  O87  1  0.97668982  0.16339028  0.58750266  1
  O  O88  1  0.20077784  0.03034258  0.58702056  1
  O  O89  1  0.84241561  0.81048124  0.58745254  1
  O  O90  1  0.97137374  0.80899975  0.09301077  1
  O  O91  1  0.83352963  0.01681379  0.09134690  1
  O  O92  1  0.19171003  0.16134471  0.09223432  1
  O  O93  1  0.68670333  0.16947009  0.74424214  1
  O  O94  1  0.47973744  0.30569547  0.74467835  1
  O  O95  1  0.82869799  0.51982589  0.74682229  1
  O  O96  1  0.70025530  0.53456926  0.24784402  1
  O  O97  1  0.84530177  0.31852114  0.24785589  1
  O  O98  1  0.48771387  0.17802994  0.24477331  1
  O  O99  1  0.63903288  0.49448562  0.92241597  1
  O  O100  1  0.85584118  0.36313736  0.92176324  1
  O  O101  1  0.50623607  0.14591529  0.92099468  1
  O  O102  1  0.63679010  0.14370796  0.42200360  1
  O  O103  1  0.50263714  0.35691800  0.42283027  1
  O  O104  1  0.85570410  0.49329179  0.42248151  1
  O  O105  1  0.35974702  0.50475647  0.07726054  1
  O  O106  1  0.14859676  0.65286327  0.07993348  1
  O  O107  1  0.50014886  0.85238992  0.07702655  1
  O  O108  1  0.35971941  0.86455567  0.57674964  1
  O  O109  1  0.49889730  0.64650478  0.57679667  1
  O  O110  1  0.14515564  0.50666095  0.57688263  1
  O  O111  1  0.30051537  0.82487827  0.25498552  1
  O  O112  1  0.53133288  0.69466619  0.25536957  1
  O  O113  1  0.16667872  0.46844778  0.25434690  1
  O  O114  1  0.30777517  0.47906648  0.75399729  1
  O  O115  1  0.17388255  0.69474459  0.75404814  1
  O  O116  1  0.52149482  0.82637548  0.75388829  1
