# generated using pymatgen
data_YTa3Si3(SO8)3
_symmetry_space_group_name_H-M   'P 1'
_cell_length_a   8.99098616
_cell_length_b   8.98370976
_cell_length_c   23.12584876
_cell_angle_alpha   89.44613205
_cell_angle_beta   89.93375611
_cell_angle_gamma   119.96674249
_symmetry_Int_Tables_number   1
_chemical_formula_structural   YTa3Si3(SO8)3
_chemical_formula_sum   'Y3 Ta9 Si9 S9 O72'
_cell_volume   1618.10292611
_cell_formula_units_Z   3
loop_
 _symmetry_equiv_pos_site_id
 _symmetry_equiv_pos_as_xyz
  1  'x, y, z'
loop_
 _atom_site_type_symbol
 _atom_site_label
 _atom_site_symmetry_multiplicity
 _atom_site_fract_x
 _atom_site_fract_y
 _atom_site_fract_z
 _atom_site_occupancy
  Y  Y0  1  0.00227408  0.00701433  0.36474342  1
  Y  Y1  1  0.67519091  0.34452479  0.69567141  1
  Y  Y2  1  0.67172125  0.32990437  0.18432422  1
  Ta  Ta3  1  0.00740457  0.98697909  0.85914833  1
  Ta  Ta4  1  0.01340796  0.01591406  0.64779605  1
  Ta  Ta5  1  0.99787008  0.99399466  0.13898350  1
  Ta  Ta6  1  0.68048495  0.33931942  0.97441963  1
  Ta  Ta7  1  0.66707376  0.32117195  0.47666526  1
  Ta  Ta8  1  0.34424752  0.68588917  0.01980615  1
  Ta  Ta9  1  0.33680606  0.65680981  0.52307630  1
  Ta  Ta10  1  0.34419282  0.66950854  0.31243411  1
  Ta  Ta11  1  0.34111652  0.67305252  0.80905652  1
  Si  Si12  1  0.27688035  0.28774400  0.75475275  1
  Si  Si13  1  0.01217426  0.72388965  0.75109141  1
  Si  Si14  1  0.95263458  0.32830330  0.58355441  1
  Si  Si15  1  0.95880064  0.61827927  0.08083967  1
  Si  Si16  1  0.66759603  0.04719073  0.08206165  1
  Si  Si17  1  0.61543747  0.66420844  0.91517822  1
  Si  Si18  1  0.34491769  0.95932393  0.91499058  1
  Si  Si19  1  0.60557277  0.94952541  0.41771442  1
  Si  Si20  1  0.35185750  0.39174987  0.41850419  1
  S  S21  1  0.27900924  0.98642110  0.25030787  1
  S  S22  1  0.70864541  0.71915409  0.24967538  1
  S  S23  1  0.01431229  0.29544121  0.24996007  1
  S  S24  1  0.71835597  0.98896317  0.75188784  1
  S  S25  1  0.37249542  0.03993714  0.58126427  1
  S  S26  1  0.67259708  0.62858357  0.58152219  1
  S  S27  1  0.37201398  0.33375033  0.08107301  1
  S  S28  1  0.05048460  0.38211572  0.91589344  1
  S  S29  1  0.04925817  0.65211122  0.41812384  1
  O  O30  1  0.19776487  0.00504063  0.30191919  1
  O  O31  1  0.80954790  0.79390735  0.30086641  1
  O  O32  1  0.98924229  0.19075677  0.30159839  1
  O  O33  1  0.16471542  0.16968756  0.80942203  1
  O  O34  1  0.98978403  0.82203611  0.80805981  1
  O  O35  1  0.81948256  0.00905716  0.80348777  1
  O  O36  1  0.79977390  0.96571533  0.69796347  1
  O  O37  1  0.15520294  0.19654548  0.69457485  1
  O  O38  1  0.03209043  0.84521863  0.69303584  1
  O  O39  1  0.79577667  0.83040516  0.19712719  1
  O  O40  1  0.04078650  0.21381303  0.19791721  1
  O  O41  1  0.17117317  0.96701929  0.19790140  1
  O  O42  1  0.87558874  0.36601095  0.63872359  1
  O  O43  1  0.47709653  0.10609135  0.63237853  1
  O  O44  1  0.62502950  0.52016395  0.63305534  1
  O  O45  1  0.88630786  0.52081841  0.14052364  1
  O  O46  1  0.62241399  0.10790611  0.14015068  1
  O  O47  1  0.47241729  0.37061985  0.13374064  1
  O  O48  1  0.44970660  0.29542786  0.03145825  1
  O  O49  1  0.82873625  0.52603910  0.02632603  1
  O  O50  1  0.70001601  0.17536680  0.02698909  1
  O  O51  1  0.45897079  0.15800220  0.52950520  1
  O  O52  1  0.69600155  0.54298512  0.53056795  1
  O  O53  1  0.82714275  0.30546020  0.52624481  1
  O  O54  1  0.51466490  0.68171527  0.97114454  1
  O  O55  1  0.15403386  0.45746685  0.96785330  1
  O  O56  1  0.30906899  0.83451703  0.97189051  1
  O  O57  1  0.49946828  0.83712755  0.47341701  1
  O  O58  1  0.32634413  0.49193481  0.47303027  1
  O  O59  1  0.15431695  0.67503727  0.46968643  1
  O  O60  1  0.12788592  0.62476628  0.36476340  1
  O  O61  1  0.48407950  0.85900166  0.35878262  1
  O  O62  1  0.37065786  0.51361054  0.35971242  1
  O  O63  1  0.12703794  0.49344743  0.86423310  1
  O  O64  1  0.36965870  0.86122255  0.86043628  1
  O  O65  1  0.49263413  0.63472316  0.85944592  1
  O  O66  1  0.03019408  0.80168391  0.41185715  1
  O  O67  1  0.78569688  0.96299639  0.41190245  1
  O  O68  1  0.19042909  0.20765033  0.41271537  1
  O  O69  1  0.02020426  0.20735433  0.90828271  1
  O  O70  1  0.17316875  0.97851529  0.90725601  1
  O  O71  1  0.80209167  0.83688127  0.90463243  1
  O  O72  1  0.97350719  0.15647283  0.59264258  1
  O  O73  1  0.20089770  0.02743237  0.58822691  1
  O  O74  1  0.82315090  0.79979705  0.58914234  1
  O  O75  1  0.98555880  0.81812070  0.09485020  1
  O  O76  1  0.84277069  0.02809445  0.09634875  1
  O  O77  1  0.19694834  0.17294634  0.09338577  1
  O  O78  1  0.69252840  0.13464456  0.74541286  1
  O  O79  1  0.45158346  0.29230229  0.74439977  1
  O  O80  1  0.84608204  0.54126567  0.74857125  1
  O  O81  1  0.67008867  0.54353928  0.24091484  1
  O  O82  1  0.86760631  0.32238711  0.24387950  1
  O  O83  1  0.45116673  0.13308760  0.24307115  1
  O  O84  1  0.64098257  0.49855061  0.93031492  1
  O  O85  1  0.87579453  0.36841600  0.92367257  1
  O  O86  1  0.50914732  0.14710744  0.93014283  1
  O  O87  1  0.62146025  0.14031409  0.42767294  1
  O  O88  1  0.52879423  0.38949262  0.43206386  1
  O  O89  1  0.87680435  0.49526739  0.42576669  1
  O  O90  1  0.33538634  0.47293038  0.06864966  1
  O  O91  1  0.14501008  0.64225278  0.06465942  1
  O  O92  1  0.51377879  0.85171509  0.06716742  1
  O  O93  1  0.34107798  0.86515322  0.56805532  1
  O  O94  1  0.51959158  0.65617243  0.57029307  1
  O  O95  1  0.14423644  0.49156029  0.56600133  1
  O  O96  1  0.28950386  0.82370620  0.25710341  1
  O  O97  1  0.53528114  0.71325497  0.25640548  1
  O  O98  1  0.17371930  0.46996233  0.25837020  1
  O  O99  1  0.28985949  0.47465044  0.76446272  1
  O  O100  1  0.18907714  0.71825672  0.76266938  1
  O  O101  1  0.54736703  0.82662553  0.75658351  1
