# generated using pymatgen
data_Na4InGaSi(PO6)2
_symmetry_space_group_name_H-M   'P 1'
_cell_length_a   9.07898569
_cell_length_b   9.07287628
_cell_length_c   22.14186610
_cell_angle_alpha   89.99993662
_cell_angle_beta   89.83473693
_cell_angle_gamma   120.03794855
_symmetry_Int_Tables_number   1
_chemical_formula_structural   Na4InGaSi(PO6)2
_chemical_formula_sum   'Na24 In6 Ga6 Si6 P12 O72'
_cell_volume   1578.91431282
_cell_formula_units_Z   6
loop_
 _symmetry_equiv_pos_site_id
 _symmetry_equiv_pos_as_xyz
  1  'x, y, z'
loop_
 _atom_site_type_symbol
 _atom_site_label
 _atom_site_symmetry_multiplicity
 _atom_site_fract_x
 _atom_site_fract_y
 _atom_site_fract_z
 _atom_site_occupancy
  Na  Na0  1  0.63386781  0.00053971  0.25317584  1
  Na  Na1  1  0.36507332  0.36840202  0.25021387  1
  Na  Na2  1  0.00128972  0.62474586  0.25034493  1
  Na  Na3  1  0.63556931  0.63602946  0.74615606  1
  Na  Na4  1  0.99409839  0.36127028  0.74960841  1
  Na  Na5  1  0.37638515  0.00399536  0.74837189  1
  Na  Na6  1  0.29760530  0.32948194  0.58263913  1
  Na  Na7  1  0.04058946  0.70854195  0.58174425  1
  Na  Na8  1  0.66498765  0.96425283  0.58717644  1
  Na  Na9  1  0.29581110  0.96446522  0.08244597  1
  Na  Na10  1  0.67393606  0.69920251  0.08369607  1
  Na  Na11  1  0.03122806  0.33598056  0.08891118  1
  Na  Na12  1  0.97297588  0.67323105  0.92065862  1
  Na  Na13  1  0.69422336  0.03345593  0.91220960  1
  Na  Na14  1  0.33328049  0.29635056  0.91658510  1
  Na  Na15  1  0.96469242  0.30037077  0.41282658  1
  Na  Na16  1  0.32905043  0.03021093  0.41947897  1
  Na  Na17  1  0.70226192  0.66745576  0.41627666  1
  Na  Na18  1  0.00332042  0.99657935  0.49938962  1
  Na  Na19  1  0.00358047  0.99569313  0.00160741  1
  Na  Na20  1  0.66314762  0.32439604  0.83174911  1
  Na  Na21  1  0.67337115  0.33478344  0.33588532  1
  Na  Na22  1  0.32542096  0.66273459  0.16864072  1
  Na  Na23  1  0.33789651  0.67472953  0.66544288  1
  In  In24  1  0.99878556  0.99980768  0.84569970  1
  In  In25  1  0.67218065  0.33362333  0.18586359  1
  In  In26  1  0.66965059  0.33679409  0.98690072  1
  In  In27  1  0.32886174  0.67035371  0.01623680  1
  In  In28  1  0.32895686  0.67267712  0.51518145  1
  In  In29  1  0.33933101  0.67616589  0.81408629  1
  Ga  Ga30  1  0.99861047  0.99561900  0.34921114  1
  Ga  Ga31  1  0.00459658  0.00019656  0.64859374  1
  Ga  Ga32  1  0.00128444  0.99966870  0.15283858  1
  Ga  Ga33  1  0.66573226  0.32516610  0.68162311  1
  Ga  Ga34  1  0.66687553  0.33556852  0.48424096  1
  Ga  Ga35  1  0.31895090  0.65484469  0.31769562  1
  Si  Si36  1  0.00552661  0.28872761  0.25234304  1
  Si  Si37  1  0.70992216  0.00674059  0.74522613  1
  Si  Si38  1  0.37366481  0.04647236  0.58377658  1
  Si  Si39  1  0.96887453  0.64250181  0.08666598  1
  Si  Si40  1  0.33408943  0.97260529  0.91593572  1
  Si  Si41  1  0.02916833  0.66701471  0.41567339  1
  P  P42  1  0.28757784  0.99534439  0.25155192  1
  P  P43  1  0.70504628  0.71233215  0.25196438  1
  P  P44  1  0.30006083  0.29599906  0.74630056  1
  P  P45  1  0.99270879  0.69855126  0.74558257  1
  P  P46  1  0.95382029  0.32932894  0.58347340  1
  P  P47  1  0.67058803  0.62177113  0.58422067  1
  P  P48  1  0.67230899  0.03160570  0.08555898  1
  P  P49  1  0.36208928  0.32851141  0.08570202  1
  P  P50  1  0.63141493  0.66495692  0.91629228  1
  P  P51  1  0.03561844  0.36730273  0.91589857  1
  P  P52  1  0.62891783  0.96030158  0.41424509  1
  P  P53  1  0.33370012  0.37054763  0.41544291  1
  O  O54  1  0.20525357  0.02456597  0.30797278  1
  O  O55  1  0.81992070  0.79248105  0.30759767  1
  O  O56  1  0.97496382  0.16845321  0.31125667  1
  O  O57  1  0.23096693  0.19049030  0.80508656  1
  O  O58  1  0.96072324  0.76846487  0.80497091  1
  O  O59  1  0.81734866  0.04400451  0.80806839  1
  O  O60  1  0.80714603  0.97329821  0.68865288  1
  O  O61  1  0.18166595  0.20637121  0.69179343  1
  O  O62  1  0.02862404  0.82112482  0.69169811  1
  O  O63  1  0.78707358  0.82012209  0.19424370  1
  O  O64  1  0.03571523  0.20310776  0.19153167  1
  O  O65  1  0.17857477  0.96512463  0.19413269  1
  O  O66  1  0.87494408  0.36385633  0.63987359  1
  O  O67  1  0.49217740  0.13150384  0.64316012  1
  O  O68  1  0.64450636  0.51090671  0.64060194  1
  O  O69  1  0.88726387  0.51893498  0.14517752  1
  O  O70  1  0.62987797  0.10788583  0.14092305  1
  O  O71  1  0.47513189  0.35985994  0.14186347  1
  O  O72  1  0.43928249  0.29554609  0.02817753  1
  O  O73  1  0.85202111  0.56728471  0.02558059  1
  O  O74  1  0.70347544  0.14091817  0.02793297  1
  O  O75  1  0.46053853  0.16579363  0.52317531  1
  O  O76  1  0.69918022  0.54186936  0.52631617  1
  O  O77  1  0.84426352  0.30246835  0.52620551  1
  O  O78  1  0.54921792  0.68961882  0.97389901  1
  O  O79  1  0.14515397  0.44503965  0.97307520  1
  O  O80  1  0.29593977  0.85668248  0.97657869  1
  O  O81  1  0.56071339  0.85158483  0.47282220  1
  O  O82  1  0.29898482  0.44470061  0.47353218  1
  O  O83  1  0.14678428  0.71647633  0.47632043  1
  O  O84  1  0.11801943  0.62521771  0.35793991  1
  O  O85  1  0.50846488  0.87018473  0.35972690  1
  O  O86  1  0.36755237  0.49099000  0.36037717  1
  O  O87  1  0.11838258  0.47544592  0.85839732  1
  O  O88  1  0.37135013  0.89340433  0.85522435  1
  O  O89  1  0.52081680  0.63315618  0.85927458  1
  O  O90  1  0.00909162  0.83738315  0.40670699  1
  O  O91  1  0.81015528  0.98333177  0.40819833  1
  O  O92  1  0.17374175  0.19071433  0.40934961  1
  O  O93  1  0.01390598  0.18749319  0.91289932  1
  O  O94  1  0.16167500  0.98797100  0.91215293  1
  O  O95  1  0.80759463  0.82879995  0.91264685  1
  O  O96  1  0.96992625  0.16626395  0.58796681  1
  O  O97  1  0.18113202  0.02621945  0.58940834  1
  O  O98  1  0.83178983  0.80302445  0.58799338  1
  O  O99  1  0.98500437  0.83146642  0.09349735  1
  O  O100  1  0.83667166  0.02138214  0.09216988  1
  O  O101  1  0.18344957  0.16792195  0.09087029  1
  O  O102  1  0.69016661  0.17794474  0.74104860  1
  O  O103  1  0.48217184  0.32256675  0.74044325  1
  O  O104  1  0.83009386  0.52131988  0.73877482  1
  O  O105  1  0.67952870  0.52916679  0.24884522  1
  O  O106  1  0.83322740  0.30717819  0.25134116  1
  O  O107  1  0.46656050  0.15944101  0.24755737  1
  O  O108  1  0.65233616  0.50625670  0.91942189  1
  O  O109  1  0.85961432  0.35555599  0.92007069  1
  O  O110  1  0.50618807  0.16069113  0.92048810  1
  O  O111  1  0.64261476  0.13862469  0.41988825  1
  O  O112  1  0.49697524  0.35510631  0.41992024  1
  O  O113  1  0.84066554  0.49181405  0.42327075  1
  O  O114  1  0.34762868  0.49142671  0.08066790  1
  O  O115  1  0.15688532  0.65811172  0.08342018  1
  O  O116  1  0.51695056  0.84955600  0.08067478  1
  O  O117  1  0.35614616  0.85632824  0.58203927  1
  O  O118  1  0.50723628  0.63759241  0.58047937  1
  O  O119  1  0.13650199  0.48789078  0.57996016  1
  O  O120  1  0.31073458  0.83614943  0.25660947  1
  O  O121  1  0.52706524  0.69902303  0.25763586  1
  O  O122  1  0.17883228  0.48056987  0.25600728  1
  O  O123  1  0.31027867  0.47232230  0.75013501  1
  O  O124  1  0.15161625  0.67630241  0.74884823  1
  O  O125  1  0.52124622  0.83215151  0.74617032  1
