# generated using pymatgen
data_Hf2In2SiS5O24
_symmetry_space_group_name_H-M   'P 1'
_cell_length_a   8.88170200
_cell_length_b   8.96754113
_cell_length_c   23.20402610
_cell_angle_alpha   90.27102502
_cell_angle_beta   89.84766458
_cell_angle_gamma   119.73013961
_symmetry_Int_Tables_number   1
_chemical_formula_structural   Hf2In2SiS5O24
_chemical_formula_sum   'Hf6 In6 Si3 S15 O72'
_cell_volume   1604.84549528
_cell_formula_units_Z   3
loop_
 _symmetry_equiv_pos_site_id
 _symmetry_equiv_pos_as_xyz
  1  'x, y, z'
loop_
 _atom_site_type_symbol
 _atom_site_label
 _atom_site_symmetry_multiplicity
 _atom_site_fract_x
 _atom_site_fract_y
 _atom_site_fract_z
 _atom_site_occupancy
  Hf  Hf0  1  0.99744324  0.00569048  0.64302613  1
  Hf  Hf1  1  0.00778375  0.00763255  0.14408044  1
  Hf  Hf2  1  0.67450536  0.32314625  0.47682912  1
  Hf  Hf3  1  0.33496653  0.65984090  0.02201680  1
  Hf  Hf4  1  0.33728681  0.66809557  0.52190939  1
  Hf  Hf5  1  0.34040071  0.67427301  0.31286020  1
  In  In6  1  0.99485801  0.00174759  0.35585618  1
  In  In7  1  0.00273289  0.00118633  0.85411522  1
  In  In8  1  0.67463440  0.33656391  0.68587855  1
  In  In9  1  0.66136698  0.33501640  0.18494333  1
  In  In10  1  0.65870653  0.33061076  0.98065144  1
  In  In11  1  0.33103328  0.66562928  0.81174618  1
  Si  Si12  1  0.95791690  0.33742564  0.58415065  1
  Si  Si13  1  0.38066028  0.33405176  0.08325877  1
  Si  Si14  1  0.62312166  0.95378107  0.41704085  1
  S  S15  1  0.28660297  0.99789908  0.25126845  1
  S  S16  1  0.71249944  0.70949578  0.25005607  1
  S  S17  1  0.99801157  0.29144695  0.24930208  1
  S  S18  1  0.29136522  0.28922680  0.74952607  1
  S  S19  1  0.99909139  0.71149488  0.75029592  1
  S  S20  1  0.70924083  0.99874579  0.75085393  1
  S  S21  1  0.37688384  0.04427146  0.58335915  1
  S  S22  1  0.66650717  0.62152680  0.58375732  1
  S  S23  1  0.96016319  0.62666607  0.08338453  1
  S  S24  1  0.66688311  0.04010938  0.08303190  1
  S  S25  1  0.62478808  0.66837186  0.91552770  1
  S  S26  1  0.04121655  0.37671428  0.91683288  1
  S  S27  1  0.33407348  0.95521729  0.91619079  1
  S  S28  1  0.33614051  0.38231368  0.41657934  1
  S  S29  1  0.04739533  0.66682682  0.41649676  1
  O  O30  1  0.20831941  0.02715953  0.30300038  1
  O  O31  1  0.81798278  0.78800086  0.30174731  1
  O  O32  1  0.96809927  0.18591977  0.30073270  1
  O  O33  1  0.21708407  0.18624207  0.80237011  1
  O  O34  1  0.97345098  0.78933487  0.80361581  1
  O  O35  1  0.81605105  0.02843487  0.80320333  1
  O  O36  1  0.79906506  0.97522729  0.69962322  1
  O  O37  1  0.17793479  0.19981110  0.69874146  1
  O  O38  1  0.02338384  0.82117148  0.69943046  1
  O  O39  1  0.79090566  0.81837048  0.19863889  1
  O  O40  1  0.02522888  0.20493439  0.19784199  1
  O  O41  1  0.17551745  0.97177540  0.19970426  1
  O  O42  1  0.88243641  0.37487401  0.64162492  1
  O  O43  1  0.47977835  0.11449259  0.63593716  1
  O  O44  1  0.62811002  0.51721513  0.63598984  1
  O  O45  1  0.89312116  0.51783334  0.13474702  1
  O  O46  1  0.63189665  0.11171909  0.13513314  1
  O  O47  1  0.49386429  0.37685341  0.14102816  1
  O  O48  1  0.45103978  0.28952515  0.02577183  1
  O  O49  1  0.85320585  0.55412656  0.03168738  1
  O  O50  1  0.70947044  0.14960201  0.03199336  1
  O  O51  1  0.45487685  0.15700723  0.53272363  1
  O  O52  1  0.69548213  0.54218796  0.53247099  1
  O  O53  1  0.83174789  0.30302823  0.52806046  1
  O  O54  1  0.53502086  0.69137449  0.96692675  1
  O  O55  1  0.15435093  0.46594897  0.96776815  1
  O  O56  1  0.31018680  0.84600341  0.96719084  1
  O  O57  1  0.52246002  0.83353436  0.47171239  1
  O  O58  1  0.30495327  0.46251362  0.46781007  1
  O  O59  1  0.15415173  0.68838743  0.46779151  1
  O  O60  1  0.12514063  0.63292955  0.36423226  1
  O  O61  1  0.49814164  0.85809454  0.35992423  1
  O  O62  1  0.35854812  0.48911353  0.36426158  1
  O  O63  1  0.11617621  0.48060377  0.86437596  1
  O  O64  1  0.35972483  0.87679027  0.86315517  1
  O  O65  1  0.51696029  0.63832558  0.86353965  1
  O  O66  1  0.03518251  0.82200352  0.40896686  1
  O  O67  1  0.81151612  0.97482394  0.41053719  1
  O  O68  1  0.18637620  0.21049249  0.40886173  1
  O  O69  1  0.02896113  0.20691294  0.91140285  1
  O  O70  1  0.17563721  0.97066973  0.91121784  1
  O  O71  1  0.79390465  0.82782056  0.91096691  1
  O  O72  1  0.97680442  0.16510458  0.59521821  1
  O  O73  1  0.20035292  0.02184281  0.59254619  1
  O  O74  1  0.82298013  0.79422076  0.59345041  1
  O  O75  1  0.97769951  0.79824455  0.09491524  1
  O  O76  1  0.81642654  0.01207946  0.09425144  1
  O  O77  1  0.18646328  0.16793584  0.09639870  1
  O  O78  1  0.68579535  0.14800360  0.74357849  1
  O  O79  1  0.46421214  0.30842574  0.74039798  1
  O  O80  1  0.84374976  0.54154772  0.74476720  1
  O  O81  1  0.69336554  0.53811821  0.24359234  1
  O  O82  1  0.84543392  0.31189478  0.23921546  1
  O  O83  1  0.46137358  0.14377766  0.24343572  1
  O  O84  1  0.64762412  0.51872983  0.92307137  1
  O  O85  1  0.86864673  0.35810753  0.92649455  1
  O  O86  1  0.48992644  0.12508686  0.92198494  1
  O  O87  1  0.63036995  0.13895204  0.42509095  1
  O  O88  1  0.49504302  0.37280419  0.42561136  1
  O  O89  1  0.87265901  0.51497925  0.42461288  1
  O  O90  1  0.35146422  0.49913380  0.07026106  1
  O  O91  1  0.13789674  0.65505534  0.07217352  1
  O  O92  1  0.51303635  0.86851735  0.07192351  1
  O  O93  1  0.35415185  0.87179896  0.57277095  1
  O  O94  1  0.51694749  0.64867277  0.57420436  1
  O  O95  1  0.14716194  0.49766708  0.56929101  1
  O  O96  1  0.29554068  0.83643145  0.25795151  1
  O  O97  1  0.53519909  0.69012514  0.25819410  1
  O  O98  1  0.15453081  0.46185784  0.25694287  1
  O  O99  1  0.30361440  0.45915090  0.75524462  1
  O  O100  1  0.15780976  0.69638834  0.75547278  1
  O  O101  1  0.53999415  0.83913772  0.75565037  1
