# generated using pymatgen
data_Pb9(Br5O2)2
_symmetry_space_group_name_H-M   'P 1'
_cell_length_a   12.39974665
_cell_length_b   12.39974665
_cell_length_c   8.47091111
_cell_angle_alpha   90.00000000
_cell_angle_beta   90.00000000
_cell_angle_gamma   90.00000000
_symmetry_Int_Tables_number   1
_chemical_formula_structural   Pb9(Br5O2)2
_chemical_formula_sum   'Pb18 Br20 O8'
_cell_volume   1302.43406941
_cell_formula_units_Z   2
loop_
 _symmetry_equiv_pos_site_id
 _symmetry_equiv_pos_as_xyz
  1  'x, y, z'
loop_
 _atom_site_type_symbol
 _atom_site_label
 _atom_site_symmetry_multiplicity
 _atom_site_fract_x
 _atom_site_fract_y
 _atom_site_fract_z
 _atom_site_occupancy
  Pb  Pb0  1  0.50000000  0.00000000  0.79345272  1
  Pb  Pb1  1  0.00000000  0.50000000  0.20654728  1
  Pb  Pb2  1  0.74026685  0.57369985  0.80866058  1
  Pb  Pb3  1  0.07369985  0.75973315  0.80866058  1
  Pb  Pb4  1  0.92630015  0.24026685  0.80866058  1
  Pb  Pb5  1  0.25973315  0.42630015  0.80866058  1
  Pb  Pb6  1  0.75973315  0.92630015  0.19133942  1
  Pb  Pb7  1  0.42630015  0.74026685  0.19133942  1
  Pb  Pb8  1  0.57369985  0.25973315  0.19133942  1
  Pb  Pb9  1  0.24026685  0.07369985  0.19133942  1
  Pb  Pb10  1  0.55165758  0.36065494  0.64455960  1
  Pb  Pb11  1  0.86065494  0.94834242  0.64455960  1
  Pb  Pb12  1  0.13934506  0.05165758  0.64455960  1
  Pb  Pb13  1  0.44834242  0.63934506  0.64455960  1
  Pb  Pb14  1  0.94834242  0.13934506  0.35544040  1
  Pb  Pb15  1  0.63934506  0.55165758  0.35544040  1
  Pb  Pb16  1  0.36065494  0.44834242  0.35544040  1
  Pb  Pb17  1  0.05165758  0.86065494  0.35544040  1
  Br  Br18  1  0.50000000  0.00000000  0.11914452  1
  Br  Br19  1  0.00000000  0.50000000  0.88085548  1
  Br  Br20  1  0.37796326  0.18615038  0.41237358  1
  Br  Br21  1  0.68615038  0.12203674  0.41237358  1
  Br  Br22  1  0.31384962  0.87796326  0.41237358  1
  Br  Br23  1  0.62203674  0.81384962  0.41237358  1
  Br  Br24  1  0.12203674  0.31384962  0.58762642  1
  Br  Br25  1  0.81384962  0.37796326  0.58762642  1
  Br  Br26  1  0.18615038  0.62203674  0.58762642  1
  Br  Br27  1  0.87796326  0.68615038  0.58762642  1
  Br  Br28  1  0.00000000  0.00000000  0.00000000  1
  Br  Br29  1  0.50000000  0.50000000  0.00000000  1
  Br  Br30  1  0.87421760  0.70819069  0.12567510  1
  Br  Br31  1  0.20819069  0.62578240  0.12567510  1
  Br  Br32  1  0.79180931  0.37421760  0.12567510  1
  Br  Br33  1  0.12578240  0.29180931  0.12567510  1
  Br  Br34  1  0.62578240  0.79180931  0.87432490  1
  Br  Br35  1  0.29180931  0.87421760  0.87432490  1
  Br  Br36  1  0.70819069  0.12578240  0.87432490  1
  Br  Br37  1  0.37421760  0.20819069  0.87432490  1
  O  O38  1  0.60953847  0.54319502  0.62497384  1
  O  O39  1  0.04319502  0.89046153  0.62497384  1
  O  O40  1  0.95680498  0.10953847  0.62497384  1
  O  O41  1  0.39046153  0.45680498  0.62497384  1
  O  O42  1  0.89046153  0.95680498  0.37502616  1
  O  O43  1  0.45680498  0.60953847  0.37502616  1
  O  O44  1  0.54319502  0.39046153  0.37502616  1
  O  O45  1  0.10953847  0.04319502  0.37502616  1
