# generated using pymatgen
data_YTaP2SO12
_symmetry_space_group_name_H-M   'P 1'
_cell_length_a   9.07241784
_cell_length_b   9.07974205
_cell_length_c   22.99404317
_cell_angle_alpha   90.71528801
_cell_angle_beta   90.00000000
_cell_angle_gamma   119.97331967
_symmetry_Int_Tables_number   1
_chemical_formula_structural   YTaP2SO12
_chemical_formula_sum   'Y6 Ta6 P12 S6 O72'
_cell_volume   1640.64312617
_cell_formula_units_Z   6
loop_
 _symmetry_equiv_pos_site_id
 _symmetry_equiv_pos_as_xyz
  1  'x, y, z'
loop_
 _atom_site_type_symbol
 _atom_site_label
 _atom_site_symmetry_multiplicity
 _atom_site_fract_x
 _atom_site_fract_y
 _atom_site_fract_z
 _atom_site_occupancy
  Y  Y0  1  0.99841304  0.00230617  0.36179175  1
  Y  Y1  1  0.00389313  0.00230617  0.86179175  1
  Y  Y2  1  0.66508004  0.33563917  0.69512475  1
  Y  Y3  1  0.67056013  0.33563917  0.19512475  1
  Y  Y4  1  0.33174604  0.66897317  0.02845875  1
  Y  Y5  1  0.33722613  0.66897317  0.52845875  1
  Ta  Ta6  1  0.99217563  0.00684022  0.64382310  1
  Ta  Ta7  1  0.01466458  0.00684022  0.14382310  1
  Ta  Ta8  1  0.65884263  0.34017322  0.97715610  1
  Ta  Ta9  1  0.68133158  0.34017322  0.47715610  1
  Ta  Ta10  1  0.32550863  0.67350722  0.31049010  1
  Ta  Ta11  1  0.34799758  0.67350722  0.81049010  1
  P  P12  1  0.27431274  0.98303383  0.24998915  1
  P  P13  1  0.02382952  0.29352062  0.25082019  1
  P  P14  1  0.26969110  0.29352062  0.75082019  1
  P  P15  1  0.70872109  0.98303383  0.74998915  1
  P  P16  1  0.94097974  0.31636683  0.58332215  1
  P  P17  1  0.69049652  0.62685362  0.58415319  1
  P  P18  1  0.93635810  0.62685362  0.08415319  1
  P  P19  1  0.37538809  0.31636683  0.08332215  1
  P  P20  1  0.60764574  0.64970083  0.91665615  1
  P  P21  1  0.35716252  0.96018762  0.91748719  1
  P  P22  1  0.60302410  0.96018762  0.41748719  1
  P  P23  1  0.04205409  0.64970083  0.41665615  1
  S  S24  1  0.70010183  0.72753775  0.24958945  1
  S  S25  1  0.02743593  0.72753775  0.74958945  1
  S  S26  1  0.36676883  0.06087075  0.58292245  1
  S  S27  1  0.69410293  0.06087075  0.08292245  1
  S  S28  1  0.03343483  0.39420475  0.91625645  1
  S  S29  1  0.36076893  0.39420475  0.41625645  1
  O  O30  1  0.19537938  0.01017773  0.30315132  1
  O  O31  1  0.80311578  0.79920911  0.30218122  1
  O  O32  1  0.99320495  0.18682697  0.30360945  1
  O  O33  1  0.19362202  0.18682697  0.80360945  1
  O  O34  1  0.99609334  0.79920911  0.80218122  1
  O  O35  1  0.81479835  0.01017773  0.80315132  1
  O  O36  1  0.79993494  0.95423253  0.69499981  1
  O  O37  1  0.14936756  0.19660000  0.69601794  1
  O  O38  1  0.05281096  0.83515004  0.69801405  1
  O  O39  1  0.78233908  0.83515004  0.19801405  1
  O  O40  1  0.04723244  0.19660000  0.19601794  1
  O  O41  1  0.15429759  0.95423253  0.19499981  1
  O  O42  1  0.86204638  0.34351073  0.63648432  1
  O  O43  1  0.46978278  0.13254211  0.63551422  1
  O  O44  1  0.65987195  0.52015997  0.63694245  1
  O  O45  1  0.86028902  0.52015997  0.13694245  1
  O  O46  1  0.66276034  0.13254211  0.13551422  1
  O  O47  1  0.48146535  0.34351073  0.13648432  1
  O  O48  1  0.46660194  0.28756553  0.02833281  1
  O  O49  1  0.81603456  0.52993300  0.02935094  1
  O  O50  1  0.71947796  0.16848304  0.03134705  1
  O  O51  1  0.44900608  0.16848304  0.53134705  1
  O  O52  1  0.71389944  0.52993300  0.52935094  1
  O  O53  1  0.82096459  0.28756553  0.52833281  1
  O  O54  1  0.52871238  0.67684473  0.96981832  1
  O  O55  1  0.13644878  0.46587611  0.96884822  1
  O  O56  1  0.32653795  0.85349397  0.97027645  1
  O  O57  1  0.52695502  0.85349397  0.47027645  1
  O  O58  1  0.32942634  0.46587611  0.46884822  1
  O  O59  1  0.14813135  0.67684473  0.46981832  1
  O  O60  1  0.13326794  0.62089953  0.36166681  1
  O  O61  1  0.48270056  0.86326700  0.36268494  1
  O  O62  1  0.38614396  0.50181704  0.36468105  1
  O  O63  1  0.11567208  0.50181704  0.86468105  1
  O  O64  1  0.38056544  0.86326700  0.86268494  1
  O  O65  1  0.48763059  0.62089953  0.86166681  1
  O  O66  1  0.99957161  0.78664897  0.40416521  1
  O  O67  1  0.78268579  0.00118877  0.40455915  1
  O  O68  1  0.22158626  0.21916654  0.40740158  1
  O  O69  1  0.99758027  0.21916654  0.90740158  1
  O  O70  1  0.21850299  0.00118877  0.90455915  1
  O  O71  1  0.78707736  0.78664897  0.90416521  1
  O  O72  1  0.94510260  0.14316404  0.59223576  1
  O  O73  1  0.19683543  0.05212271  0.59233178  1
  O  O74  1  0.86186775  0.80227401  0.59531908  1
  O  O75  1  0.94040626  0.80227401  0.09531908  1
  O  O76  1  0.85528728  0.05212271  0.09233178  1
  O  O77  1  0.19806143  0.14316404  0.09223576  1
  O  O78  1  0.66623861  0.11998197  0.73749821  1
  O  O79  1  0.44935279  0.33452177  0.73789215  1
  O  O80  1  0.88825326  0.55249954  0.74073458  1
  O  O81  1  0.66424727  0.55249954  0.24073458  1
  O  O82  1  0.88516999  0.33452177  0.23789215  1
  O  O83  1  0.45374436  0.11998197  0.23749821  1
  O  O84  1  0.61176960  0.47649704  0.92556876  1
  O  O85  1  0.86350243  0.38545571  0.92566478  1
  O  O86  1  0.52853475  0.13560701  0.92865208  1
  O  O87  1  0.60707326  0.13560701  0.42865208  1
  O  O88  1  0.52195428  0.38545571  0.42566478  1
  O  O89  1  0.86472843  0.47649704  0.42556876  1
  O  O90  1  0.33290461  0.45331597  0.07083221  1
  O  O91  1  0.11601879  0.66785577  0.07122615  1
  O  O92  1  0.55491926  0.88583354  0.07406858  1
  O  O93  1  0.33091327  0.88583354  0.57406858  1
  O  O94  1  0.55183599  0.66785577  0.57122615  1
  O  O95  1  0.12041036  0.45331597  0.57083221  1
  O  O96  1  0.27843560  0.80983104  0.25890276  1
  O  O97  1  0.53016843  0.71878971  0.25899878  1
  O  O98  1  0.19520075  0.46894101  0.26198608  1
  O  O99  1  0.27373926  0.46894101  0.76198608  1
  O  O100  1  0.18862028  0.71878971  0.75899878  1
  O  O101  1  0.53139443  0.80983104  0.75890276  1
