# generated using pymatgen
data_Na3AlGe3(PO4)6
_symmetry_space_group_name_H-M   'P 1'
_cell_length_a   8.41457488
_cell_length_b   8.41616939
_cell_length_c   21.71381082
_cell_angle_alpha   90.01947771
_cell_angle_beta   89.96612312
_cell_angle_gamma   120.23720467
_symmetry_Int_Tables_number   1
_chemical_formula_structural   Na3AlGe3(PO4)6
_chemical_formula_sum   'Na9 Al3 Ge9 P18 O72'
_cell_volume   1328.52648864
_cell_formula_units_Z   3
loop_
 _symmetry_equiv_pos_site_id
 _symmetry_equiv_pos_as_xyz
  1  'x, y, z'
loop_
 _atom_site_type_symbol
 _atom_site_label
 _atom_site_symmetry_multiplicity
 _atom_site_fract_x
 _atom_site_fract_y
 _atom_site_fract_z
 _atom_site_occupancy
  Na  Na0  1  0.36473399  0.36275985  0.24844646  1
  Na  Na1  1  0.63587374  0.63391543  0.74924612  1
  Na  Na2  1  0.96914098  0.30043242  0.41563569  1
  Na  Na3  1  0.00062957  0.99368725  0.49999744  1
  Na  Na4  1  0.99992806  0.99997970  0.00111929  1
  Na  Na5  1  0.66729953  0.32713559  0.83397400  1
  Na  Na6  1  0.66693497  0.33354067  0.33116140  1
  Na  Na7  1  0.33278541  0.67303364  0.16512252  1
  Na  Na8  1  0.32752419  0.66754736  0.66557161  1
  Al  Al9  1  -0.00011081  0.99501940  0.35253748  1
  Al  Al10  1  0.66701579  0.32869026  0.68625291  1
  Al  Al11  1  0.67096262  0.33252979  0.18582812  1
  Ge  Ge12  1  0.00072683  0.00117962  0.85462670  1
  Ge  Ge13  1  0.00120590  0.00084863  0.64565115  1
  Ge  Ge14  1  0.99864072  0.99783284  0.14594504  1
  Ge  Ge15  1  0.66720799  0.33306458  0.98177262  1
  Ge  Ge16  1  0.66238884  0.33348537  0.48210326  1
  Ge  Ge17  1  0.33290585  0.66683697  0.02138042  1
  Ge  Ge18  1  0.33391624  0.66832629  0.52108705  1
  Ge  Ge19  1  0.33391999  0.67208605  0.31258594  1
  Ge  Ge20  1  0.32905121  0.66751781  0.81512453  1
  P  P21  1  0.28690734  0.99808969  0.25026664  1
  P  P22  1  0.71649184  0.71396791  0.25054865  1
  P  P23  1  0.99293719  0.28514360  0.25110345  1
  P  P24  1  0.28553567  0.28454590  0.75023402  1
  P  P25  1  0.00367386  0.71310634  0.75001742  1
  P  P26  1  0.71429669  0.00600059  0.75045476  1
  P  P27  1  0.95441734  0.33364837  0.58398700  1
  P  P28  1  0.37904336  0.04556491  0.58428663  1
  P  P29  1  0.66612995  0.62074933  0.58451736  1
  P  P30  1  0.95362572  0.62026919  0.08386945  1
  P  P31  1  0.66691484  0.04650495  0.08399345  1
  P  P32  1  0.37933343  0.33347253  0.08416185  1
  P  P33  1  0.62105843  0.66558858  0.91705610  1
  P  P34  1  0.04450670  0.37873294  0.91737523  1
  P  P35  1  0.33399367  0.95525375  0.91728568  1
  P  P36  1  0.61958658  0.95188693  0.41722829  1
  P  P37  1  0.33724585  0.37914907  0.41683161  1
  P  P38  1  0.04688370  0.67261373  0.41734822  1
  O  O39  1  0.20478651  0.03848559  0.30710147  1
  O  O40  1  0.83122626  0.79791036  0.30804949  1
  O  O41  1  0.96718013  0.17342798  0.30989535  1
  O  O42  1  0.20485667  0.16672249  0.80841334  1
  O  O43  1  0.95764349  0.79296042  0.80742963  1
  O  O44  1  0.83205537  0.03791052  0.80842749  1
  O  O45  1  0.79133077  0.95432293  0.69326780  1
  O  O46  1  0.16518333  0.20627189  0.69218558  1
  O  O47  1  0.04140417  0.83373535  0.69217929  1
  O  O48  1  0.79228535  0.83301207  0.19187860  1
  O  O49  1  0.04501319  0.20849005  0.19389749  1
  O  O50  1  0.16748834  0.95918100  0.19182665  1
  O  O51  1  0.86927254  0.36835902  0.64006526  1
  O  O52  1  0.49752305  0.12980944  0.64082863  1
  O  O53  1  0.63241394  0.50560656  0.64251410  1
  O  O54  1  0.87053532  0.50237644  0.14057919  1
  O  O55  1  0.63106250  0.12910665  0.14051988  1
  O  O56  1  0.49416681  0.36776242  0.14222238  1
  O  O57  1  0.45865458  0.29476801  0.02514382  1
  O  O58  1  0.83699945  0.54282930  0.02421496  1
  O  O59  1  0.70608204  0.16287305  0.02433547  1
  O  O60  1  0.45625238  0.16230970  0.52467876  1
  O  O61  1  0.70573807  0.54184468  0.52560701  1
  O  O62  1  0.84027325  0.29530284  0.52325021  1
  O  O63  1  0.53804046  0.70521268  0.97365463  1
  O  O64  1  0.16638797  0.46058633  0.97440389  1
  O  O65  1  0.29394392  0.83355290  0.97430101  1
  O  O66  1  0.53821498  0.83343915  0.47525840  1
  O  O67  1  0.29185803  0.46118025  0.47366207  1
  O  O68  1  0.16511653  0.70451218  0.47521239  1
  O  O69  1  0.12419431  0.62046865  0.36031533  1
  O  O70  1  0.49902637  0.87367182  0.35927189  1
  O  O71  1  0.37374352  0.49681162  0.35776345  1
  O  O72  1  0.12409678  0.49688015  0.85827931  1
  O  O73  1  0.37324800  0.87597896  0.85832960  1
  O  O74  1  0.50567664  0.62865756  0.85678114  1
  O  O75  1  0.02672917  0.84003870  0.40925095  1
  O  O76  1  0.81259465  0.97837203  0.40977546  1
  O  O77  1  0.16384989  0.18987462  0.40953363  1
  O  O78  1  0.02679838  0.18770794  0.90976139  1
  O  O79  1  0.16064566  0.97273546  0.90945937  1
  O  O80  1  0.81285193  0.83943179  0.90947587  1
  O  O81  1  0.97489995  0.16118266  0.58985930  1
  O  O82  1  0.18542387  0.02417427  0.58986979  1
  O  O83  1  0.83893361  0.81479704  0.59013107  1
  O  O84  1  0.97576192  0.81415851  0.08958859  1
  O  O85  1  0.83891817  0.02494778  0.09007048  1
  O  O86  1  0.18499834  0.16112123  0.09007987  1
  O  O87  1  0.69322818  0.17304955  0.74238911  1
  O  O88  1  0.47891856  0.31152170  0.74263025  1
  O  O89  1  0.83045093  0.52355703  0.74238378  1
  O  O90  1  0.68729892  0.51973125  0.24257548  1
  O  O91  1  0.82690785  0.30751240  0.24277762  1
  O  O92  1  0.47755994  0.17013165  0.24232106  1
  O  O93  1  0.64027429  0.49363769  0.92341139  1
  O  O94  1  0.85287846  0.35911756  0.92364872  1
  O  O95  1  0.50640246  0.14758614  0.92374404  1
  O  O96  1  0.64273325  0.14752229  0.42406847  1
  O  O97  1  0.50997133  0.36216035  0.42405877  1
  O  O98  1  0.85534137  0.49321265  0.42432760  1
  O  O99  1  0.36023007  0.50635519  0.07607958  1
  O  O100  1  0.14625737  0.64001846  0.07596497  1
  O  O101  1  0.49367493  0.85322015  0.07586906  1
  O  O102  1  0.35967910  0.85350570  0.57650423  1
  O  O103  1  0.49335729  0.63943190  0.57640475  1
  O  O104  1  0.14732872  0.50643745  0.57612538  1
  O  O105  1  0.30550183  0.82488055  0.25698859  1
  O  O106  1  0.51818602  0.68890877  0.25685470  1
  O  O107  1  0.17343727  0.47887304  0.25734748  1
  O  O108  1  0.30929206  0.48062492  0.75716967  1
  O  O109  1  0.17615090  0.69517531  0.75727801  1
  O  O110  1  0.52232758  0.82658442  0.75740797  1
