# generated using pymatgen
data_Na3Ca2Ta2P5SO24
_symmetry_space_group_name_H-M   'P 1'
_cell_length_a   9.04522475
_cell_length_b   9.05021428
_cell_length_c   22.71700522
_cell_angle_alpha   90.42025142
_cell_angle_beta   89.67972947
_cell_angle_gamma   119.77365862
_symmetry_Int_Tables_number   1
_chemical_formula_structural   Na3Ca2Ta2P5SO24
_chemical_formula_sum   'Na9 Ca6 Ta6 P15 S3 O72'
_cell_volume   1614.11015761
_cell_formula_units_Z   3
loop_
 _symmetry_equiv_pos_site_id
 _symmetry_equiv_pos_as_xyz
  1  'x, y, z'
loop_
 _atom_site_type_symbol
 _atom_site_label
 _atom_site_symmetry_multiplicity
 _atom_site_fract_x
 _atom_site_fract_y
 _atom_site_fract_z
 _atom_site_occupancy
  Na  Na0  1  0.01900179  0.36196424  0.75485984  1
  Na  Na1  1  0.68965908  0.99884662  0.58720026  1
  Na  Na2  1  0.68925773  0.69619720  0.08767271  1
  Na  Na3  1  0.02418715  0.00697199  0.50733806  1
  Na  Na4  1  0.01760821  0.01913162  0.00613008  1
  Na  Na5  1  0.66336656  0.34821927  0.84256634  1
  Na  Na6  1  0.64828936  0.31788475  0.34010025  1
  Na  Na7  1  0.33063398  0.68531122  0.17662166  1
  Na  Na8  1  0.33442687  0.67456861  0.67627365  1
  Ca  Ca9  1  0.00671653  0.99451568  0.64650900  1
  Ca  Ca10  1  0.00576654  0.00709279  0.14715250  1
  Ca  Ca11  1  0.67124790  0.33069336  0.97840947  1
  Ca  Ca12  1  0.66407979  0.33430187  0.47729415  1
  Ca  Ca13  1  0.34064015  0.67031003  0.31181922  1
  Ca  Ca14  1  0.34106324  0.67471493  0.81409036  1
  Ta  Ta15  1  0.99891690  0.99663553  0.35133205  1
  Ta  Ta16  1  0.99346751  0.99781853  0.85042055  1
  Ta  Ta17  1  0.66327646  0.33792362  0.68495483  1
  Ta  Ta18  1  0.66049824  0.33146009  0.18425707  1
  Ta  Ta19  1  0.33166499  0.66166111  0.01860147  1
  Ta  Ta20  1  0.33755022  0.65889385  0.51924059  1
  P  P21  1  0.30346166  0.01637020  0.24831524  1
  P  P22  1  0.71319280  0.69464590  0.24569302  1
  P  P23  1  0.29899288  0.28499941  0.74956694  1
  P  P24  1  0.98281614  0.69459634  0.74941042  1
  P  P25  1  0.70896137  0.01643267  0.74574656  1
  P  P26  1  0.96682595  0.35017357  0.58258173  1
  P  P27  1  0.38041937  0.02950859  0.58117600  1
  P  P28  1  0.65325910  0.62066543  0.58149765  1
  P  P29  1  0.96577110  0.61656135  0.08261633  1
  P  P30  1  0.64861438  0.02932232  0.08176928  1
  P  P31  1  0.37714866  0.34611983  0.08083837  1
  P  P32  1  0.63861759  0.68288205  0.91583487  1
  P  P33  1  0.04733639  0.36182304  0.91210737  1
  P  P34  1  0.63787498  0.95142943  0.41593994  1
  P  P35  1  0.31439428  0.36041478  0.41303409  1
  S  S36  1  0.97846790  0.28588373  0.25152715  1
  S  S37  1  0.31126208  0.95183259  0.91748626  1
  S  S38  1  0.05097827  0.68501505  0.41567647  1
  O  O39  1  0.20115668  0.03531943  0.30452699  1
  O  O40  1  0.83872852  0.80541798  0.29972924  1
  O  O41  1  0.96384457  0.17218504  0.30421157  1
  O  O42  1  0.20068007  0.16308404  0.80494773  1
  O  O43  1  0.96688066  0.79699226  0.80556293  1
  O  O44  1  0.83766954  0.03407787  0.80002970  1
  O  O45  1  0.78583158  0.99970570  0.68888944  1
  O  O46  1  0.18996663  0.21008492  0.69616838  1
  O  O47  1  0.01083820  0.79381197  0.69454728  1
  O  O48  1  0.78445182  0.78735485  0.18868356  1
  O  O49  1  0.00193146  0.21381520  0.19778910  1
  O  O50  1  0.20614240  0.00051876  0.19365783  1
  O  O51  1  0.87270430  0.37357680  0.64051016  1
  O  O52  1  0.50277905  0.13364218  0.63741381  1
  O  O53  1  0.63482466  0.50399390  0.63759441  1
  O  O54  1  0.86738560  0.49511727  0.13845325  1
  O  O55  1  0.63052034  0.13025861  0.13826290  1
  O  O56  1  0.50129018  0.37082021  0.13693950  1
  O  O57  1  0.46008157  0.32656074  0.02681861  1
  O  O58  1  0.85621113  0.54056392  0.02963502  1
  O  O59  1  0.67701071  0.12965205  0.02734085  1
  O  O60  1  0.46567695  0.12918706  0.52720168  1
  O  O61  1  0.68305319  0.54832713  0.52688507  1
  O  O62  1  0.85491505  0.32100669  0.53092755  1
  O  O63  1  0.53943306  0.70263046  0.97330816  1
  O  O64  1  0.17244011  0.47287851  0.96668632  1
  O  O65  1  0.29779189  0.83994746  0.97013789  1
  O  O66  1  0.53791030  0.83277793  0.47344163  1
  O  O67  1  0.29781914  0.46448766  0.47030144  1
  O  O68  1  0.16162980  0.70540038  0.46907041  1
  O  O69  1  0.12486652  0.66333520  0.36243212  1
  O  O70  1  0.53041219  0.86953033  0.36345579  1
  O  O71  1  0.32701174  0.45995245  0.35985448  1
  O  O72  1  0.12056721  0.45499033  0.85546220  1
  O  O73  1  0.33123126  0.87860321  0.86353491  1
  O  O74  1  0.53578293  0.66601642  0.86271633  1
  O  O75  1  0.04754811  0.85312999  0.41251977  1
  O  O76  1  0.81200658  0.94627638  0.40918324  1
  O  O77  1  0.13986844  0.18267646  0.41007190  1
  O  O78  1  0.04952612  0.18663420  0.90997978  1
  O  O79  1  0.14347349  0.95162733  0.91655301  1
  O  O80  1  0.81511276  0.85878657  0.91039159  1
  O  O81  1  0.99634762  0.20030005  0.59069096  1
  O  O82  1  0.19882245  0.98885511  0.58723400  1
  O  O83  1  0.78539924  0.80571051  0.59049681  1
  O  O84  1  0.99630965  0.79593374  0.09159168  1
  O  O85  1  0.78671905  0.98281045  0.09118922  1
  O  O86  1  0.19576473  0.21049410  0.08893470  1
  O  O87  1  0.71746988  0.19625379  0.74571887  1
  O  O88  1  0.47511897  0.28880565  0.74314243  1
  O  O89  1  0.80571650  0.52084463  0.74540292  1
  O  O90  1  0.71638426  0.51982358  0.24327428  1
  O  O91  1  0.80981583  0.28306807  0.25004320  1
  O  O92  1  0.48159214  0.19084511  0.24444599  1
  O  O93  1  0.67574914  0.53911023  0.92213975  1
  O  O94  1  0.86674302  0.32270164  0.92096138  1
  O  O95  1  0.45057844  0.12496881  0.92441804  1
  O  O96  1  0.68412470  0.13489597  0.42332045  1
  O  O97  1  0.45920933  0.32482095  0.42001355  1
  O  O98  1  0.87677676  0.54774307  0.42267898  1
  O  O99  1  0.38319405  0.52698083  0.07737496  1
  O  O100  1  0.14189641  0.61984986  0.07561209  1
  O  O101  1  0.47184958  0.85377968  0.07646708  1
  O  O102  1  0.38662137  0.85546605  0.57927907  1
  O  O103  1  0.47261998  0.61481365  0.57704524  1
  O  O104  1  0.14342915  0.52116812  0.57524040  1
  O  O105  1  0.33800076  0.87104619  0.25552508  1
  O  O106  1  0.53217581  0.65483405  0.25472904  1
  O  O107  1  0.11603598  0.45930097  0.25936311  1
  O  O108  1  0.32945578  0.46421871  0.75849471  1
  O  O109  1  0.12113040  0.64783832  0.75773325  1
  O  O110  1  0.52956247  0.87613509  0.75461538  1
