# generated using pymatgen
data_Na14Zr4Al4Si9(SO16)3
_symmetry_space_group_name_H-M   'P 1'
_cell_length_a   18.09507631
_cell_length_b   9.04208276
_cell_length_c   22.30016602
_cell_angle_alpha   90.13554063
_cell_angle_beta   90.44774633
_cell_angle_gamma   119.97631619
_symmetry_Int_Tables_number   1
_chemical_formula_structural   Na14Zr4Al4Si9(SO16)3
_chemical_formula_sum   'Na42 Zr12 Al12 Si27 S9 O144'
_cell_volume   3160.43295569
_cell_formula_units_Z   3
loop_
 _symmetry_equiv_pos_site_id
 _symmetry_equiv_pos_as_xyz
  1  'x, y, z'
loop_
 _atom_site_type_symbol
 _atom_site_label
 _atom_site_symmetry_multiplicity
 _atom_site_fract_x
 _atom_site_fract_y
 _atom_site_fract_z
 _atom_site_occupancy
  Na  Na0  1  0.81790153  0.00490259  0.25406076  1
  Na  Na1  1  0.17341907  0.35546336  0.25367590  1
  Na  Na2  1  0.69057057  0.36950051  0.25389411  1
  Na  Na3  1  0.99615797  0.62963857  0.24564623  1
  Na  Na4  1  0.50627694  0.64858698  0.25279283  1
  Na  Na5  1  0.31704091  0.62964969  0.75066607  1
  Na  Na6  1  0.00429364  0.36072621  0.74624009  1
  Na  Na7  1  0.49757297  0.36409604  0.74244693  1
  Na  Na8  1  0.18923005  0.01213997  0.74967639  1
  Na  Na9  1  0.67835455  0.99444673  0.74924846  1
  Na  Na10  1  0.14846046  0.32774859  0.58247839  1
  Na  Na11  1  0.64945516  0.33332029  0.58236855  1
  Na  Na12  1  0.33462351  0.98162813  0.58654518  1
  Na  Na13  1  0.83212990  0.96751268  0.58152852  1
  Na  Na14  1  0.14201819  0.95971152  0.08088278  1
  Na  Na15  1  0.65177850  0.97308684  0.07993805  1
  Na  Na16  1  0.33229894  0.68819348  0.08180941  1
  Na  Na17  1  0.83464695  0.68752433  0.08648846  1
  Na  Na18  1  0.48333868  0.67913915  0.91426568  1
  Na  Na19  1  0.98499306  0.67433693  0.92148444  1
  Na  Na20  1  0.34647629  0.02395577  0.90878360  1
  Na  Na21  1  0.84609427  0.02535210  0.91125269  1
  Na  Na22  1  0.16944091  0.29819445  0.90931092  1
  Na  Na23  1  0.66798145  0.29961261  0.91046790  1
  Na  Na24  1  0.48725476  0.29946735  0.42529600  1
  Na  Na25  1  0.98064300  0.28671746  0.41960438  1
  Na  Na26  1  0.16706447  0.03598635  0.41420861  1
  Na  Na27  1  0.67359708  0.04640370  0.41580942  1
  Na  Na28  1  0.34646317  0.66647693  0.41527739  1
  Na  Na29  1  0.84547973  0.66627860  0.41836129  1
  Na  Na30  1  0.99834776  0.99542096  0.49809338  1
  Na  Na31  1  0.50511015  0.01290629  0.49893361  1
  Na  Na32  1  0.00258563  0.99583101  0.99778723  1
  Na  Na33  1  0.50380897  0.00121340  0.99473106  1
  Na  Na34  1  0.33014026  0.33558899  0.82854924  1
  Na  Na35  1  0.82644538  0.33116779  0.83421396  1
  Na  Na36  1  0.32623414  0.31832535  0.33822756  1
  Na  Na37  1  0.82959653  0.32491341  0.33326026  1
  Na  Na38  1  0.15710705  0.65145604  0.16880058  1
  Na  Na39  1  0.66426204  0.65818438  0.17066909  1
  Na  Na40  1  0.16220046  0.66784797  0.66935663  1
  Na  Na41  1  0.66361920  0.66353237  0.66465944  1
  Zr  Zr42  1  0.99935854  0.00631719  0.64303906  1
  Zr  Zr43  1  0.50174973  0.00304127  0.64819188  1
  Zr  Zr44  1  0.00076971  0.00020749  0.14879105  1
  Zr  Zr45  1  0.50507852  0.99025235  0.14693465  1
  Zr  Zr46  1  0.82918583  0.32799769  0.68558199  1
  Zr  Zr47  1  0.33106213  0.34215858  0.18910807  1
  Zr  Zr48  1  0.16249937  0.66402833  0.01775230  1
  Zr  Zr49  1  0.66837386  0.66699288  0.01922114  1
  Zr  Zr50  1  0.16736278  0.66954621  0.51954929  1
  Zr  Zr51  1  0.66689940  0.65892389  0.52027373  1
  Zr  Zr52  1  0.17490873  0.67373576  0.31277928  1
  Zr  Zr53  1  0.67576090  0.67785834  0.81131086  1
  Al  Al54  1  0.99639242  0.01481028  0.34725996  1
  Al  Al55  1  0.50456246  0.00527100  0.35161940  1
  Al  Al56  1  0.00445257  0.00026707  0.84956489  1
  Al  Al57  1  0.49649568  0.97946416  0.84614644  1
  Al  Al58  1  0.33614565  0.31782833  0.69139539  1
  Al  Al59  1  0.83590624  0.35364041  0.19169415  1
  Al  Al60  1  0.32386175  0.34620582  0.97822546  1
  Al  Al61  1  0.82285664  0.34510160  0.98269141  1
  Al  Al62  1  0.32347681  0.30188993  0.48308498  1
  Al  Al63  1  0.82569457  0.31955110  0.48398131  1
  Al  Al64  1  0.68715118  0.69087290  0.31633365  1
  Al  Al65  1  0.18534855  0.68329690  0.81462916  1
  Si  Si66  1  0.14321655  0.99983637  0.25449362  1
  Si  Si67  1  0.64948127  0.99499294  0.25504336  1
  Si  Si68  1  0.35982957  0.72100836  0.25270691  1
  Si  Si69  1  0.85393650  0.70978782  0.25314287  1
  Si  Si70  1  0.99414116  0.29124096  0.25063598  1
  Si  Si71  1  0.14733141  0.29996520  0.75376206  1
  Si  Si72  1  0.64320680  0.28445468  0.75577474  1
  Si  Si73  1  0.49418714  0.69778770  0.75093792  1
  Si  Si74  1  0.35374193  0.99786198  0.75322099  1
  Si  Si75  1  0.86098002  0.00598570  0.75381631  1
  Si  Si76  1  0.47086705  0.33627485  0.58378365  1
  Si  Si77  1  0.97710067  0.34181692  0.58083241  1
  Si  Si78  1  0.19418144  0.05205579  0.58617746  1
  Si  Si79  1  0.68472757  0.03983958  0.57908217  1
  Si  Si80  1  0.83668510  0.61730003  0.57737724  1
  Si  Si81  1  0.47654529  0.61235839  0.07963668  1
  Si  Si82  1  0.97120634  0.60561004  0.08377609  1
  Si  Si83  1  0.18501053  0.33061930  0.07920532  1
  Si  Si84  1  0.69268515  0.33576392  0.08622000  1
  Si  Si85  1  0.31749227  0.67214620  0.91581508  1
  Si  Si86  1  0.82164527  0.67125866  0.91760568  1
  Si  Si87  1  0.16813274  0.96484417  0.91283219  1
  Si  Si88  1  0.66827615  0.97594886  0.91829106  1
  Si  Si89  1  0.32204893  0.97230562  0.41754191  1
  Si  Si90  1  0.81823068  0.96910136  0.41582367  1
  Si  Si91  1  0.16786169  0.36015144  0.41749872  1
  Si  Si92  1  0.66611520  0.37041187  0.41082324  1
  S  S93  1  0.50108846  0.28954769  0.25330622  1
  S  S94  1  0.00244398  0.71245396  0.75461106  1
  S  S95  1  0.33457595  0.61368984  0.58196711  1
  S  S96  1  0.33522577  0.05031422  0.07997585  1
  S  S97  1  0.83500887  0.05534956  0.08213911  1
  S  S98  1  0.01855523  0.36895746  0.91280984  1
  S  S99  1  0.51533724  0.36760810  0.91706343  1
  S  S100  1  0.01718820  0.66581965  0.41529347  1
  S  S101  1  0.52003101  0.66979907  0.41271310  1
  O  O102  1  0.09457304  0.03076935  0.30990814  1
  O  O103  1  0.59890677  0.02885787  0.30883078  1
  O  O104  1  0.42161202  0.81918464  0.30924618  1
  O  O105  1  0.91880320  0.80923399  0.30907587  1
  O  O106  1  0.49026238  0.18611825  0.30710166  1
  O  O107  1  0.97968184  0.17392383  0.30964917  1
  O  O108  1  0.10016370  0.16943155  0.81041510  1
  O  O109  1  0.59279365  0.15893883  0.81166958  1
  O  O110  1  0.47871252  0.78352626  0.81101494  1
  O  O111  1  0.99183876  0.79580736  0.80912792  1
  O  O112  1  0.41660031  0.02602579  0.81066088  1
  O  O113  1  0.92058791  0.02313983  0.81155673  1
  O  O114  1  0.39115956  0.95797978  0.69190144  1
  O  O115  1  0.89900462  0.97842778  0.69168754  1
  O  O116  1  0.08665950  0.21827113  0.69338677  1
  O  O117  1  0.58995864  0.20888684  0.69230359  1
  O  O118  1  0.01498421  0.81667286  0.70064397  1
  O  O119  1  0.51691478  0.82870685  0.69484208  1
  O  O120  1  0.39689758  0.82046007  0.18942105  1
  O  O121  1  0.89113761  0.82333262  0.19108783  1
  O  O122  1  0.01772345  0.20745282  0.19375011  1
  O  O123  1  0.51240861  0.20754218  0.19868114  1
  O  O124  1  0.09097061  0.97136247  0.19049690  1
  O  O125  1  0.58828641  0.95295129  0.19308163  1
  O  O126  1  0.42751567  0.35139193  0.64549072  1
  O  O127  1  0.93835948  0.36174655  0.64449361  1
  O  O128  1  0.25169584  0.14334235  0.64581351  1
  O  O129  1  0.74097442  0.11982404  0.64182797  1
  O  O130  1  0.32328274  0.51540402  0.63678368  1
  O  O131  1  0.81975480  0.50368812  0.63807929  1
  O  O132  1  0.43629829  0.51171971  0.14256463  1
  O  O133  1  0.92802520  0.50374929  0.14518691  1
  O  O134  1  0.32454380  0.13011031  0.13502667  1
  O  O135  1  0.82368859  0.13182612  0.13688047  1
  O  O136  1  0.24271158  0.35852351  0.14084327  1
  O  O137  1  0.74978061  0.35601597  0.14559719  1
  O  O138  1  0.23298679  0.30476726  0.02196375  1
  O  O139  1  0.73090788  0.30221753  0.02473706  1
  O  O140  1  0.41459205  0.51267400  0.02256083  1
  O  O141  1  0.91521773  0.51018662  0.02310329  1
  O  O142  1  0.34283079  0.14739290  0.02561408  1
  O  O143  1  0.84175050  0.15006033  0.02654635  1
  O  O144  1  0.23189732  0.15941845  0.52419233  1
  O  O145  1  0.73134658  0.16011812  0.52163706  1
  O  O146  1  0.34150895  0.53182111  0.52631883  1
  O  O147  1  0.84368005  0.52234395  0.51787159  1
  O  O148  1  0.41424370  0.31668126  0.52306190  1
  O  O149  1  0.91675883  0.31449715  0.52289646  1
  O  O150  1  0.27305397  0.70424699  0.97568874  1
  O  O151  1  0.77862212  0.71008158  0.97685392  1
  O  O152  1  0.07354913  0.45122629  0.96753404  1
  O  O153  1  0.57344710  0.45510007  0.96992544  1
  O  O154  1  0.14680273  0.84507213  0.97396624  1
  O  O155  1  0.65016679  0.84754539  0.97612580  1
  O  O156  1  0.27829491  0.84634009  0.47585665  1
  O  O157  1  0.77248168  0.84205369  0.47320889  1
  O  O158  1  0.15043402  0.45497744  0.47459440  1
  O  O159  1  0.64211931  0.44508602  0.47078181  1
  O  O160  1  0.07450776  0.69413607  0.46842143  1
  O  O161  1  0.57377502  0.69750863  0.46647779  1
  O  O162  1  0.05785203  0.63991784  0.36176243  1
  O  O163  1  0.55904017  0.63962696  0.35898265  1
  O  O164  1  0.25211057  0.87977803  0.36317468  1
  O  O165  1  0.75397174  0.88033652  0.35784591  1
  O  O166  1  0.18700922  0.48716977  0.35957707  1
  O  O167  1  0.67895848  0.50366063  0.35557116  1
  O  O168  1  0.05881118  0.47951198  0.86056182  1
  O  O169  1  0.55328678  0.47508586  0.86359671  1
  O  O170  1  0.18260834  0.85873809  0.85846330  1
  O  O171  1  0.68672024  0.88448207  0.86130564  1
  O  O172  1  0.25170450  0.63213077  0.85970809  1
  O  O173  1  0.75065725  0.62317873  0.86442552  1
  O  O174  1  0.01033660  0.82194120  0.41218674  1
  O  O175  1  0.51252785  0.82789845  0.40872898  1
  O  O176  1  0.41468578  0.98453888  0.40689079  1
  O  O177  1  0.91215192  0.98076249  0.40846214  1
  O  O178  1  0.08154195  0.17257195  0.40942313  1
  O  O179  1  0.58079168  0.17649236  0.40408250  1
  O  O180  1  0.01287179  0.19856810  0.91002319  1
  O  O181  1  0.50895413  0.19835827  0.91368311  1
  O  O182  1  0.08286324  0.98665438  0.90575014  1
  O  O183  1  0.58180176  0.99081104  0.91054899  1
  O  O184  1  0.41164940  0.84565222  0.90971082  1
  O  O185  1  0.91513470  0.84314380  0.90767888  1
  O  O186  1  0.47941472  0.15891642  0.58480334  1
  O  O187  1  0.98683900  0.16770931  0.58287668  1
  O  O188  1  0.09916805  0.03010340  0.59052038  1
  O  O189  1  0.59192765  0.02928711  0.58316265  1
  O  O190  1  0.40836763  0.79095065  0.58391669  1
  O  O191  1  0.91734136  0.81178425  0.58333255  1
  O  O192  1  0.48299863  0.80476522  0.08227492  1
  O  O193  1  0.98096917  0.80062703  0.08395564  1
  O  O194  1  0.40976227  0.02460543  0.08465836  1
  O  O195  1  0.90859511  0.02501001  0.08393284  1
  O  O196  1  0.09210139  0.15799205  0.08258321  1
  O  O197  1  0.59581444  0.16673829  0.08977467  1
  O  O198  1  0.34446053  0.16992233  0.74832038  1
  O  O199  1  0.85357007  0.18063739  0.75289342  1
  O  O200  1  0.24218089  0.31980623  0.74442169  1
  O  O201  1  0.73731475  0.30001589  0.75183413  1
  O  O202  1  0.40912451  0.51046405  0.74139700  1
  O  O203  1  0.92550986  0.53965076  0.75083052  1
  O  O204  1  0.35369281  0.53009860  0.25063419  1
  O  O205  1  0.84413200  0.51881275  0.24733854  1
  O  O206  1  0.42358287  0.30758592  0.24834529  1
  O  O207  1  0.90906312  0.30783285  0.24091157  1
  O  O208  1  0.23865509  0.17207742  0.24899526  1
  O  O209  1  0.74249926  0.16478900  0.24381626  1
  O  O210  1  0.32647435  0.49855713  0.92197553  1
  O  O211  1  0.82979228  0.49845272  0.92426720  1
  O  O212  1  0.42963912  0.34852048  0.92483237  1
  O  O213  1  0.93248508  0.34679251  0.92051629  1
  O  O214  1  0.25663665  0.15390841  0.92261040  1
  O  O215  1  0.75746056  0.16199525  0.92738987  1
  O  O216  1  0.33011843  0.16149102  0.42365801  1
  O  O217  1  0.82755511  0.16020154  0.42375567  1
  O  O218  1  0.25709457  0.35236664  0.42655479  1
  O  O219  1  0.75337234  0.35666460  0.41805771  1
  O  O220  1  0.43282272  0.51876891  0.41913174  1
  O  O221  1  0.93290330  0.51078843  0.42048046  1
  O  O222  1  0.18201071  0.50868157  0.07753552  1
  O  O223  1  0.68603316  0.51167570  0.08089240  1
  O  O224  1  0.07228017  0.64813999  0.07930201  1
  O  O225  1  0.57586884  0.65426235  0.07825367  1
  O  O226  1  0.25556762  0.87587519  0.07858084  1
  O  O227  1  0.75526378  0.87774735  0.07952559  1
  O  O228  1  0.18750693  0.86254102  0.58044175  1
  O  O229  1  0.67835309  0.85434347  0.57599389  1
  O  O230  1  0.25498052  0.63177112  0.57911112  1
  O  O231  1  0.74969228  0.63629535  0.57678021  1
  O  O232  1  0.07659034  0.50228245  0.57864757  1
  O  O233  1  0.56994278  0.49435543  0.57896498  1
  O  O234  1  0.14838404  0.82547831  0.25709486  1
  O  O235  1  0.65417505  0.81647346  0.26192753  1
  O  O236  1  0.26069865  0.67829875  0.25334932  1
  O  O237  1  0.75730607  0.68734040  0.25798925  1
  O  O238  1  0.07920522  0.48166067  0.25724101  1
  O  O239  1  0.57707234  0.46385615  0.25676043  1
  O  O240  1  0.15356931  0.49039379  0.76285886  1
  O  O241  1  0.64769238  0.46879390  0.75913240  1
  O  O242  1  0.07944496  0.69203408  0.75972773  1
  O  O243  1  0.57904917  0.67719538  0.75826388  1
  O  O244  1  0.25690178  0.82757859  0.75820889  1
  O  O245  1  0.76186203  0.84498033  0.75442456  1
