# generated using pymatgen
data_Sr8MgMn6O20
_symmetry_space_group_name_H-M   'P 1'
_cell_length_a   5.55557300
_cell_length_b   6.78278744
_cell_length_c   13.97564942
_cell_angle_alpha   89.60228564
_cell_angle_beta   90.00000000
_cell_angle_gamma   114.17560114
_symmetry_Int_Tables_number   1
_chemical_formula_structural   Sr8MgMn6O20
_chemical_formula_sum   'Sr8 Mg1 Mn6 O20'
_cell_volume   480.43163246
_cell_formula_units_Z   1
loop_
 _symmetry_equiv_pos_site_id
 _symmetry_equiv_pos_as_xyz
  1  'x, y, z'
loop_
 _atom_site_type_symbol
 _atom_site_label
 _atom_site_symmetry_multiplicity
 _atom_site_fract_x
 _atom_site_fract_y
 _atom_site_fract_z
 _atom_site_occupancy
  Sr  Sr0  1  0.24036100  0.48072200  0.11042800  1
  Sr  Sr1  1  0.75963900  0.51927700  0.88957100  1
  Sr  Sr2  1  0.74339200  0.48678300  0.40001100  1
  Sr  Sr3  1  0.25660800  0.51321600  0.59998900  1
  Sr  Sr4  1  0.96993100  0.93986100  0.62686700  1
  Sr  Sr5  1  0.03007000  0.06014000  0.37313300  1
  Sr  Sr6  1  0.54308500  0.08616900  0.19736000  1
  Sr  Sr7  1  0.45691600  0.91383200  0.80264000  1
  Mg  Mg8  1  0.50000000  0.00000000  0.00000000  1
  Mn  Mn9  1  0.63076000  0.26152000  0.64725300  1
  Mn  Mn10  1  0.36924000  0.73848000  0.35274700  1
  Mn  Mn11  1  0.87676900  0.75353900  0.16214800  1
  Mn  Mn12  1  0.12323100  0.24646100  0.83785200  1
  Mn  Mn13  1  0.50000000  0.00000000  0.50000000  1
  Mn  Mn14  1  0.00000000  0.00000000  0.00000000  1
  O  O15  1  0.36035800  0.21706100  0.73710700  1
  O  O16  1  0.14329800  0.78293800  0.26289300  1
  O  O17  1  0.63964000  0.78293800  0.26289300  1
  O  O18  1  0.85670200  0.21706100  0.73710700  1
  O  O19  1  0.16009800  0.78205500  0.46508700  1
  O  O20  1  0.37804400  0.21794500  0.53491300  1
  O  O21  1  0.34723500  0.20627700  0.96180900  1
  O  O22  1  0.14095800  0.79372300  0.03819200  1
  O  O23  1  0.83990200  0.21794500  0.53491300  1
  O  O24  1  0.62195600  0.78205500  0.46508700  1
  O  O25  1  0.65276500  0.79372300  0.03819200  1
  O  O26  1  0.85904300  0.20627700  0.96180900  1
  O  O27  1  0.77768300  0.55536700  0.64842700  1
  O  O28  1  0.22231700  0.44463300  0.35157200  1
  O  O29  1  0.04018200  0.08036400  0.13836700  1
  O  O30  1  0.95981800  0.91963600  0.86163400  1
  O  O31  1  0.45713900  0.91427900  0.63239100  1
  O  O32  1  0.72788200  0.45576500  0.15925900  1
  O  O33  1  0.27211800  0.54423500  0.84074100  1
  O  O34  1  0.54286000  0.08572100  0.36761000  1
