# generated using pymatgen
data_MgSc2Cr2O8
_symmetry_space_group_name_H-M   'P 1'
_cell_length_a   5.30521895
_cell_length_b   5.30522857
_cell_length_c   6.48057100
_cell_angle_alpha   90.00028582
_cell_angle_beta   89.99990459
_cell_angle_gamma   65.64776960
_symmetry_Int_Tables_number   1
_chemical_formula_structural   MgSc2Cr2O8
_chemical_formula_sum   'Mg1 Sc2 Cr2 O8'
_cell_volume   166.16987691
_cell_formula_units_Z   1
loop_
 _symmetry_equiv_pos_site_id
 _symmetry_equiv_pos_as_xyz
  1  'x, y, z'
loop_
 _atom_site_type_symbol
 _atom_site_label
 _atom_site_symmetry_multiplicity
 _atom_site_fract_x
 _atom_site_fract_y
 _atom_site_fract_z
 _atom_site_occupancy
  Mg  Mg0  1  0.66078600  0.66078600  0.24999800  1
  Sc  Sc1  1  0.00474400  0.00474300  0.99393300  1
  Sc  Sc2  1  0.00474400  0.00474500  0.50606700  1
  Cr  Cr3  1  0.34472900  0.34473000  0.25000200  1
  Cr  Cr4  1  0.64632500  0.64632600  0.74999900  1
  O  O5  1  0.27103700  0.78647800  0.74999900  1
  O  O6  1  0.24767400  0.73257300  0.24999900  1
  O  O7  1  0.23027000  0.23029200  0.03682400  1
  O  O8  1  0.23029300  0.23027100  0.46318100  1
  O  O9  1  0.76392800  0.76391500  0.52152300  1
  O  O10  1  0.76391600  0.76392900  0.97847500  1
  O  O11  1  0.73257300  0.24767500  0.25000200  1
  O  O12  1  0.78647900  0.27103600  0.75000100  1
