# generated using pymatgen
data_Na15Ta5Zn7Si9(SO8)9
_symmetry_space_group_name_H-M   'P 1'
_cell_length_a   9.07576162
_cell_length_b   8.99499185
_cell_length_c   22.50116435
_cell_angle_alpha   90.35141940
_cell_angle_beta   90.71288769
_cell_angle_gamma   120.31200035
_symmetry_Int_Tables_number   1
_chemical_formula_structural   Na15Ta5Zn7Si9(SO8)9
_chemical_formula_sum   'Na15 Ta5 Zn7 Si9 S9 O72'
_cell_volume   1585.50261830
_cell_formula_units_Z   1
loop_
 _symmetry_equiv_pos_site_id
 _symmetry_equiv_pos_as_xyz
  1  'x, y, z'
loop_
 _atom_site_type_symbol
 _atom_site_label
 _atom_site_symmetry_multiplicity
 _atom_site_fract_x
 _atom_site_fract_y
 _atom_site_fract_z
 _atom_site_occupancy
  Na  Na0  1  0.63234028  0.00738906  0.23918094  1
  Na  Na1  1  0.99126767  0.64275531  0.24926435  1
  Na  Na2  1  0.65160658  0.63893394  0.75344098  1
  Na  Na3  1  0.35063490  0.99964939  0.74494091  1
  Na  Na4  1  0.97675649  0.68968860  0.91335572  1
  Na  Na5  1  0.70614277  0.01388035  0.91845368  1
  Na  Na6  1  0.31413079  0.29788619  0.91832319  1
  Na  Na7  1  0.30347713  0.02035764  0.41220732  1
  Na  Na8  1  0.70872571  0.68028545  0.40815849  1
  Na  Na9  1  0.01560903  0.01413543  0.49806072  1
  Na  Na10  1  0.99794765  0.00228787  0.99268594  1
  Na  Na11  1  0.68870280  0.34972181  0.82772495  1
  Na  Na12  1  0.65012928  0.33648637  0.32213110  1
  Na  Na13  1  0.34894652  0.67506322  0.15339292  1
  Na  Na14  1  0.31296906  0.65895471  0.66043780  1
  Ta  Ta15  1  0.98902625  0.98659125  0.14589294  1
  Ta  Ta16  1  0.66875111  0.32569366  0.97936636  1
  Ta  Ta17  1  0.66863851  0.33951359  0.48006542  1
  Ta  Ta18  1  0.33015378  0.65798857  0.31272945  1
  Ta  Ta19  1  0.32020337  0.66229920  0.81887422  1
  Zn  Zn20  1  0.01598500  0.98987589  0.34974665  1
  Zn  Zn21  1  0.99421249  0.98442842  0.85291611  1
  Zn  Zn22  1  0.00564259  0.98934303  0.65295615  1
  Zn  Zn23  1  0.69019547  0.34531915  0.68180563  1
  Zn  Zn24  1  0.63586981  0.31653425  0.18468461  1
  Zn  Zn25  1  0.35104260  0.68380808  0.01380852  1
  Zn  Zn26  1  0.30961429  0.64766522  0.51379345  1
  Si  Si27  1  0.29731639  0.00437653  0.25275356  1
  Si  Si28  1  0.70506471  0.70202487  0.25288450  1
  Si  Si29  1  0.99889570  0.70247588  0.74932451  1
  Si  Si30  1  0.66173363  0.03624032  0.08825521  1
  Si  Si31  1  0.62492495  0.66583755  0.91790116  1
  Si  Si32  1  0.04404354  0.37354220  0.92231667  1
  Si  Si33  1  0.32810361  0.95736102  0.91971494  1
  Si  Si34  1  0.32205546  0.36936074  0.42008065  1
  Si  Si35  1  0.04424414  0.66619193  0.41942094  1
  S  S36  1  0.00524346  0.28826938  0.25076854  1
  S  S37  1  0.29214409  0.29788641  0.74921136  1
  S  S38  1  0.70198762  0.99870341  0.74936264  1
  S  S39  1  0.95754750  0.32799177  0.58463575  1
  S  S40  1  0.37983238  0.04388323  0.58439795  1
  S  S41  1  0.66462125  0.62959422  0.58447639  1
  S  S42  1  0.95828559  0.62325604  0.08596237  1
  S  S43  1  0.37069930  0.33016497  0.08377029  1
  S  S44  1  0.62249369  0.95877498  0.41884467  1
  O  O45  1  0.22332815  0.02865345  0.31342239  1
  O  O46  1  0.81171947  0.79080023  0.31274839  1
  O  O47  1  0.97843526  0.18547895  0.30365685  1
  O  O48  1  0.21761377  0.20081565  0.80368646  1
  O  O49  1  0.96665233  0.78018293  0.80973241  1
  O  O50  1  0.80086890  0.02661437  0.80464451  1
  O  O51  1  0.78205140  0.97194539  0.69690218  1
  O  O52  1  0.18515886  0.22236079  0.69542763  1
  O  O53  1  0.05588357  0.83266161  0.69327532  1
  O  O54  1  0.80566959  0.83848602  0.19482014  1
  O  O55  1  0.03085100  0.20667713  0.19659781  1
  O  O56  1  0.16260240  0.97197208  0.19534188  1
  O  O57  1  0.87807755  0.34957475  0.63760262  1
  O  O58  1  0.48048968  0.13167568  0.63893517  1
  O  O59  1  0.64344294  0.52510116  0.63709555  1
  O  O60  1  0.87475733  0.52916573  0.13943154  1
  O  O61  1  0.65902602  0.13458793  0.14715387  1
  O  O62  1  0.47612982  0.35740116  0.13668217  1
  O  O63  1  0.45625517  0.30578188  0.02905457  1
  O  O64  1  0.84593437  0.54133673  0.03096718  1
  O  O65  1  0.68881656  0.16491691  0.02844146  1
  O  O66  1  0.47985112  0.15532764  0.53024357  1
  O  O67  1  0.68154994  0.52761549  0.52964069  1
  O  O68  1  0.84427138  0.31448383  0.53042782  1
  O  O69  1  0.54473859  0.70728235  0.97241929  1
  O  O70  1  0.16633093  0.45733082  0.97780915  1
  O  O71  1  0.28058490  0.83127892  0.97341831  1
  O  O72  1  0.54660185  0.85378991  0.47070958  1
  O  O73  1  0.32511089  0.46738362  0.47844084  1
  O  O74  1  0.17503071  0.72125760  0.47377435  1
  O  O75  1  0.13588886  0.63387104  0.35863209  1
  O  O76  1  0.50834372  0.87943157  0.36312178  1
  O  O77  1  0.36994035  0.50416960  0.36132222  1
  O  O78  1  0.13206746  0.50670377  0.86261796  1
  O  O79  1  0.37338752  0.87188652  0.85896562  1
  O  O80  1  0.49898433  0.62653707  0.85594851  1
  O  O81  1  0.99641388  0.81548827  0.41376769  1
  O  O82  1  0.79270214  0.98839118  0.40914052  1
  O  O83  1  0.16549388  0.17782747  0.41220915  1
  O  O84  1  0.00505920  0.18292231  0.90651784  1
  O  O85  1  0.18172201  0.00449270  0.90905015  1
  O  O86  1  0.81560376  0.82628198  0.91091974  1
  O  O87  1  0.96413340  0.16756640  0.58490802  1
  O  O88  1  0.21481956  0.03820788  0.58198201  1
  O  O89  1  0.82580233  0.79576356  0.58403305  1
  O  O90  1  0.96833686  0.80150171  0.08824158  1
  O  O91  1  0.84871925  0.03013248  0.09185579  1
  O  O92  1  0.20024037  0.16293092  0.08815130  1
  O  O93  1  0.66318887  0.14047251  0.74326027  1
  O  O94  1  0.46459615  0.31526935  0.74350784  1
  O  O95  1  0.82426979  0.51369674  0.74341902  1
  O  O96  1  0.69985864  0.52306953  0.24113260  1
  O  O97  1  0.86591248  0.32443989  0.24357938  1
  O  O98  1  0.49336073  0.15342732  0.24804097  1
  O  O99  1  0.63516296  0.48581607  0.92570166  1
  O  O100  1  0.85499907  0.36852463  0.92684097  1
  O  O101  1  0.51279657  0.14669913  0.92497177  1
  O  O102  1  0.62726252  0.13079943  0.42421702  1
  O  O103  1  0.50605369  0.35215550  0.42707544  1
  O  O104  1  0.85095090  0.48413874  0.42833996  1
  O  O105  1  0.34356587  0.47474035  0.07745910  1
  O  O106  1  0.12631099  0.64759637  0.07955464  1
  O  O107  1  0.50129001  0.84680522  0.08126742  1
  O  O108  1  0.36704269  0.87523580  0.57860566  1
  O  O109  1  0.51446034  0.64695531  0.57623255  1
  O  O110  1  0.12672951  0.48393451  0.57954098  1
  O  O111  1  0.30045837  0.81510726  0.25707624  1
  O  O112  1  0.51798847  0.69720508  0.25723666  1
  O  O113  1  0.16928429  0.46458589  0.25494994  1
  O  O114  1  0.32130179  0.48037051  0.75421618  1
  O  O115  1  0.17929545  0.68709377  0.75726536  1
  O  O116  1  0.52707260  0.83137786  0.75347403  1
