# generated using pymatgen
data_Na14Y4In4Si7S5O48
_symmetry_space_group_name_H-M   'P 1'
_cell_length_a   18.75380017
_cell_length_b   9.38893631
_cell_length_c   22.71048661
_cell_angle_alpha   89.88092393
_cell_angle_beta   89.72125732
_cell_angle_gamma   119.99679962
_symmetry_Int_Tables_number   1
_chemical_formula_structural   Na14Y4In4Si7S5O48
_chemical_formula_sum   'Na42 Y12 In12 Si21 S15 O144'
_cell_volume   3463.10551150
_cell_formula_units_Z   3
loop_
 _symmetry_equiv_pos_site_id
 _symmetry_equiv_pos_as_xyz
  1  'x, y, z'
loop_
 _atom_site_type_symbol
 _atom_site_label
 _atom_site_symmetry_multiplicity
 _atom_site_fract_x
 _atom_site_fract_y
 _atom_site_fract_z
 _atom_site_occupancy
  Na  Na0  1  0.81104439  0.97657390  0.22617731  1
  Na  Na1  1  0.18356972  0.35570585  0.26217675  1
  Na  Na2  1  0.68823947  0.36226856  0.26030129  1
  Na  Na3  1  0.00460480  0.66033554  0.23398577  1
  Na  Na4  1  0.50061371  0.65231445  0.23362771  1
  Na  Na5  1  0.31167117  0.63784914  0.75067532  1
  Na  Na6  1  0.99578235  0.34481331  0.74227858  1
  Na  Na7  1  0.50748899  0.36011913  0.74409099  1
  Na  Na8  1  0.18513050  0.01520314  0.76620791  1
  Na  Na9  1  0.68818060  0.01922373  0.76792593  1
  Na  Na10  1  0.14399093  0.32945337  0.58317753  1
  Na  Na11  1  0.65025386  0.33726776  0.58423355  1
  Na  Na12  1  0.34078180  0.97829571  0.57878001  1
  Na  Na13  1  0.83688578  0.97473587  0.58336398  1
  Na  Na14  1  0.14737370  0.96145485  0.08615227  1
  Na  Na15  1  0.65412928  0.95866772  0.09166000  1
  Na  Na16  1  0.33883530  0.69982419  0.08453463  1
  Na  Na17  1  0.83755427  0.70491404  0.07729731  1
  Na  Na18  1  0.49352775  0.69279127  0.93707493  1
  Na  Na19  1  0.98281938  0.68986213  0.94137814  1
  Na  Na20  1  0.33790865  0.00873336  0.90737491  1
  Na  Na21  1  0.83724694  0.00626970  0.92771162  1
  Na  Na22  1  0.17020051  0.29876028  0.90249092  1
  Na  Na23  1  0.67608057  0.30838282  0.90058751  1
  Na  Na24  1  0.48299656  0.27970761  0.43419462  1
  Na  Na25  1  0.98566347  0.28674719  0.42913681  1
  Na  Na26  1  0.17532193  0.03944194  0.39525545  1
  Na  Na27  1  0.67543701  0.04360866  0.39674872  1
  Na  Na28  1  0.33226423  0.65616724  0.39591629  1
  Na  Na29  1  0.83464095  0.66028978  0.40182666  1
  Na  Na30  1  0.00068754  0.01306557  0.49893205  1
  Na  Na31  1  0.50078883  0.00280679  0.49900632  1
  Na  Na32  1  0.99555952  0.00055442  0.00195656  1
  Na  Na33  1  0.50620278  0.99353535  0.00075251  1
  Na  Na34  1  0.32433473  0.33142245  0.83297277  1
  Na  Na35  1  0.82676685  0.35084978  0.83132670  1
  Na  Na36  1  0.32494787  0.30442170  0.32595923  1
  Na  Na37  1  0.82820018  0.32639318  0.32926026  1
  Na  Na38  1  0.16817303  0.67517014  0.16951246  1
  Na  Na39  1  0.66389367  0.66215115  0.16412416  1
  Na  Na40  1  0.15707205  0.65762307  0.66707349  1
  Na  Na41  1  0.67066410  0.66148661  0.67076349  1
  Y  Y42  1  -0.00033245  0.00012520  0.34881254  1
  Y  Y43  1  0.49477038  0.99662665  0.34927623  1
  Y  Y44  1  0.99443790  0.99211326  0.84963746  1
  Y  Y45  1  0.50167484  0.00340434  0.85019662  1
  Y  Y46  1  0.33689319  0.33073776  0.68291665  1
  Y  Y47  1  0.83647795  0.33572910  0.18059374  1
  Y  Y48  1  0.33516981  0.33712859  0.98275038  1
  Y  Y49  1  0.83226725  0.32158174  0.98665032  1
  Y  Y50  1  0.33151700  0.33111090  0.48342151  1
  Y  Y51  1  0.83323407  0.33236873  0.48330399  1
  Y  Y52  1  0.66997578  0.67001872  0.31501039  1
  Y  Y53  1  0.16920720  0.67091439  0.81519660  1
  In  In54  1  0.99493285  0.01729864  0.65346948  1
  In  In55  1  0.50286352  0.03000416  0.65218413  1
  In  In56  1  0.99618660  0.97773917  0.14645092  1
  In  In57  1  0.49639923  0.97745912  0.15268563  1
  In  In58  1  0.83713417  0.33401849  0.68570715  1
  In  In59  1  0.33593536  0.34115394  0.18478157  1
  In  In60  1  0.16649629  0.67418938  0.01645494  1
  In  In61  1  0.67176804  0.68637562  0.02105908  1
  In  In62  1  0.16467829  0.65569423  0.51656389  1
  In  In63  1  0.66715923  0.65677664  0.51667544  1
  In  In64  1  0.17971977  0.68642205  0.31241503  1
  In  In65  1  0.68454366  0.67945874  0.81488709  1
  Si  Si66  1  0.15256548  -0.00016726  0.24505153  1
  Si  Si67  1  0.65135348  -0.00050425  0.24842105  1
  Si  Si68  1  0.34371172  0.68776457  0.24786507  1
  Si  Si69  1  0.84779588  0.69231886  0.25187240  1
  Si  Si70  1  0.15034185  0.30149620  0.74729476  1
  Si  Si71  1  0.65604290  0.31415202  0.74636403  1
  Si  Si72  1  0.34729450  0.99902366  0.74795628  1
  Si  Si73  1  0.84417632  0.00004749  0.74531967  1
  Si  Si74  1  0.49192121  0.34174279  0.58367201  1
  Si  Si75  1  0.98783585  0.34176233  0.58432944  1
  Si  Si76  1  0.48713047  0.63589407  0.08425357  1
  Si  Si77  1  0.99265380  0.63820624  0.08369277  1
  Si  Si78  1  0.83689483  0.02202401  0.08298397  1
  Si  Si79  1  0.31695237  0.66885837  0.92083043  1
  Si  Si80  1  0.81203761  0.65487306  0.92338278  1
  Si  Si81  1  0.16458050  0.96979495  0.91755120  1
  Si  Si82  1  0.66663610  0.96297589  0.91482527  1
  Si  Si83  1  0.31056716  0.95934342  0.42469193  1
  Si  Si84  1  0.81587832  0.96217260  0.42446576  1
  Si  Si85  1  0.16633246  0.36979053  0.41663727  1
  Si  Si86  1  0.66365354  0.35805459  0.41768444  1
  S  S87  1  0.00144226  0.30083838  0.25157620  1
  S  S88  1  0.49709522  0.29383256  0.24876271  1
  S  S89  1  0.99900254  0.70455476  0.74699883  1
  S  S90  1  0.50073798  0.70924975  0.74665175  1
  S  S91  1  0.17574565  0.02279114  0.58531750  1
  S  S92  1  0.67954668  0.02708144  0.58715716  1
  S  S93  1  0.33645917  0.64720219  0.58408120  1
  S  S94  1  0.83814578  0.64154581  0.58315514  1
  S  S95  1  0.33820358  0.03497825  0.08259180  1
  S  S96  1  0.18348862  0.33939669  0.08581470  1
  S  S97  1  0.67394772  0.32380546  0.08496881  1
  S  S98  1  0.01682785  0.36613550  0.91485798  1
  S  S99  1  0.52219990  0.37850620  0.91376983  1
  S  S100  1  0.02074379  0.66825528  0.41530142  1
  S  S101  1  0.51766014  0.66937909  0.41762143  1
  O  O102  1  0.11219118  0.03528480  0.30381089  1
  O  O103  1  0.60390027  0.01329256  0.30717719  1
  O  O104  1  0.39359151  0.78563659  0.30621543  1
  O  O105  1  0.89573611  0.77865432  0.31229650  1
  O  O106  1  0.49505874  0.21521513  0.30601033  1
  O  O107  1  0.99821385  0.22171790  0.30955965  1
  O  O108  1  0.10741968  0.18609840  0.80559056  1
  O  O109  1  0.61152288  0.19134839  0.80265820  1
  O  O110  1  0.49616390  0.78422585  0.80335110  1
  O  O111  1  0.99821747  0.78087318  0.80397985  1
  O  O112  1  0.39977146  0.00966652  0.80601282  1
  O  O113  1  0.90252949  0.00867482  0.79920226  1
  O  O114  1  0.39056036  0.97876497  0.68783982  1
  O  O115  1  0.88388677  0.98784581  0.68207088  1
  O  O116  1  0.10375010  0.20839562  0.68618671  1
  O  O117  1  0.60492368  0.23543316  0.68505472  1
  O  O118  1  0.00032167  0.80473812  0.69636845  1
  O  O119  1  0.50939905  0.81918634  0.69647080  1
  O  O120  1  0.38842461  0.78750378  0.18730936  1
  O  O121  1  0.89479985  0.81297269  0.19615784  1
  O  O122  1  0.01186998  0.20831106  0.20295997  1
  O  O123  1  0.50020993  0.19644355  0.19876982  1
  O  O124  1  0.09764852  0.97673301  0.18588543  1
  O  O125  1  0.60138819  0.99436109  0.18865345  1
  O  O126  1  0.44607924  0.33963308  0.64492742  1
  O  O127  1  0.94192628  0.34969392  0.64455800  1
  O  O128  1  0.22512994  0.11613745  0.63773091  1
  O  O129  1  0.72752960  0.11353378  0.64026717  1
  O  O130  1  0.33767117  0.55466503  0.63702111  1
  O  O131  1  0.83433403  0.53413788  0.63214969  1
  O  O132  1  0.43918847  0.53312321  0.14388381  1
  O  O133  1  0.94735387  0.54803676  0.14480744  1
  O  O134  1  0.33207204  0.13330581  0.13103684  1
  O  O135  1  0.82773282  0.12182372  0.13853820  1
  O  O136  1  0.23252669  0.35229622  0.13894674  1
  O  O137  1  0.72290453  0.33461433  0.13842173  1
  O  O138  1  0.22483877  0.31917179  0.03259368  1
  O  O139  1  0.71744980  0.30884109  0.03208164  1
  O  O140  1  0.43344593  0.54712841  0.02588431  1
  O  O141  1  0.93667849  0.53398622  0.02799103  1
  O  O142  1  0.33765130  0.10844922  0.02454744  1
  O  O143  1  0.83590138  0.10867679  0.02102526  1
  O  O144  1  0.21857150  0.12285676  0.53171114  1
  O  O145  1  0.72098253  0.13124911  0.53395968  1
  O  O146  1  0.33153338  0.55417562  0.53007663  1
  O  O147  1  0.83613275  0.56450148  0.52555590  1
  O  O148  1  0.43509964  0.32926782  0.52753969  1
  O  O149  1  0.93571526  0.32916086  0.52566708  1
  O  O150  1  0.27013613  0.67836045  0.98086242  1
  O  O151  1  0.77158719  0.67076551  0.98543357  1
  O  O152  1  0.07084666  0.45703101  0.96471109  1
  O  O153  1  0.57125858  0.47063641  0.96480269  1
  O  O154  1  0.15682551  0.86235685  0.97657329  1
  O  O155  1  0.65222864  0.85471761  0.97491009  1
  O  O156  1  0.27099795  0.86728239  0.48851344  1
  O  O157  1  0.77306582  0.86574808  0.48707436  1
  O  O158  1  0.15688519  0.44698585  0.47938872  1
  O  O159  1  0.65685269  0.44636195  0.47842002  1
  O  O160  1  0.06790250  0.67645296  0.46824102  1
  O  O161  1  0.56893988  0.68230882  0.46829697  1
  O  O162  1  0.05579286  0.64406846  0.36050754  1
  O  O163  1  0.55257961  0.65082765  0.36132356  1
  O  O164  1  0.24269826  0.86999532  0.37325295  1
  O  O165  1  0.75501255  0.86263852  0.37018173  1
  O  O166  1  0.17590064  0.48468223  0.35930172  1
  O  O167  1  0.66817108  0.46151387  0.35870864  1
  O  O168  1  0.05391364  0.44810901  0.85782909  1
  O  O169  1  0.55491007  0.46491327  0.85707555  1
  O  O170  1  0.16964284  0.87933437  0.85760363  1
  O  O171  1  0.66878872  0.86497713  0.85550271  1
  O  O172  1  0.26285721  0.65229662  0.86233215  1
  O  O173  1  0.74577391  0.60632140  0.87025155  1
  O  O174  1  0.01826868  0.82524682  0.41388374  1
  O  O175  1  0.51008504  0.81997793  0.41705381  1
  O  O176  1  0.39924665  0.96663581  0.41837616  1
  O  O177  1  0.90659197  0.97864175  0.42043086  1
  O  O178  1  0.08522376  0.18350800  0.41508430  1
  O  O179  1  0.58166699  0.17308556  0.41833529  1
  O  O180  1  0.00673695  0.19760668  0.91623549  1
  O  O181  1  0.51760399  0.21362889  0.91402560  1
  O  O182  1  0.08364778  0.99507973  0.91916422  1
  O  O183  1  0.58648300  0.99287812  0.91528152  1
  O  O184  1  0.40781392  0.83541849  0.91989063  1
  O  O185  1  0.90051200  0.82842392  0.91680154  1
  O  O186  1  0.49933579  0.16946676  0.57868814  1
  O  O187  1  0.99625742  0.17028004  0.58210544  1
  O  O188  1  0.09233315  0.00331878  0.58604727  1
  O  O189  1  0.59533752  0.00542191  0.58842656  1
  O  O190  1  0.41110854  0.81337359  0.58058555  1
  O  O191  1  0.91355699  0.80693156  0.58417852  1
  O  O192  1  0.49432629  0.82334418  0.08313730  1
  O  O193  1  0.00245437  0.82363401  0.07788404  1
  O  O194  1  0.41421192  0.02202829  0.08514724  1
  O  O195  1  0.91979786  0.00364415  0.08424700  1
  O  O196  1  0.09995310  0.19352038  0.08813013  1
  O  O197  1  0.59090329  0.17175341  0.08619564  1
  O  O198  1  0.33859170  0.16557000  0.74940391  1
  O  O199  1  0.84212613  0.17607901  0.75011980  1
  O  O200  1  0.24738175  0.34248695  0.74641872  1
  O  O201  1  0.74856030  0.33559888  0.74211695  1
  O  O202  1  0.41998440  0.54955636  0.74351645  1
  O  O203  1  0.92616153  0.53558076  0.74735548  1
  O  O204  1  0.34153992  0.50767332  0.25133256  1
  O  O205  1  0.84073752  0.51127350  0.24992904  1
  O  O206  1  0.42321366  0.31417380  0.24780295  1
  O  O207  1  0.92209658  0.30214556  0.24769255  1
  O  O208  1  0.24553626  0.16312834  0.23984953  1
  O  O209  1  0.74494215  0.15822641  0.24921525  1
  O  O210  1  0.32781973  0.50473080  0.91976325  1
  O  O211  1  0.83137464  0.50231557  0.92320092  1
  O  O212  1  0.43485875  0.34610709  0.91866950  1
  O  O213  1  0.93489816  0.35270489  0.91875551  1
  O  O214  1  0.25043876  0.15159852  0.91699261  1
  O  O215  1  0.75115683  0.14508937  0.91420386  1
  O  O216  1  0.32891620  0.15111773  0.42302521  1
  O  O217  1  0.82798043  0.14911211  0.42243211  1
  O  O218  1  0.25115113  0.35485979  0.41623815  1
  O  O219  1  0.74899931  0.34587252  0.41662765  1
  O  O220  1  0.43299578  0.52303158  0.42232085  1
  O  O221  1  0.93376847  0.52721586  0.41982206  1
  O  O222  1  0.18092340  0.49526895  0.08301323  1
  O  O223  1  0.66678527  0.47340743  0.08355301  1
  O  O224  1  0.08867048  0.66678844  0.08363484  1
  O  O225  1  0.58069950  0.66495991  0.08460689  1
  O  O226  1  0.26423959  0.86524348  0.08751391  1
  O  O227  1  0.75429154  0.83453244  0.08909294  1
  O  O228  1  0.17289976  0.86216438  0.58586538  1
  O  O229  1  0.67666107  0.86644473  0.58429757  1
  O  O230  1  0.26075424  0.66260222  0.58996520  1
  O  O231  1  0.76332385  0.66035472  0.58884278  1
  O  O232  1  0.08408255  0.50118156  0.58391575  1
  O  O233  1  0.58633040  0.50316534  0.58321071  1
  O  O234  1  0.15088935  0.82172415  0.25131560  1
  O  O235  1  0.65361206  0.82594111  0.24741717  1
  O  O236  1  0.24823624  0.64785879  0.24600777  1
  O  O237  1  0.75387871  0.66385878  0.24893651  1
  O  O238  1  0.07153133  0.47376835  0.25038291  1
  O  O239  1  0.57248802  0.46127546  0.24580601  1
  O  O240  1  0.14927772  0.47576059  0.74855773  1
  O  O241  1  0.65248923  0.48578941  0.75258590  1
  O  O242  1  0.07536435  0.69059654  0.74385677  1
  O  O243  1  0.56907426  0.67508171  0.74565005  1
  O  O244  1  0.25475671  0.83811788  0.74744153  1
  O  O245  1  0.74966170  0.84996572  0.74658763  1
