# generated using pymatgen
data_Na7Zr2Si5Sn2PO24
_symmetry_space_group_name_H-M   'P 1'
_cell_length_a   9.14803989
_cell_length_b   9.14322539
_cell_length_c   22.97927137
_cell_angle_alpha   90.05357538
_cell_angle_beta   89.86559653
_cell_angle_gamma   119.97353394
_symmetry_Int_Tables_number   1
_chemical_formula_structural   Na7Zr2Si5Sn2PO24
_chemical_formula_sum   'Na21 Zr6 Si15 Sn6 P3 O72'
_cell_volume   1664.97957391
_cell_formula_units_Z   3
loop_
 _symmetry_equiv_pos_site_id
 _symmetry_equiv_pos_as_xyz
  1  'x, y, z'
loop_
 _atom_site_type_symbol
 _atom_site_label
 _atom_site_symmetry_multiplicity
 _atom_site_fract_x
 _atom_site_fract_y
 _atom_site_fract_z
 _atom_site_occupancy
  Na  Na0  1  0.63567184  0.00039880  0.25061718  1
  Na  Na1  1  0.36516133  0.36547489  0.24922889  1
  Na  Na2  1  0.99983808  0.63388369  0.25021648  1
  Na  Na3  1  0.63427683  0.63364510  0.74905347  1
  Na  Na4  1  0.99898851  0.36501318  0.74974731  1
  Na  Na5  1  0.36709591  0.00147613  0.74988794  1
  Na  Na6  1  0.30011058  0.33250316  0.58409412  1
  Na  Na7  1  0.03193163  0.69959578  0.58364015  1
  Na  Na8  1  0.66841108  0.96824454  0.58360645  1
  Na  Na9  1  0.29769292  0.96816202  0.08308423  1
  Na  Na10  1  0.03425548  0.33471274  0.08421720  1
  Na  Na11  1  0.97040052  0.66802557  0.91666738  1
  Na  Na12  1  0.33093868  0.29802419  0.91676957  1
  Na  Na13  1  0.33270111  0.03043241  0.41668602  1
  Na  Na14  1  0.70137049  0.66816804  0.41707700  1
  Na  Na15  1  0.99787113  0.00242334  0.49961614  1
  Na  Na16  1  0.99472678  0.99705460  0.00001088  1
  Na  Na17  1  0.66710493  0.32693521  0.83321936  1
  Na  Na18  1  0.67289148  0.33245448  0.33437181  1
  Na  Na19  1  0.33651341  0.66459381  0.16634213  1
  Na  Na20  1  0.33369839  0.66634258  0.66668327  1
  Zr  Zr21  1  0.66779843  0.33896389  0.18540875  1
  Zr  Zr22  1  0.66664891  0.32955672  0.98205540  1
  Zr  Zr23  1  0.33103022  0.66248251  0.01789767  1
  Zr  Zr24  1  0.33398135  0.67049645  0.51817791  1
  Zr  Zr25  1  0.33077044  0.66941908  0.31521772  1
  Zr  Zr26  1  0.33109918  0.66943454  0.81459051  1
  Si  Si27  1  0.28867406  0.00060761  0.25047512  1
  Si  Si28  1  0.71138329  0.71236143  0.25014013  1
  Si  Si29  1  0.00003933  0.28754943  0.24957111  1
  Si  Si30  1  0.29175495  0.28944021  0.74927843  1
  Si  Si31  1  0.99723984  0.70955351  0.74965397  1
  Si  Si32  1  0.71149710  0.00186962  0.74931921  1
  Si  Si33  1  0.95687537  0.33119917  0.58452831  1
  Si  Si34  1  0.37648296  0.04588879  0.58353823  1
  Si  Si35  1  0.66816926  0.62349135  0.58365578  1
  Si  Si36  1  0.95784176  0.63053841  0.08333761  1
  Si  Si37  1  0.37214836  0.33383315  0.08391489  1
  Si  Si38  1  0.03688533  0.36813491  0.91576747  1
  Si  Si39  1  0.33329006  0.96157072  0.91629365  1
  Si  Si40  1  0.63235879  0.96603149  0.41666921  1
  Si  Si41  1  0.03518671  0.66426154  0.41668237  1
  Sn  Sn42  1  0.99663142  0.00026535  0.35137549  1
  Sn  Sn43  1  0.99927375  0.00296657  0.85089916  1
  Sn  Sn44  1  0.99973445  0.00000288  0.64838146  1
  Sn  Sn45  1  0.99878546  0.99625070  0.14875143  1
  Sn  Sn46  1  0.66705941  0.33320892  0.68494207  1
  Sn  Sn47  1  0.67409527  0.33248310  0.48253624  1
  P  P48  1  0.66828380  0.03963939  0.08429913  1
  P  P49  1  0.62788760  0.67056126  0.91604469  1
  P  P50  1  0.33141957  0.37142132  0.41677490  1
  O  O51  1  0.20965959  0.03965003  0.30851316  1
  O  O52  1  0.82828338  0.78751128  0.30835349  1
  O  O53  1  0.96107266  0.16680683  0.30619758  1
  O  O54  1  0.21269675  0.17185779  0.80737794  1
  O  O55  1  0.95979214  0.78929085  0.80797427  1
  O  O56  1  0.83265019  0.04029696  0.80579182  1
  O  O57  1  0.78863927  0.96075446  0.69111269  1
  O  O58  1  0.17212646  0.21066681  0.69172822  1
  O  O59  1  0.03872267  0.82859538  0.69186059  1
  O  O60  1  0.79218825  0.83412068  0.19373478  1
  O  O61  1  0.03797379  0.20948479  0.19082712  1
  O  O62  1  0.17196807  0.96064860  0.19243778  1
  O  O63  1  0.87917271  0.37335769  0.64234126  1
  O  O64  1  0.49509355  0.12299781  0.64135843  1
  O  O65  1  0.62827768  0.50488523  0.64157230  1
  O  O66  1  0.87663735  0.50691204  0.14006230  1
  O  O67  1  0.63503924  0.11994679  0.13855369  1
  O  O68  1  0.48823418  0.36022129  0.14111553  1
  O  O69  1  0.45698185  0.29643513  0.02701561  1
  O  O70  1  0.84297012  0.53905420  0.02603199  1
  O  O71  1  0.70000011  0.15636962  0.03103463  1
  O  O72  1  0.45642781  0.16373905  0.52537440  1
  O  O73  1  0.70442957  0.54249789  0.52538247  1
  O  O74  1  0.83525468  0.29065172  0.52822001  1
  O  O75  1  0.54209562  0.69647015  0.96959892  1
  O  O76  1  0.15998262  0.45683208  0.97257652  1
  O  O77  1  0.29901860  0.84059987  0.97327946  1
  O  O78  1  0.54365798  0.84132481  0.47307701  1
  O  O79  1  0.30476052  0.45475366  0.47125466  1
  O  O80  1  0.15833817  0.70114531  0.47314847  1
  O  O81  1  0.12410056  0.63546201  0.35943051  1
  O  O82  1  0.50907738  0.87583720  0.36018652  1
  O  O83  1  0.36516474  0.48530004  0.36263338  1
  O  O84  1  0.12628449  0.49165228  0.85957628  1
  O  O85  1  0.36309673  0.87388740  0.85900967  1
  O  O86  1  0.51501372  0.63529767  0.86167392  1
  O  O87  1  0.02539081  0.84010617  0.41072010  1
  O  O88  1  0.81385364  0.97192663  0.41084880  1
  O  O89  1  0.17595684  0.19229772  0.41076886  1
  O  O90  1  0.02944982  0.18578849  0.91061308  1
  O  O91  1  0.15838835  0.97321018  0.91041570  1
  O  O92  1  0.80774781  0.82510407  0.91030662  1
  O  O93  1  0.97622151  0.16193814  0.58965918  1
  O  O94  1  0.18735457  0.02470942  0.58921161  1
  O  O95  1  0.83755438  0.81204470  0.58913965  1
  O  O96  1  0.98406828  0.82047184  0.08912446  1
  O  O97  1  0.83216035  0.03042910  0.08958941  1
  O  O98  1  0.18311035  0.16224601  0.08931289  1
  O  O99  1  0.69121906  0.17073866  0.74395250  1
  O  O100  1  0.48032505  0.30856750  0.74388341  1
  O  O101  1  0.82888952  0.52071981  0.74425975  1
  O  O102  1  0.69144514  0.52377911  0.24411223  1
  O  O103  1  0.83201788  0.30745754  0.24361505  1
  O  O104  1  0.47754619  0.16606009  0.24402194  1
  O  O105  1  0.64311963  0.50874074  0.92290036  1
  O  O106  1  0.85693909  0.36259643  0.92315732  1
  O  O107  1  0.49568010  0.15132245  0.92270311  1
  O  O108  1  0.63371813  0.14579883  0.42277100  1
  O  O109  1  0.49414179  0.35705880  0.42264758  1
  O  O110  1  0.84430366  0.50098585  0.42247366  1
  O  O111  1  0.34869070  0.49854290  0.07742367  1
  O  O112  1  0.14624285  0.64712355  0.07691893  1
  O  O113  1  0.50684083  0.86730548  0.07648089  1
  O  O114  1  0.35709359  0.85741857  0.57711847  1
  O  O115  1  0.49929514  0.64201265  0.57710509  1
  O  O116  1  0.14449799  0.49899100  0.57697663  1
  O  O117  1  0.30897066  0.83205672  0.25605655  1
  O  O118  1  0.52217035  0.68846613  0.25680200  1
  O  O119  1  0.16860128  0.47534655  0.25600464  1
  O  O120  1  0.31238463  0.47747610  0.75627401  1
  O  O121  1  0.16606336  0.69002683  0.75565900  1
  O  O122  1  0.52435295  0.83280450  0.75587248  1
