# generated using pymatgen
data_Na7Ca3TiP5SO24
_symmetry_space_group_name_H-M   'P 1'
_cell_length_a   9.33675300
_cell_length_b   9.34274689
_cell_length_c   22.58420082
_cell_angle_alpha   90.17196889
_cell_angle_beta   90.06769012
_cell_angle_gamma   120.09519850
_symmetry_Int_Tables_number   1
_chemical_formula_structural   Na7Ca3TiP5SO24
_chemical_formula_sum   'Na21 Ca9 Ti3 P15 S3 O72'
_cell_volume   1704.45033400
_cell_formula_units_Z   3
loop_
 _symmetry_equiv_pos_site_id
 _symmetry_equiv_pos_as_xyz
  1  'x, y, z'
loop_
 _atom_site_type_symbol
 _atom_site_label
 _atom_site_symmetry_multiplicity
 _atom_site_fract_x
 _atom_site_fract_y
 _atom_site_fract_z
 _atom_site_occupancy
  Na  Na0  1  0.62274058  0.99934853  0.25119652  1
  Na  Na1  1  0.36535538  0.35194193  0.25301045  1
  Na  Na2  1  0.01231748  0.64777125  0.24954207  1
  Na  Na3  1  0.65124454  0.64685738  0.75246036  1
  Na  Na4  1  0.99503047  0.35171353  0.75284842  1
  Na  Na5  1  0.29841159  0.34403339  0.58442324  1
  Na  Na6  1  0.02927923  0.69386432  0.58695471  1
  Na  Na7  1  0.66968990  0.95594756  0.58382917  1
  Na  Na8  1  0.29763876  0.96069272  0.07766557  1
  Na  Na9  1  0.66024221  0.69825853  0.07248841  1
  Na  Na10  1  0.04206600  0.34029974  0.07350554  1
  Na  Na11  1  0.97698411  0.67255013  0.90911756  1
  Na  Na12  1  0.32519195  0.29959479  0.90905435  1
  Na  Na13  1  0.33561932  0.02162531  0.41501948  1
  Na  Na14  1  0.68866779  0.67346953  0.42084517  1
  Na  Na15  1  0.99380938  0.01373032  0.49640250  1
  Na  Na16  1  0.98340867  0.00060040  0.99279958  1
  Na  Na17  1  0.65245380  0.30674534  0.83002389  1
  Na  Na18  1  0.66465422  0.31909813  0.33886929  1
  Na  Na19  1  0.33139186  0.67594785  0.16021265  1
  Na  Na20  1  0.33362105  0.67184122  0.67342124  1
  Ca  Ca21  1  0.00670450  0.00979672  0.35239863  1
  Ca  Ca22  1  0.99719096  0.00079605  0.84890385  1
  Ca  Ca23  1  0.99845860  0.99778585  0.65804591  1
  Ca  Ca24  1  0.00582266  0.99958258  0.14406379  1
  Ca  Ca25  1  0.66176421  0.33123916  0.68694883  1
  Ca  Ca26  1  0.66283021  0.33042763  0.17930204  1
  Ca  Ca27  1  0.33780747  0.67034854  0.01001402  1
  Ca  Ca28  1  0.32908687  0.65997165  0.51185675  1
  Ca  Ca29  1  0.32986175  0.66628501  0.32787239  1
  Ti  Ti30  1  0.66757874  0.32796542  0.98063420  1
  Ti  Ti31  1  0.68531385  0.34590221  0.48149545  1
  Ti  Ti32  1  0.33656805  0.67869568  0.81908607  1
  P  P33  1  0.30581755  0.99577871  0.25010989  1
  P  P34  1  0.30684586  0.32488695  0.75489529  1
  P  P35  1  0.01310657  0.69328929  0.75316971  1
  P  P36  1  0.68188861  0.98710014  0.75080062  1
  P  P37  1  0.95774057  0.33128954  0.58297929  1
  P  P38  1  0.66928749  0.62693398  0.58126862  1
  P  P39  1  0.95707613  0.62421318  0.08069284  1
  P  P40  1  0.66858491  0.04223642  0.08111270  1
  P  P41  1  0.37469029  0.33402938  0.07995236  1
  P  P42  1  0.62979613  0.65228577  0.91874466  1
  P  P43  1  0.02751942  0.37262419  0.91939102  1
  P  P44  1  0.34490644  0.97193166  0.91950071  1
  P  P45  1  0.64187478  0.98662969  0.42069779  1
  P  P46  1  0.35046315  0.35668319  0.42013931  1
  P  P47  1  0.01644320  0.66206281  0.41820223  1
  S  S48  1  0.69405803  0.69799754  0.25032827  1
  S  S49  1  0.00273567  0.30671335  0.24783782  1
  S  S50  1  0.37213148  0.04195100  0.57892429  1
  O  O51  1  0.21601784  0.00769103  0.30547069  1
  O  O52  1  0.79003671  0.78526594  0.30375270  1
  O  O53  1  0.98426973  0.20086026  0.29875125  1
  O  O54  1  0.22074061  0.21750331  0.80849657  1
  O  O55  1  0.98365517  0.77870328  0.80559056  1
  O  O56  1  0.80599408  0.01350604  0.79914190  1
  O  O57  1  0.73493174  0.94121241  0.69131007  1
  O  O58  1  0.20329083  0.25325879  0.69694182  1
  O  O59  1  0.04013662  0.78768615  0.69419422  1
  O  O60  1  0.77591166  0.79504717  0.19619636  1
  O  O61  1  0.01369005  0.22794819  0.19201869  1
  O  O62  1  0.20590634  0.98230090  0.19330390  1
  O  O63  1  0.88028401  0.34273033  0.64074655  1
  O  O64  1  0.46905451  0.12108011  0.63230639  1
  O  O65  1  0.65249631  0.53358783  0.63845327  1
  O  O66  1  0.88569655  0.53879043  0.14004939  1
  O  O67  1  0.65572727  0.11200045  0.14109044  1
  O  O68  1  0.46031708  0.34940609  0.13959190  1
  O  O69  1  0.48614731  0.32727579  0.02777768  1
  O  O70  1  0.84058978  0.51134631  0.02794356  1
  O  O71  1  0.67140469  0.16208526  0.03018260  1
  O  O72  1  0.46049701  0.13906806  0.52502911  1
  O  O73  1  0.67228845  0.51614607  0.52752566  1
  O  O74  1  0.84051712  0.33021972  0.53077536  1
  O  O75  1  0.56307963  0.67569146  0.97709065  1
  O  O76  1  0.11998847  0.44363053  0.97751070  1
  O  O77  1  0.31391656  0.87978973  0.97767150  1
  O  O78  1  0.55393218  0.87593711  0.47410550  1
  O  O79  1  0.33171076  0.44324909  0.47446273  1
  O  O80  1  0.12918677  0.69234577  0.47146746  1
  O  O81  1  0.08382645  0.63216288  0.36018647  1
  O  O82  1  0.53417206  0.91772880  0.36362654  1
  O  O83  1  0.37951474  0.46041907  0.36302281  1
  O  O84  1  0.12333760  0.49632475  0.86708861  1
  O  O85  1  0.35884652  0.86113285  0.86866563  1
  O  O86  1  0.50885166  0.63528841  0.86651951  1
  O  O87  1  0.97919303  0.80540909  0.41496267  1
  O  O88  1  0.81192117  0.00021605  0.41495943  1
  O  O89  1  0.20462593  0.17773578  0.41694994  1
  O  O90  1  0.01028810  0.20188070  0.91089455  1
  O  O91  1  0.19831694  0.00046581  0.90852442  1
  O  O92  1  0.81018879  0.79201078  0.91098339  1
  O  O93  1  0.96595851  0.16991468  0.57726552  1
  O  O94  1  0.20649380  0.03186652  0.58085617  1
  O  O95  1  0.83392953  0.79540331  0.57756525  1
  O  O96  1  0.95956498  0.79156700  0.07552870  1
  O  O97  1  0.83207767  0.03806846  0.07519082  1
  O  O98  1  0.20488254  0.17081343  0.07513255  1
  O  O99  1  0.66013277  0.13857950  0.74802795  1
  O  O100  1  0.48690449  0.36159652  0.75088807  1
  O  O101  1  0.86559935  0.51322371  0.75047969  1
  O  O102  1  0.68138239  0.53193422  0.24917325  1
  O  O103  1  0.85673105  0.33181557  0.24819780  1
  O  O104  1  0.48199450  0.15468941  0.25098083  1
  O  O105  1  0.63159424  0.48146827  0.92066068  1
  O  O106  1  0.85171180  0.36219867  0.92327053  1
  O  O107  1  0.50813275  0.14631520  0.92179212  1
  O  O108  1  0.65719018  0.16180148  0.42985681  1
  O  O109  1  0.51349009  0.34352731  0.42615624  1
  O  O110  1  0.84013932  0.50004361  0.42731051  1
  O  O111  1  0.35134285  0.48624786  0.07606156  1
  O  O112  1  0.13375759  0.65000780  0.07692421  1
  O  O113  1  0.51580087  0.86728272  0.07651610  1
  O  O114  1  0.34639946  0.87057386  0.57643668  1
  O  O115  1  0.51806219  0.65228786  0.57628363  1
  O  O116  1  0.13166842  0.48662839  0.57763309  1
  O  O117  1  0.32353937  0.83749788  0.25127665  1
  O  O118  1  0.52374351  0.67570604  0.25251734  1
  O  O119  1  0.15798364  0.47169481  0.25235359  1
  O  O120  1  0.31570654  0.49950334  0.76386657  1
  O  O121  1  0.17471616  0.67969057  0.76426318  1
  O  O122  1  0.50913220  0.82521425  0.76580721  1
