# generated using pymatgen
data_Na3InSiSn(PO6)2
_symmetry_space_group_name_H-M   'P 1'
_cell_length_a   9.08384746
_cell_length_b   9.08384714
_cell_length_c   22.56368221
_cell_angle_alpha   90.04760668
_cell_angle_beta   89.95239331
_cell_angle_gamma   119.85961204
_symmetry_Int_Tables_number   1
_chemical_formula_structural   Na3InSiSn(PO6)2
_chemical_formula_sum   'Na18 In6 Si6 Sn6 P12 O72'
_cell_volume   1614.70314374
_cell_formula_units_Z   6
loop_
 _symmetry_equiv_pos_site_id
 _symmetry_equiv_pos_as_xyz
  1  'x, y, z'
loop_
 _atom_site_type_symbol
 _atom_site_label
 _atom_site_symmetry_multiplicity
 _atom_site_fract_x
 _atom_site_fract_y
 _atom_site_fract_z
 _atom_site_occupancy
  Na  Na0  1  0.00162055  0.99431498  0.49764604  1
  Na  Na1  1  0.00568502  0.99837945  0.99764604  1
  Na  Na2  1  0.66610680  0.32514889  0.83126675  1
  Na  Na3  1  0.67485111  0.33389320  0.33126675  1
  Na  Na4  1  0.34693103  0.67416518  0.16426667  1
  Na  Na5  1  0.32583482  0.65306897  0.66426667  1
  Na  Na6  1  0.36196954  0.36111021  0.24762900  1
  Na  Na7  1  0.99448761  0.62781307  0.24764801  1
  Na  Na8  1  0.63888979  0.63803046  0.74762900  1
  Na  Na9  1  0.37218693  0.00551239  0.74764801  1
  Na  Na10  1  0.03922422  0.70032034  0.57924220  1
  Na  Na11  1  0.65450823  0.96461084  0.58518394  1
  Na  Na12  1  0.29967966  0.96077578  0.07924220  1
  Na  Na13  1  0.03538916  0.34549177  0.08518394  1
  Na  Na14  1  0.97433190  0.67585464  0.91946478  1
  Na  Na15  1  0.69747874  0.02763743  0.91090523  1
  Na  Na16  1  0.97236257  0.30252126  0.41090523  1
  Na  Na17  1  0.32414536  0.02566810  0.41946478  1
  In  In18  1  0.99058725  0.99233015  0.35038137  1
  In  In19  1  0.00766985  0.00941275  0.85038137  1
  In  In20  1  0.67004015  0.32879956  0.68408715  1
  In  In21  1  0.67120044  0.32995985  0.18408715  1
  In  In22  1  0.33324256  0.66623302  0.01690384  1
  In  In23  1  0.33376698  0.66675744  0.51690384  1
  Si  Si24  1  0.00075246  0.29598964  0.25189967  1
  Si  Si25  1  0.70401036  0.99924754  0.75189967  1
  Si  Si26  1  0.36700738  0.03860486  0.58390256  1
  Si  Si27  1  0.96139514  0.63299262  0.08390256  1
  Si  Si28  1  0.33554417  0.96824388  0.91793194  1
  Si  Si29  1  0.03175612  0.66445583  0.41793194  1
  Sn  Sn30  1  0.00580556  0.00825561  0.64932607  1
  Sn  Sn31  1  0.99174439  0.99419444  0.14932607  1
  Sn  Sn32  1  0.66286022  0.33645870  0.98243893  1
  Sn  Sn33  1  0.66354130  0.33713978  0.48243893  1
  Sn  Sn34  1  0.33130001  0.66496893  0.31597025  1
  Sn  Sn35  1  0.33503107  0.66869999  0.81597025  1
  P  P36  1  0.29489716  0.99728773  0.25070097  1
  P  P37  1  0.69872439  0.70432920  0.25012577  1
  P  P38  1  0.29567080  0.30127561  0.75012577  1
  P  P39  1  0.00271227  0.70510284  0.75070097  1
  P  P40  1  0.96089774  0.33014268  0.58195778  1
  P  P41  1  0.67026660  0.63116718  0.58617545  1
  P  P42  1  0.66985732  0.03910226  0.08195778  1
  P  P43  1  0.36883282  0.32973340  0.08617545  1
  P  P44  1  0.62593917  0.66106017  0.91561487  1
  P  P45  1  0.03663168  0.37334980  0.91876769  1
  P  P46  1  0.62665020  0.96336832  0.41876769  1
  P  P47  1  0.33893983  0.37406083  0.41561487  1
  O  O48  1  0.21694619  0.02528214  0.30699527  1
  O  O49  1  0.81503322  0.77772866  0.30370709  1
  O  O50  1  0.98305211  0.19396941  0.31233259  1
  O  O51  1  0.22227134  0.18496678  0.80370709  1
  O  O52  1  0.97471786  0.78305381  0.80699527  1
  O  O53  1  0.80603059  0.01694789  0.81233259  1
  O  O54  1  0.79194506  0.96471824  0.69238685  1
  O  O55  1  0.18664929  0.21991471  0.69334113  1
  O  O56  1  0.03925314  0.82258914  0.69505685  1
  O  O57  1  0.78008529  0.81335071  0.19334113  1
  O  O58  1  0.03528176  0.20805494  0.19238685  1
  O  O59  1  0.17741086  0.96074686  0.19505685  1
  O  O60  1  0.88339452  0.37020765  0.63545098  1
  O  O61  1  0.48067967  0.11757128  0.64279537  1
  O  O62  1  0.64911738  0.53395016  0.64384712  1
  O  O63  1  0.88242872  0.51932033  0.14279537  1
  O  O64  1  0.62979235  0.11660548  0.13545098  1
  O  O65  1  0.46604984  0.35088262  0.14384712  1
  O  O66  1  0.45422081  0.29386845  0.03198314  1
  O  O67  1  0.84823250  0.54538258  0.02312350  1
  O  O68  1  0.70273854  0.15121884  0.02494847  1
  O  O69  1  0.45461742  0.15176750  0.52312350  1
  O  O70  1  0.70613155  0.54577919  0.53198314  1
  O  O71  1  0.84878116  0.29726146  0.52494847  1
  O  O72  1  0.54016005  0.68850615  0.96892025  1
  O  O73  1  0.13367748  0.44467943  0.97683800  1
  O  O74  1  0.30186192  0.85471074  0.97709296  1
  O  O75  1  0.55532057  0.86632252  0.47683800  1
  O  O76  1  0.31149385  0.45983995  0.46892025  1
  O  O77  1  0.14528926  0.69813808  0.47709296  1
  O  O78  1  0.11816008  0.62593863  0.35866732  1
  O  O79  1  0.50806044  0.87242340  0.36478403  1
  O  O80  1  0.36654376  0.47811249  0.35711744  1
  O  O81  1  0.12757660  0.49193956  0.86478403  1
  O  O82  1  0.37406137  0.88183992  0.85866732  1
  O  O83  1  0.52188751  0.63345624  0.85711744  1
  O  O84  1  0.02187280  0.83753974  0.41216053  1
  O  O85  1  0.80926107  0.99713257  0.41316777  1
  O  O86  1  0.18049069  0.19562294  0.41231595  1
  O  O87  1  0.00286743  0.19073893  0.91316777  1
  O  O88  1  0.16246026  0.97812720  0.91216053  1
  O  O89  1  0.80437706  0.81950931  0.91231595  1
  O  O90  1  0.96113648  0.15900058  0.58799324  1
  O  O91  1  0.17260372  0.01234425  0.58780931  1
  O  O92  1  0.83554243  0.81089798  0.58816821  1
  O  O93  1  0.98765575  0.82739628  0.08780931  1
  O  O94  1  0.84099942  0.03886352  0.08799324  1
  O  O95  1  0.18910202  0.16445757  0.08816821  1
  O  O96  1  0.66942848  0.15823280  0.74875457  1
  O  O97  1  0.47780312  0.33150839  0.74436380  1
  O  O98  1  0.84076279  0.53245155  0.74389539  1
  O  O99  1  0.66849161  0.52219688  0.24436380  1
  O  O100  1  0.84176720  0.33057152  0.24875457  1
  O  O101  1  0.46754845  0.15923721  0.24389539  1
  O  O102  1  0.64828141  0.50156767  0.91991161  1
  O  O103  1  0.85980682  0.36650182  0.92017607  1
  O  O104  1  0.51636020  0.15243018  0.92221630  1
  O  O105  1  0.63349818  0.14019318  0.42017607  1
  O  O106  1  0.49843233  0.35171859  0.41991161  1
  O  O107  1  0.84756982  0.48363980  0.42221630  1
  O  O108  1  0.34291006  0.48327471  0.07886579  1
  O  O109  1  0.15173974  0.65292739  0.08089777  1
  O  O110  1  0.51650933  0.86033945  0.07669711  1
  O  O111  1  0.34707261  0.84826026  0.58089777  1
  O  O112  1  0.51672529  0.65708994  0.57886579  1
  O  O113  1  0.13966055  0.48349067  0.57669711  1
  O  O114  1  0.30839853  0.83261622  0.25494843  1
  O  O115  1  0.52205528  0.69236052  0.25616496  1
  O  O116  1  0.18130112  0.48612783  0.25266790  1
  O  O117  1  0.30763948  0.47794472  0.75616496  1
  O  O118  1  0.16738378  0.69160147  0.75494843  1
  O  O119  1  0.51387217  0.81869888  0.75266790  1
