# generated using pymatgen
data_Na14Hf3Zn5(PO4)12
_symmetry_space_group_name_H-M   'P 1'
_cell_length_a   18.10352213
_cell_length_b   9.04727417
_cell_length_c   22.32665078
_cell_angle_alpha   90.10100743
_cell_angle_beta   89.91132274
_cell_angle_gamma   120.15464516
_symmetry_Int_Tables_number   1
_chemical_formula_structural   Na14Hf3Zn5(PO4)12
_chemical_formula_sum   'Na42 Hf9 Zn15 P36 O144'
_cell_volume   3161.95264945
_cell_formula_units_Z   3
loop_
 _symmetry_equiv_pos_site_id
 _symmetry_equiv_pos_as_xyz
  1  'x, y, z'
loop_
 _atom_site_type_symbol
 _atom_site_label
 _atom_site_symmetry_multiplicity
 _atom_site_fract_x
 _atom_site_fract_y
 _atom_site_fract_z
 _atom_site_occupancy
  Na  Na0  1  0.18544804  0.35994247  0.24736881  1
  Na  Na1  1  0.68604478  0.36109329  0.24764592  1
  Na  Na2  1  0.99321611  0.62757488  0.24802175  1
  Na  Na3  1  0.49335915  0.62698508  0.24729492  1
  Na  Na4  1  0.31957285  0.62770278  0.74730285  1
  Na  Na5  1  0.82010332  0.62951826  0.74741655  1
  Na  Na6  1  0.18609438  0.01395245  0.74736166  1
  Na  Na7  1  0.68647945  0.01299583  0.74689862  1
  Na  Na8  1  0.15515079  0.34515913  0.57883126  1
  Na  Na9  1  0.65540692  0.34566400  0.57870402  1
  Na  Na10  1  0.01681695  0.68844168  0.57910522  1
  Na  Na11  1  0.51682050  0.68811016  0.57900188  1
  Na  Na12  1  0.32712925  0.96563793  0.57862186  1
  Na  Na13  1  0.82733872  0.96547847  0.57890711  1
  Na  Na14  1  0.15563348  0.96759679  0.07929406  1
  Na  Na15  1  0.65357724  0.96194165  0.08122904  1
  Na  Na16  1  0.32720426  0.68832897  0.07917014  1
  Na  Na17  1  0.01962523  0.34621893  0.08094363  1
  Na  Na18  1  0.51701123  0.34616657  0.07855440  1
  Na  Na19  1  0.48065740  0.66568980  0.91814693  1
  Na  Na20  1  0.98749113  0.68046765  0.91404165  1
  Na  Na21  1  0.35203831  0.03765974  0.91788531  1
  Na  Na22  1  0.16711192  0.29359088  0.91816095  1
  Na  Na23  1  0.66114462  0.29825534  0.91449401  1
  Na  Na24  1  0.48142184  0.29607536  0.41780273  1
  Na  Na25  1  0.98142703  0.29588791  0.41770200  1
  Na  Na26  1  0.16655582  0.03763166  0.41792587  1
  Na  Na27  1  0.66668680  0.03762794  0.41801133  1
  Na  Na28  1  0.35210946  0.66632611  0.41812227  1
  Na  Na29  1  0.85225401  0.66657294  0.41792355  1
  Na  Na30  1  0.99992839  0.00016464  0.49382815  1
  Na  Na31  1  0.49992856  0.00020048  0.49374130  1
  Na  Na32  1  0.99136963  0.99360182  0.99357126  1
  Na  Na33  1  0.49889814  0.99916101  0.99425051  1
  Na  Na34  1  0.33817561  0.33375171  0.83197062  1
  Na  Na35  1  0.83939225  0.32665045  0.82703948  1
  Na  Na36  1  0.33289876  0.32320500  0.33202272  1
  Na  Na37  1  0.83321706  0.32369414  0.33215599  1
  Na  Na38  1  0.17101028  0.67562128  0.16239601  1
  Na  Na39  1  0.67566562  0.67596566  0.16033053  1
  Na  Na40  1  0.16209397  0.65853386  0.66177021  1
  Na  Na41  1  0.66249601  0.65911361  0.66189600  1
  Hf  Hf42  1  0.99966829  0.00213788  0.64994365  1
  Hf  Hf43  1  0.49987282  0.00199647  0.64982335  1
  Hf  Hf44  1  0.99595747  0.99498838  0.14834962  1
  Hf  Hf45  1  0.49946200  0.00068996  0.14955767  1
  Hf  Hf46  1  0.83349372  0.33037797  0.98141880  1
  Hf  Hf47  1  0.16866104  0.67167890  0.31483014  1
  Hf  Hf48  1  0.66884618  0.67193708  0.31491582  1
  Hf  Hf49  1  0.16405718  0.66246182  0.81489064  1
  Hf  Hf50  1  0.66555576  0.66435543  0.81543836  1
  Zn  Zn51  1  0.99909739  0.00089134  0.34720609  1
  Zn  Zn52  1  0.49929297  0.00114819  0.34756701  1
  Zn  Zn53  1  0.99628608  0.00257039  0.84896662  1
  Zn  Zn54  1  0.49886743  0.00084154  0.84728335  1
  Zn  Zn55  1  0.33717409  0.33400246  0.68080392  1
  Zn  Zn56  1  0.83752008  0.33408163  0.68045933  1
  Zn  Zn57  1  0.33265306  0.32523964  0.18094255  1
  Zn  Zn58  1  0.83293949  0.32658688  0.18224252  1
  Zn  Zn59  1  0.33317666  0.33214898  0.98667071  1
  Zn  Zn60  1  0.33383861  0.33327908  0.48612259  1
  Zn  Zn61  1  0.83397214  0.33347594  0.48611803  1
  Zn  Zn62  1  0.16748916  0.66795240  0.01343164  1
  Zn  Zn63  1  0.67101732  0.66830903  0.01493204  1
  Zn  Zn64  1  0.16637293  0.66647862  0.51294624  1
  Zn  Zn65  1  0.66648752  0.66651833  0.51292805  1
  P  P66  1  0.14780447  0.00267865  0.25109404  1
  P  P67  1  0.64860698  0.00304816  0.25181796  1
  P  P68  1  0.35263868  0.70350290  0.25175137  1
  P  P69  1  0.85260583  0.70334964  0.25258988  1
  P  P70  1  0.99799777  0.29346635  0.25194495  1
  P  P71  1  0.49813745  0.29471907  0.25238641  1
  P  P72  1  0.14810124  0.29421761  0.75221733  1
  P  P73  1  0.64845607  0.29549302  0.75206349  1
  P  P74  1  0.99858850  0.70313259  0.75196978  1
  P  P75  1  0.49875889  0.70291622  0.75195647  1
  P  P76  1  0.35252807  0.00386094  0.75249174  1
  P  P77  1  0.85308614  0.00404442  0.75172540  1
  P  P78  1  0.48062581  0.33486587  0.58269311  1
  P  P79  1  0.98074765  0.33484383  0.58256173  1
  P  P80  1  0.18624595  0.03861063  0.58401707  1
  P  P81  1  0.68629107  0.03867950  0.58396700  1
  P  P82  1  0.33264975  0.62667433  0.58411584  1
  P  P83  1  0.83272352  0.62668168  0.58410603  1
  P  P84  1  0.48059868  0.62699358  0.08392304  1
  P  P85  1  0.98082170  0.62758170  0.08488114  1
  P  P86  1  0.33270845  0.03875826  0.08262587  1
  P  P87  1  0.83161581  0.03773815  0.08490808  1
  P  P88  1  0.18608074  0.33380745  0.08412356  1
  P  P89  1  0.68716626  0.33791295  0.08569789  1
  P  P90  1  0.31493705  0.66732704  0.91783067  1
  P  P91  1  0.81493177  0.67004454  0.91781065  1
  P  P92  1  0.01981006  0.36946847  0.91932894  1
  P  P93  1  0.51846628  0.37020155  0.91945162  1
  P  P94  1  0.16653003  0.96315020  0.91807097  1
  P  P95  1  0.66561041  0.95985052  0.91833903  1
  P  P96  1  0.31538503  0.96309817  0.41934089  1
  P  P97  1  0.81544444  0.96330258  0.41939911  1
  P  P98  1  0.16633619  0.37019796  0.41784721  1
  P  P99  1  0.66633273  0.37014057  0.41787156  1
  P  P100  1  0.01866783  0.66765024  0.41796552  1
  P  P101  1  0.51867724  0.66756659  0.41791484  1
  O  O102  1  0.10676675  0.02815870  0.30724784  1
  O  O103  1  0.60682994  0.02830651  0.30750194  1
  O  O104  1  0.40747270  0.78569000  0.30721149  1
  O  O105  1  0.90652130  0.78254606  0.30873481  1
  O  O106  1  0.48838494  0.19119126  0.30834925  1
  O  O107  1  0.98837569  0.19138285  0.30839258  1
  O  O108  1  0.10678575  0.18382776  0.80738205  1
  O  O109  1  0.60739850  0.18575090  0.80757637  1
  O  O110  1  0.48612163  0.78603615  0.80783653  1
  O  O111  1  0.98661179  0.78642251  0.80791701  1
  O  O112  1  0.40414131  0.02327404  0.80851479  1
  O  O113  1  0.90728831  0.02494930  0.80562593  1
  O  O114  1  0.39507531  0.97090391  0.69612335  1
  O  O115  1  0.89329968  0.96993686  0.69407829  1
  O  O116  1  0.09194584  0.20912741  0.69506996  1
  O  O117  1  0.59206512  0.20915775  0.69527250  1
  O  O118  1  0.01466075  0.82143006  0.69555826  1
  O  O119  1  0.51508347  0.82184411  0.69568113  1
  O  O120  1  0.39586802  0.81673047  0.19488926  1
  O  O121  1  0.89722342  0.82028417  0.19727633  1
  O  O122  1  0.01389792  0.20762609  0.19561350  1
  O  O123  1  0.51460277  0.20949614  0.19579126  1
  O  O124  1  0.08824642  0.96959568  0.19483898  1
  O  O125  1  0.58936061  0.97067313  0.19531613  1
  O  O126  1  0.43956986  0.36637599  0.63707061  1
  O  O127  1  0.93980106  0.36657783  0.63699466  1
  O  O128  1  0.23999205  0.11830157  0.64062855  1
  O  O129  1  0.73987168  0.11851202  0.64061776  1
  O  O130  1  0.31828995  0.51885406  0.64062495  1
  O  O131  1  0.81818577  0.51856743  0.64062066  1
  O  O132  1  0.44036256  0.51966790  0.14043873  1
  O  O133  1  0.94018226  0.51889667  0.14065493  1
  O  O134  1  0.31705984  0.12092086  0.13701040  1
  O  O135  1  0.81719828  0.12051088  0.13946247  1
  O  O136  1  0.24071465  0.36432859  0.14037492  1
  O  O137  1  0.73835880  0.35699645  0.14198637  1
  O  O138  1  0.22216542  0.29487907  0.02728712  1
  O  O139  1  0.72917983  0.30391908  0.02909169  1
  O  O140  1  0.42494286  0.55534852  0.02714529  1
  O  O141  1  0.92474059  0.54087339  0.02782436  1
  O  O142  1  0.35365582  0.14726590  0.02507076  1
  O  O143  1  0.84918308  0.15815481  0.02905029  1
  O  O144  1  0.22238546  0.14995489  0.52735244  1
  O  O145  1  0.72230891  0.14987619  0.52731337  1
  O  O146  1  0.35270971  0.55535887  0.52738049  1
  O  O147  1  0.85250015  0.55496306  0.52738148  1
  O  O148  1  0.42627513  0.29273283  0.52521987  1
  O  O149  1  0.92628528  0.29282340  0.52517061  1
  O  O150  1  0.27463186  0.69713456  0.97375817  1
  O  O151  1  0.77136160  0.69068339  0.97203654  1
  O  O152  1  0.07230527  0.44971617  0.97615327  1
  O  O153  1  0.57331788  0.44931096  0.97560493  1
  O  O154  1  0.15102874  0.85101590  0.97363849  1
  O  O155  1  0.65171781  0.85161129  0.97414126  1
  O  O156  1  0.27593703  0.85376790  0.47570563  1
  O  O157  1  0.77588303  0.85381611  0.47573728  1
  O  O158  1  0.15170596  0.45110328  0.47388383  1
  O  O159  1  0.65158269  0.45091107  0.47392532  1
  O  O160  1  0.07410771  0.69769276  0.47377591  1
  O  O161  1  0.57409253  0.69778354  0.47376005  1
  O  O162  1  0.06515341  0.64374560  0.36143049  1
  O  O163  1  0.56514683  0.64371541  0.36144576  1
  O  O164  1  0.25503689  0.86669013  0.36450602  1
  O  O165  1  0.75506749  0.86692366  0.36456816  1
  O  O166  1  0.17822828  0.48739479  0.36155724  1
  O  O167  1  0.67812947  0.48714986  0.36160756  1
  O  O168  1  0.06383351  0.49148589  0.86440813  1
  O  O169  1  0.56752809  0.49147186  0.86463929  1
  O  O170  1  0.17800388  0.86900140  0.86158875  1
  O  O171  1  0.67932597  0.87492505  0.86120589  1
  O  O172  1  0.25596259  0.64328063  0.86168591  1
  O  O173  1  0.75782504  0.63621116  0.86010377  1
  O  O174  1  0.01005848  0.82859743  0.41176198  1
  O  O175  1  0.50993605  0.82841705  0.41167405  1
  O  O176  1  0.40437300  0.98027624  0.41208883  1
  O  O177  1  0.90440768  0.98054173  0.41215048  1
  O  O178  1  0.08580956  0.19119368  0.41173029  1
  O  O179  1  0.58573500  0.19107761  0.41181271  1
  O  O180  1  0.01226451  0.19493823  0.91127298  1
  O  O181  1  0.50976468  0.19182294  0.91177237  1
  O  O182  1  0.08655011  0.98152254  0.91164547  1
  O  O183  1  0.58690189  0.98252154  0.91193182  1
  O  O184  1  0.40450859  0.82841764  0.91170161  1
  O  O185  1  0.90643105  0.81838953  0.91155914  1
  O  O186  1  0.48990831  0.16934933  0.59109494  1
  O  O187  1  0.99011757  0.16953758  0.59086468  1
  O  O188  1  0.09394597  0.01941017  0.59087284  1
  O  O189  1  0.59394348  0.01947528  0.59087281  1
  O  O190  1  0.41562622  0.81176683  0.59119241  1
  O  O191  1  0.91575926  0.81143413  0.59103252  1
  O  O192  1  0.49008559  0.81187393  0.09070209  1
  O  O193  1  0.99116714  0.81070728  0.08846189  1
  O  O194  1  0.41552010  0.02024556  0.09078369  1
  O  O195  1  0.91683205  0.03127861  0.08918185  1
  O  O196  1  0.09391589  0.16812942  0.09138489  1
  O  O197  1  0.59614764  0.16544978  0.08879116  1
  O  O198  1  0.33648475  0.15290637  0.74529173  1
  O  O199  1  0.83622345  0.15238817  0.74497508  1
  O  O200  1  0.23795380  0.31740362  0.74524266  1
  O  O201  1  0.73806055  0.31739048  0.74547573  1
  O  O202  1  0.41886546  0.52793688  0.74415647  1
  O  O203  1  0.91873099  0.52765356  0.74424512  1
  O  O204  1  0.34140125  0.52405154  0.24501858  1
  O  O205  1  0.84153280  0.52413158  0.24506345  1
  O  O206  1  0.42344337  0.32631377  0.24516212  1
  O  O207  1  0.92370983  0.32674931  0.24521616  1
  O  O208  1  0.23559243  0.16213080  0.24367578  1
  O  O209  1  0.73610679  0.16247896  0.24446409  1
  O  O210  1  0.32060711  0.50222982  0.91877445  1
  O  O211  1  0.81981237  0.49853878  0.92213021  1
  O  O212  1  0.43031060  0.35858761  0.91950429  1
  O  O213  1  0.93130568  0.36352009  0.92248431  1
  O  O214  1  0.24960291  0.13936287  0.91915644  1
  O  O215  1  0.74706740  0.14364786  0.92213401  1
  O  O216  1  0.32085266  0.13937136  0.41982545  1
  O  O217  1  0.82081363  0.13947444  0.41988170  1
  O  O218  1  0.24892115  0.35894828  0.41894179  1
  O  O219  1  0.74884910  0.35879211  0.41896489  1
  O  O220  1  0.43031067  0.50195499  0.41909043  1
  O  O221  1  0.93033925  0.50198255  0.41910612  1
  O  O222  1  0.17337348  0.49051158  0.07915966  1
  O  O223  1  0.66996297  0.48568298  0.07891683  1
  O  O224  1  0.07105846  0.65063759  0.07862279  1
  O  O225  1  0.57168913  0.65335674  0.07909534  1
  O  O226  1  0.25454808  0.85544737  0.07837270  1
  O  O227  1  0.75241515  0.86154182  0.07694488  1
  O  O228  1  0.17317550  0.85612599  0.57922035  1
  O  O229  1  0.67313871  0.85615801  0.57924241  1
  O  O230  1  0.25452940  0.65240724  0.57932862  1
  O  O231  1  0.75451431  0.65228334  0.57935289  1
  O  O232  1  0.07231839  0.49089152  0.57831242  1
  O  O233  1  0.57224429  0.49075616  0.57839414  1
  O  O234  1  0.15101436  0.83208216  0.25486922  1
  O  O235  1  0.65128822  0.83221542  0.25515908  1
  O  O236  1  0.26151652  0.68427548  0.25504102  1
  O  O237  1  0.76141425  0.68367798  0.25544534  1
  O  O238  1  0.08399439  0.47488534  0.25473733  1
  O  O239  1  0.58399770  0.47528886  0.25508639  1
  O  O240  1  0.15777762  0.47679331  0.75556366  1
  O  O241  1  0.65800126  0.47775298  0.75544031  1
  O  O242  1  0.08385656  0.69677863  0.75509674  1
  O  O243  1  0.58421524  0.69742272  0.75563883  1
  O  O244  1  0.26215912  0.83186121  0.75527781  1
  O  O245  1  0.76249935  0.83241870  0.75547064  1
