# generated using pymatgen
data_KSb2F7
_symmetry_space_group_name_H-M   'P 1'
_cell_length_a   7.55752417
_cell_length_b   8.43981295
_cell_length_c   10.42911439
_cell_angle_alpha   78.47584222
_cell_angle_beta   90.00000000
_cell_angle_gamma   90.00000000
_symmetry_Int_Tables_number   1
_chemical_formula_structural   KSb2F7
_chemical_formula_sum   'K4 Sb8 F28'
_cell_volume   651.80128012
_cell_formula_units_Z   4
loop_
 _symmetry_equiv_pos_site_id
 _symmetry_equiv_pos_as_xyz
  1  'x, y, z'
loop_
 _atom_site_type_symbol
 _atom_site_label
 _atom_site_symmetry_multiplicity
 _atom_site_fract_x
 _atom_site_fract_y
 _atom_site_fract_z
 _atom_site_occupancy
  K  K0  1  0.33469860  0.33007727  0.42967126  1
  K  K1  1  0.83469860  0.16992273  0.57032874  1
  K  K2  1  0.66530140  0.66992273  0.57032874  1
  K  K3  1  0.16530140  0.83007727  0.42967126  1
  Sb  Sb4  1  0.68696017  0.98742558  0.24959752  1
  Sb  Sb5  1  0.18696017  0.51257442  0.75040248  1
  Sb  Sb6  1  0.31303983  0.01257442  0.75040248  1
  Sb  Sb7  1  0.81303983  0.48742558  0.24959752  1
  Sb  Sb8  1  0.32093913  0.66079885  0.09921427  1
  Sb  Sb9  1  0.82093913  0.83920115  0.90078573  1
  Sb  Sb10  1  0.67906087  0.33920115  0.90078573  1
  Sb  Sb11  1  0.17906087  0.16079885  0.09921427  1
  F  F12  1  0.42929923  0.05501459  0.11883493  1
  F  F13  1  0.92929923  0.44498541  0.88116507  1
  F  F14  1  0.57070077  0.94498541  0.88116507  1
  F  F15  1  0.07070077  0.55501459  0.11883493  1
  F  F16  1  0.10810833  0.93261651  0.12472218  1
  F  F17  1  0.60810833  0.56738349  0.87527782  1
  F  F18  1  0.89189167  0.06738349  0.87527782  1
  F  F19  1  0.39189167  0.43261651  0.12472218  1
  F  F20  1  0.21179512  0.13552897  0.28561913  1
  F  F21  1  0.71179512  0.36447103  0.71438087  1
  F  F22  1  0.78820488  0.86447103  0.71438087  1
  F  F23  1  0.28820488  0.63552897  0.28561913  1
  F  F24  1  0.88055652  0.68824521  0.30257138  1
  F  F25  1  0.38055652  0.81175479  0.69742862  1
  F  F26  1  0.11944348  0.31175479  0.69742862  1
  F  F27  1  0.61944348  0.18824521  0.30257138  1
  F  F28  1  0.58037585  0.68886041  0.15529506  1
  F  F29  1  0.08037585  0.81113959  0.84470494  1
  F  F30  1  0.41962415  0.31113959  0.84470494  1
  F  F31  1  0.91962415  0.18886041  0.15529506  1
  F  F32  1  0.65950020  0.45901452  0.40701846  1
  F  F33  1  0.15950020  0.04098548  0.59298154  1
  F  F34  1  0.34049980  0.54098548  0.59298154  1
  F  F35  1  0.84049980  0.95901452  0.40701846  1
  F  F36  1  0.98890852  0.37826357  0.37452953  1
  F  F37  1  0.48890852  0.12173643  0.62547047  1
  F  F38  1  0.01109148  0.62173643  0.62547047  1
  F  F39  1  0.51109148  0.87826357  0.37452953  1
