# generated using pymatgen
data_Na7La2Si3Sn2(PO8)3
_symmetry_space_group_name_H-M   'P 1'
_cell_length_a   9.39250923
_cell_length_b   9.41890612
_cell_length_c   23.04661185
_cell_angle_alpha   89.91232474
_cell_angle_beta   89.76452673
_cell_angle_gamma   120.03026113
_symmetry_Int_Tables_number   1
_chemical_formula_structural   Na7La2Si3Sn2(PO8)3
_chemical_formula_sum   'Na21 La6 Si9 Sn6 P9 O72'
_cell_volume   1765.14306972
_cell_formula_units_Z   3
loop_
 _symmetry_equiv_pos_site_id
 _symmetry_equiv_pos_as_xyz
  1  'x, y, z'
loop_
 _atom_site_type_symbol
 _atom_site_label
 _atom_site_symmetry_multiplicity
 _atom_site_fract_x
 _atom_site_fract_y
 _atom_site_fract_z
 _atom_site_occupancy
  Na  Na0  1  0.63307355  0.00407271  0.25516832  1
  Na  Na1  1  0.36584517  0.37143619  0.24671364  1
  Na  Na2  1  0.00079798  0.61922449  0.25039626  1
  Na  Na3  1  0.63465884  0.63526320  0.74498141  1
  Na  Na4  1  0.99092658  0.36328066  0.74466139  1
  Na  Na5  1  0.37843454  0.00327696  0.74258753  1
  Na  Na6  1  0.03543596  0.69334501  0.58080070  1
  Na  Na7  1  0.66284663  0.96985306  0.58019037  1
  Na  Na8  1  0.66798118  0.68872058  0.08163846  1
  Na  Na9  1  0.03027578  0.34128189  0.08760953  1
  Na  Na10  1  0.95651116  0.66381624  0.92438752  1
  Na  Na11  1  0.69999443  0.03167416  0.92056703  1
  Na  Na12  1  0.34133947  0.30427747  0.92176693  1
  Na  Na13  1  0.96338769  0.30386437  0.41743826  1
  Na  Na14  1  0.33592805  0.02773715  0.42105224  1
  Na  Na15  1  0.99883958  0.99987525  0.49997301  1
  Na  Na16  1  0.01101157  0.99499361  0.00549304  1
  Na  Na17  1  0.66651257  0.33330059  0.83310631  1
  Na  Na18  1  0.67834434  0.34327843  0.33925574  1
  Na  Na19  1  0.32289065  0.66470522  0.16225498  1
  Na  Na20  1  0.33353690  0.66061966  0.66027935  1
  La  La21  1  0.99416875  0.99802046  0.85108601  1
  La  La22  1  0.66764734  0.33057642  0.66900698  1
  La  La23  1  0.66880414  0.33296100  0.18004450  1
  La  La24  1  0.66212645  0.33650330  0.99558090  1
  La  La25  1  0.32973747  0.66238691  0.32356920  1
  La  La26  1  0.34012650  0.67015407  0.81418825  1
  Si  Si27  1  0.99883421  0.28208002  0.25228546  1
  Si  Si28  1  0.70546841  0.00316649  0.74461923  1
  Si  Si29  1  0.98120199  0.33710100  0.58053876  1
  Si  Si30  1  0.35784871  0.02132303  0.58131688  1
  Si  Si31  1  0.99022963  0.65797787  0.08381823  1
  Si  Si32  1  0.34558446  0.33507159  0.08292749  1
  Si  Si33  1  0.63063788  0.66335994  0.91957379  1
  Si  Si34  1  0.63720387  0.97504706  0.41818680  1
  Si  Si35  1  0.02050512  0.66389848  0.41808997  1
  Sn  Sn36  1  0.99058184  0.99443949  0.35655510  1
  Sn  Sn37  1  0.00509040  0.00747439  0.64353040  1
  Sn  Sn38  1  0.00714407  0.00436031  0.14918710  1
  Sn  Sn39  1  0.66502292  0.33154112  0.48675315  1
  Sn  Sn40  1  0.33433785  0.66870677  0.01862203  1
  Sn  Sn41  1  0.33343681  0.66831252  0.51203193  1
  P  P42  1  0.27939055  0.00039932  0.25346897  1
  P  P43  1  0.72023617  0.71958677  0.25019278  1
  P  P44  1  0.29504156  0.29397210  0.74650350  1
  P  P45  1  0.99861606  0.70500243  0.74400419  1
  P  P46  1  0.66422368  0.63967002  0.58164430  1
  P  P47  1  0.66766976  0.01172728  0.08422767  1
  P  P48  1  0.03642353  0.37100469  0.91993678  1
  P  P49  1  0.33638506  0.96340001  0.91922647  1
  P  P50  1  0.33636420  0.36121696  0.41827270  1
  O  O51  1  0.19489152  0.01305591  0.31027395  1
  O  O52  1  0.82470674  0.80570176  0.30457318  1
  O  O53  1  0.98605116  0.17656836  0.31166195  1
  O  O54  1  0.22714150  0.21097821  0.80535874  1
  O  O55  1  0.99114139  0.78295711  0.80187698  1
  O  O56  1  0.79670908  0.01976513  0.80647913  1
  O  O57  1  0.81087973  0.98637750  0.68897814  1
  O  O58  1  0.18210352  0.18644086  0.69567608  1
  O  O59  1  0.00981580  0.81530793  0.69054167  1
  O  O60  1  0.80502719  0.81548246  0.19373165  1
  O  O61  1  0.00898774  0.18868380  0.19345514  1
  O  O62  1  0.17600180  0.98327131  0.19929119  1
  O  O63  1  0.92573616  0.38478489  0.64096720  1
  O  O64  1  0.45830489  0.08078435  0.64147002  1
  O  O65  1  0.63397636  0.55865076  0.64164358  1
  O  O66  1  0.91018784  0.53088744  0.13933820  1
  O  O67  1  0.63966254  0.08991636  0.13878055  1
  O  O68  1  0.46831055  0.37332901  0.13840476  1
  O  O69  1  0.41676164  0.30439775  0.02336894  1
  O  O70  1  0.87373002  0.58455335  0.02680054  1
  O  O71  1  0.70404527  0.11807240  0.03049442  1
  O  O72  1  0.45681780  0.15078354  0.52766559  1
  O  O73  1  0.69575760  0.53810037  0.53552421  1
  O  O74  1  0.84110044  0.30008693  0.52961400  1
  O  O75  1  0.52412166  0.67797572  0.97479427  1
  O  O76  1  0.14344840  0.47426829  0.97300774  1
  O  O77  1  0.32337187  0.84605674  0.96970434  1
  O  O78  1  0.54018600  0.85005608  0.47262252  1
  O  O79  1  0.30330673  0.45916057  0.46478796  1
  O  O80  1  0.15616271  0.70197085  0.47021511  1
  O  O81  1  0.08124773  0.61636603  0.35827771  1
  O  O82  1  0.53388695  0.91000702  0.35810934  1
  O  O83  1  0.36747018  0.44673474  0.35826548  1
  O  O84  1  0.10930376  0.45964927  0.86236758  1
  O  O85  1  0.34423849  0.89174928  0.86017830  1
  O  O86  1  0.53852167  0.64782060  0.85818585  1
  O  O87  1  0.02201931  0.84203525  0.41306366  1
  O  O88  1  0.82760952  0.00393953  0.41547515  1
  O  O89  1  0.17615670  0.18613674  0.41640695  1
  O  O90  1  0.03327015  0.20487697  0.92399996  1
  O  O91  1  0.18045885  0.97991623  0.92411577  1
  O  O92  1  0.81082242  0.83058719  0.92469915  1
  O  O93  1  0.98029397  0.15955328  0.58412327  1
  O  O94  1  0.16663605  0.99112597  0.58579995  1
  O  O95  1  0.82669094  0.81360984  0.58241418  1
  O  O96  1  0.99445620  0.83299925  0.09346842  1
  O  O97  1  0.82067593  0.98833566  0.09185619  1
  O  O98  1  0.15736157  0.17816433  0.09069445  1
  O  O99  1  0.68725903  0.16757622  0.74278071  1
  O  O100  1  0.46995648  0.31960059  0.74183927  1
  O  O101  1  0.84080079  0.53583768  0.74252156  1
  O  O102  1  0.70110085  0.54601828  0.24960021  1
  O  O103  1  0.83180545  0.29758625  0.25298018  1
  O  O104  1  0.44975748  0.15813289  0.25112125  1
  O  O105  1  0.65011431  0.49990516  0.92110684  1
  O  O106  1  0.86118093  0.34417606  0.92381554  1
  O  O107  1  0.49406009  0.13130716  0.92304009  1
  O  O108  1  0.65334883  0.15888786  0.42705373  1
  O  O109  1  0.48517676  0.33579685  0.43006435  1
  O  O110  1  0.83963155  0.49944714  0.43064891  1
  O  O111  1  0.32913666  0.50287515  0.07852859  1
  O  O112  1  0.17041368  0.67068597  0.07575237  1
  O  O113  1  0.51459060  0.83610286  0.07804084  1
  O  O114  1  0.34214252  0.83879875  0.57125457  1
  O  O115  1  0.51642288  0.66643705  0.56869850  1
  O  O116  1  0.16100688  0.50068614  0.56706881  1
  O  O117  1  0.29874820  0.84596647  0.25345452  1
  O  O118  1  0.54939627  0.70655997  0.25174582  1
  O  O119  1  0.16616088  0.46439790  0.25026412  1
  O  O120  1  0.29853854  0.46069887  0.74208241  1
  O  O121  1  0.15424875  0.68898143  0.74079498  1
  O  O122  1  0.52540652  0.83513267  0.74049418  1
