# generated using pymatgen
data_Na5Hf2Zn2P5SO24
_symmetry_space_group_name_H-M   'P 1'
_cell_length_a   8.99138680
_cell_length_b   9.00184517
_cell_length_c   22.48115315
_cell_angle_alpha   90.19664882
_cell_angle_beta   90.04411009
_cell_angle_gamma   119.99647443
_symmetry_Int_Tables_number   1
_chemical_formula_structural   Na5Hf2Zn2P5SO24
_chemical_formula_sum   'Na15 Hf6 Zn6 P15 S3 O72'
_cell_volume   1575.86320884
_cell_formula_units_Z   3
loop_
 _symmetry_equiv_pos_site_id
 _symmetry_equiv_pos_as_xyz
  1  'x, y, z'
loop_
 _atom_site_type_symbol
 _atom_site_label
 _atom_site_symmetry_multiplicity
 _atom_site_fract_x
 _atom_site_fract_y
 _atom_site_fract_z
 _atom_site_occupancy
  Na  Na0  1  0.63630578  0.00076682  0.25245253  1
  Na  Na1  1  0.37235618  0.37586110  0.24596532  1
  Na  Na2  1  0.99313116  0.62028181  0.25273495  1
  Na  Na3  1  0.64292478  0.62896332  0.74541025  1
  Na  Na4  1  0.98449965  0.35524505  0.74646351  1
  Na  Na5  1  0.37254246  0.01682947  0.74645123  1
  Na  Na6  1  0.30419981  0.96182065  0.07341486  1
  Na  Na7  1  0.04077103  0.34866274  0.07499748  1
  Na  Na8  1  0.70938785  0.67913236  0.41437560  1
  Na  Na9  1  0.00646856  0.00532534  0.49655554  1
  Na  Na10  1  0.99886744  0.99800487  0.98556504  1
  Na  Na11  1  0.66721103  0.32832216  0.83125428  1
  Na  Na12  1  0.68104148  0.32766260  0.33165382  1
  Na  Na13  1  0.34697851  0.66233557  0.16042591  1
  Na  Na14  1  0.33480833  0.66558375  0.66288246  1
  Hf  Hf15  1  0.99869001  0.99845268  0.64586020  1
  Hf  Hf16  1  0.98942168  0.99703778  0.14601941  1
  Hf  Hf17  1  0.66713477  0.33218117  0.97994493  1
  Hf  Hf18  1  0.67240593  0.32808792  0.48378212  1
  Hf  Hf19  1  0.33088617  0.67335005  0.51924598  1
  Hf  Hf20  1  0.32808191  0.66764272  0.81871921  1
  Zn  Zn21  1  0.98548447  0.99644751  0.35128736  1
  Zn  Zn22  1  0.01213647  0.01143462  0.85049525  1
  Zn  Zn23  1  0.66823351  0.33512967  0.67753564  1
  Zn  Zn24  1  0.67320908  0.34213364  0.17608237  1
  Zn  Zn25  1  0.33089095  0.66571444  0.01357867  1
  Zn  Zn26  1  0.32720093  0.66588853  0.32104076  1
  P  P27  1  0.70247682  0.70029539  0.25303330  1
  P  P28  1  0.00010153  0.29407191  0.25162933  1
  P  P29  1  0.29542073  0.29415047  0.75086895  1
  P  P30  1  0.99785900  0.70863517  0.75214989  1
  P  P31  1  0.70860564  0.99952473  0.75237462  1
  P  P32  1  0.96496750  0.33426675  0.58675015  1
  P  P33  1  0.37292588  0.04147628  0.58600997  1
  P  P34  1  0.66485661  0.62691891  0.58398284  1
  P  P35  1  0.96325945  0.62839348  0.08546388  1
  P  P36  1  0.66066898  0.03775218  0.08572499  1
  P  P37  1  0.37441370  0.33661366  0.08664044  1
  P  P38  1  0.03631431  0.36556618  0.91972349  1
  P  P39  1  0.32823750  0.96316112  0.91998019  1
  P  P40  1  0.62604790  0.96126460  0.41347723  1
  P  P41  1  0.03697224  0.66890614  0.41349108  1
  S  S42  1  0.29148786  0.00086397  0.25069200  1
  S  S43  1  0.62856045  0.66789810  0.91807838  1
  S  S44  1  0.33337073  0.37034805  0.41586852  1
  O  O45  1  0.20680338  0.02326019  0.30296302  1
  O  O46  1  0.81039362  0.77659859  0.30979142  1
  O  O47  1  0.97542629  0.17859046  0.30468939  1
  O  O48  1  0.21839208  0.18282644  0.80525893  1
  O  O49  1  0.96685255  0.79029688  0.80614894  1
  O  O50  1  0.82107716  0.02928108  0.80636770  1
  O  O51  1  0.79253452  0.96717610  0.69605412  1
  O  O52  1  0.17547144  0.20807394  0.69562776  1
  O  O53  1  0.03208021  0.82496412  0.69613977  1
  O  O54  1  0.80378750  0.82201976  0.19909175  1
  O  O55  1  0.02280551  0.20552007  0.19372708  1
  O  O56  1  0.18753590  0.98306307  0.19523947  1
  O  O57  1  0.89372962  0.36326546  0.64450335  1
  O  O58  1  0.47180916  0.11164099  0.64411408  1
  O  O59  1  0.63812787  0.52622093  0.64135390  1
  O  O60  1  0.89158598  0.52767125  0.14348002  1
  O  O61  1  0.63479368  0.11408929  0.14355389  1
  O  O62  1  0.46911518  0.35494657  0.14547609  1
  O  O63  1  0.46733059  0.30611935  0.03354619  1
  O  O64  1  0.84418522  0.53455809  0.03182430  1
  O  O65  1  0.69354836  0.16257318  0.03274737  1
  O  O66  1  0.46916930  0.15650386  0.53209834  1
  O  O67  1  0.68593449  0.53517352  0.52838461  1
  O  O68  1  0.84735832  0.31230220  0.53256563  1
  O  O69  1  0.54229094  0.68512738  0.97041307  1
  O  O70  1  0.13932577  0.45056315  0.97626628  1
  O  O71  1  0.31582206  0.86299739  0.97632881  1
  O  O72  1  0.52359258  0.83934256  0.46588653  1
  O  O73  1  0.31715787  0.46455242  0.46766083  1
  O  O74  1  0.15144329  0.67871284  0.46696485  1
  O  O75  1  0.10600534  0.63724946  0.35507934  1
  O  O76  1  0.52762568  0.88823502  0.35471312  1
  O  O77  1  0.36579009  0.47207683  0.36053651  1
  O  O78  1  0.13079403  0.48157903  0.86355226  1
  O  O79  1  0.35455898  0.87138116  0.86367988  1
  O  O80  1  0.52252185  0.64406024  0.86227337  1
  O  O81  1  0.01668349  0.82875906  0.41424603  1
  O  O82  1  0.80347045  0.97404772  0.41513252  1
  O  O83  1  0.18274539  0.19857503  0.41325311  1
  O  O84  1  0.01032845  0.18643474  0.91238658  1
  O  O85  1  0.16985794  0.98048572  0.91257991  1
  O  O86  1  0.79991194  0.81581915  0.91180035  1
  O  O87  1  0.98030605  0.17038869  0.58852944  1
  O  O88  1  0.19191733  0.02254177  0.58797697  1
  O  O89  1  0.82881260  0.80771271  0.58741596  1
  O  O90  1  0.98350937  0.81184052  0.08944338  1
  O  O91  1  0.83267377  0.03135572  0.08901983  1
  O  O92  1  0.19231738  0.16428089  0.08929192  1
  O  O93  1  0.67928783  0.15348142  0.74480941  1
  O  O94  1  0.47878899  0.32402489  0.74295278  1
  O  O95  1  0.84524995  0.52501106  0.74403680  1
  O  O96  1  0.68089886  0.51971621  0.24529426  1
  O  O97  1  0.83715864  0.31087531  0.24616740  1
  O  O98  1  0.46556709  0.15363930  0.24614672  1
  O  O99  1  0.63840764  0.50570808  0.92117920  1
  O  O100  1  0.85808012  0.35961721  0.92204341  1
  O  O101  1  0.49659813  0.14434788  0.92241963  1
  O  O102  1  0.64451007  0.14158264  0.42363367  1
  O  O103  1  0.49501305  0.36014174  0.42409467  1
  O  O104  1  0.85099960  0.50763091  0.42305234  1
  O  O105  1  0.34110471  0.48612266  0.07876134  1
  O  O106  1  0.14489765  0.65356196  0.07842127  1
  O  O107  1  0.50558987  0.85971430  0.07659292  1
  O  O108  1  0.34996710  0.85927716  0.57553547  1
  O  O109  1  0.50617823  0.64994044  0.57392996  1
  O  O110  1  0.14522974  0.49185832  0.57529458  1
  O  O111  1  0.30427759  0.84238211  0.25174791  1
  O  O112  1  0.52582911  0.69172192  0.25359560  1
  O  O113  1  0.16557852  0.47330137  0.25391652  1
  O  O114  1  0.30838993  0.47600863  0.75637050  1
  O  O115  1  0.16733696  0.69448070  0.75705775  1
  O  O116  1  0.52590027  0.83062673  0.75696696  1
