# generated using pymatgen
data_MgSiSn3S5O24
_symmetry_space_group_name_H-M   'P 1'
_cell_length_a   8.80135799
_cell_length_b   8.76256733
_cell_length_c   22.76865429
_cell_angle_alpha   90.35670300
_cell_angle_beta   90.15098141
_cell_angle_gamma   120.13490131
_symmetry_Int_Tables_number   1
_chemical_formula_structural   MgSiSn3S5O24
_chemical_formula_sum   'Mg3 Si3 Sn9 S15 O72'
_cell_volume   1518.58473631
_cell_formula_units_Z   3
loop_
 _symmetry_equiv_pos_site_id
 _symmetry_equiv_pos_as_xyz
  1  'x, y, z'
loop_
 _atom_site_type_symbol
 _atom_site_label
 _atom_site_symmetry_multiplicity
 _atom_site_fract_x
 _atom_site_fract_y
 _atom_site_fract_z
 _atom_site_occupancy
  Mg  Mg0  1  0.99970594  0.99886536  0.35400144  1
  Mg  Mg1  1  0.66424088  0.34047771  0.68913050  1
  Mg  Mg2  1  0.66563904  0.33294605  0.18700184  1
  Si  Si3  1  0.66863345  0.62228585  0.58639487  1
  Si  Si4  1  0.04438511  0.37739756  0.91645605  1
  Si  Si5  1  0.33188803  0.95468529  0.91642230  1
  Sn  Sn6  1  0.00817408  0.00678200  0.85692498  1
  Sn  Sn7  1  0.99240046  0.99249598  0.64747807  1
  Sn  Sn8  1  0.00164980  0.00081505  0.14703844  1
  Sn  Sn9  1  0.66877472  0.32711929  0.97568850  1
  Sn  Sn10  1  0.66847870  0.33988269  0.48471343  1
  Sn  Sn11  1  0.32546201  0.66405219  0.01648074  1
  Sn  Sn12  1  0.33778171  0.66508741  0.52357350  1
  Sn  Sn13  1  0.33476875  0.66783705  0.31241476  1
  Sn  Sn14  1  0.32749232  0.66896408  0.81480399  1
  S  S15  1  0.29234115  0.00308461  0.25137366  1
  S  S16  1  0.71093110  0.70840412  0.25118423  1
  S  S17  1  0.99661305  0.28899599  0.25134225  1
  S  S18  1  0.29341482  0.29229563  0.74874427  1
  S  S19  1  0.99836856  0.70719124  0.75010628  1
  S  S20  1  0.70586712  -0.00003533  0.75068299  1
  S  S21  1  0.95554715  0.33185426  0.58478481  1
  S  S22  1  0.37631562  0.04499519  0.58480943  1
  S  S23  1  0.95497627  0.62146245  0.08565802  1
  S  S24  1  0.66503189  0.03925295  0.08561116  1
  S  S25  1  0.37914513  0.33722220  0.08479488  1
  S  S26  1  0.62426595  0.66714160  0.91660284  1
  S  S27  1  0.62755396  0.96263146  0.41695104  1
  S  S28  1  0.33090720  0.37157613  0.41557168  1
  S  S29  1  0.04351923  0.66652874  0.41693204  1
  O  O30  1  0.20699666  0.02617295  0.30263266  1
  O  O31  1  0.81931403  0.79434440  0.30288935  1
  O  O32  1  0.97458958  0.18098599  0.30247930  1
  O  O33  1  0.20921779  0.18000445  0.80068741  1
  O  O34  1  0.96670911  0.79019968  0.80234518  1
  O  O35  1  0.81860051  0.02839048  0.80311701  1
  O  O36  1  0.78432541  0.96386870  0.69715809  1
  O  O37  1  0.17534531  0.21379699  0.69497990  1
  O  O38  1  0.03910518  0.82518444  0.69746089  1
  O  O39  1  0.78295429  0.82190962  0.19702886  1
  O  O40  1  0.03817176  0.21672116  0.19668734  1
  O  O41  1  0.17805759  0.96020709  0.19667311  1
  O  O42  1  0.87465737  0.35944414  0.63526341  1
  O  O43  1  0.48924062  0.12154777  0.63506621  1
  O  O44  1  0.63377895  0.49840639  0.64004628  1
  O  O45  1  0.87164285  0.51512407  0.13719428  1
  O  O46  1  0.63922492  0.12124001  0.13744318  1
  O  O47  1  0.48424569  0.35983041  0.13714089  1
  O  O48  1  0.45267471  0.30341495  0.03095316  1
  O  O49  1  0.84680453  0.54922105  0.03148954  1
  O  O50  1  0.70045394  0.14719662  0.03221859  1
  O  O51  1  0.44738493  0.14505441  0.52800426  1
  O  O52  1  0.70927977  0.55395838  0.52224181  1
  O  O53  1  0.84924906  0.29107679  0.52828590  1
  O  O54  1  0.55271675  0.70387681  0.97069014  1
  O  O55  1  0.16425329  0.44599022  0.97655126  1
  O  O56  1  0.29925007  0.84480480  0.97738110  1
  O  O57  1  0.54420569  0.84953739  0.46873156  1
  O  O58  1  0.29795585  0.45326224  0.46791019  1
  O  O59  1  0.15725826  0.69835729  0.46996164  1
  O  O60  1  0.12299409  0.62944160  0.36362369  1
  O  O61  1  0.51058000  0.88553015  0.36333510  1
  O  O62  1  0.37140853  0.49057727  0.36301415  1
  O  O63  1  0.12459157  0.49206075  0.85713460  1
  O  O64  1  0.38435030  0.88328646  0.85804202  1
  O  O65  1  0.51405613  0.62949655  0.86325378  1
  O  O66  1  0.02683680  0.82048574  0.40786698  1
  O  O67  1  0.79700176  0.97917604  0.40714548  1
  O  O68  1  0.17621801  0.20132408  0.40581901  1
  O  O69  1  0.01266290  0.18128930  0.90907524  1
  O  O70  1  0.15389982  0.96095175  0.90836311  1
  O  O71  1  0.79708347  0.82341220  0.90848197  1
  O  O72  1  0.98500864  0.18036102  0.59052408  1
  O  O73  1  0.20176485  0.02971769  0.59081293  1
  O  O74  1  0.84099238  0.82215247  0.58941054  1
  O  O75  1  0.97550412  0.80376525  0.09156624  1
  O  O76  1  0.82663738  0.02094809  0.09212207  1
  O  O77  1  0.19712749  0.17615586  0.09098249  1
  O  O78  1  0.68897978  0.15340292  0.74115223  1
  O  O79  1  0.46053466  0.30350798  0.74115212  1
  O  O80  1  0.84667448  0.53545549  0.74187794  1
  O  O81  1  0.68934154  0.53560109  0.24100650  1
  O  O82  1  0.84600592  0.30991695  0.24096092  1
  O  O83  1  0.46415195  0.15438997  0.24129477  1
  O  O84  1  0.63990602  0.50989590  0.92535381  1
  O  O85  1  0.86094094  0.37318899  0.92544299  1
  O  O86  1  0.49755580  0.15086180  0.92470226  1
  O  O87  1  0.64096460  0.13887718  0.42533454  1
  O  O88  1  0.49023417  0.35568607  0.42278537  1
  O  O89  1  0.87096136  0.50167928  0.42285135  1
  O  O90  1  0.36201688  0.49681408  0.07839282  1
  O  O91  1  0.13196067  0.64262016  0.07997920  1
  O  O92  1  0.51087257  0.85926221  0.07784244  1
  O  O93  1  0.35101561  0.86476900  0.57512308  1
  O  O94  1  0.49440654  0.64275024  0.57580477  1
  O  O95  1  0.12808722  0.49532372  0.57489272  1
  O  O96  1  0.30754402  0.83823486  0.25729333  1
  O  O97  1  0.53104628  0.69238501  0.25745051  1
  O  O98  1  0.16123662  0.46957788  0.25741362  1
  O  O99  1  0.31004024  0.46913075  0.75568482  1
  O  O100  1  0.16177462  0.69714273  0.75477594  1
  O  O101  1  0.53309158  0.83396900  0.75647297  1
