# generated using pymatgen
data_Na6Mg4Ta2Si3(SO6)6
_symmetry_space_group_name_H-M   'P 1'
_cell_length_a   8.88067925
_cell_length_b   8.88067896
_cell_length_c   22.57457993
_cell_angle_alpha   90.00000000
_cell_angle_beta   90.00000000
_cell_angle_gamma   120.00000110
_symmetry_Int_Tables_number   1
_chemical_formula_structural   Na6Mg4Ta2Si3(SO6)6
_chemical_formula_sum   'Na12 Mg8 Ta4 Si6 S12 O72'
_cell_volume   1541.85189813
_cell_formula_units_Z   2
loop_
 _symmetry_equiv_pos_site_id
 _symmetry_equiv_pos_as_xyz
  1  'x, y, z'
loop_
 _atom_site_type_symbol
 _atom_site_label
 _atom_site_symmetry_multiplicity
 _atom_site_fract_x
 _atom_site_fract_y
 _atom_site_fract_z
 _atom_site_occupancy
  Na  Na0  1  0.98550612  0.69203393  0.91703641  1
  Na  Na1  1  0.70652681  0.01449388  0.91703641  1
  Na  Na2  1  0.30796607  0.29347319  0.91703641  1
  Na  Na3  1  0.98550612  0.29347319  0.41703641  1
  Na  Na4  1  0.30796607  0.01449388  0.41703641  1
  Na  Na5  1  0.70652681  0.69203393  0.41703641  1
  Na  Na6  1  0.00000000  0.00000000  0.49670901  1
  Na  Na7  1  0.00000000  0.00000000  0.99670901  1
  Na  Na8  1  0.66666700  0.33333300  0.82387169  1
  Na  Na9  1  0.66666700  0.33333300  0.32387169  1
  Na  Na10  1  0.33333300  0.66666700  0.16047781  1
  Na  Na11  1  0.33333300  0.66666700  0.66047781  1
  Mg  Mg12  1  0.00000000  0.00000000  0.35026030  1
  Mg  Mg13  1  0.00000000  0.00000000  0.85026030  1
  Mg  Mg14  1  0.00000000  0.00000000  0.64850399  1
  Mg  Mg15  1  0.00000000  0.00000000  0.14850399  1
  Mg  Mg16  1  0.66666700  0.33333300  0.68427864  1
  Mg  Mg17  1  0.66666700  0.33333300  0.18427864  1
  Mg  Mg18  1  0.33333300  0.66666700  0.01642353  1
  Mg  Mg19  1  0.33333300  0.66666700  0.51642353  1
  Ta  Ta20  1  0.66666700  0.33333300  0.97946786  1
  Ta  Ta21  1  0.66666700  0.33333300  0.47946786  1
  Ta  Ta22  1  0.33333300  0.66666700  0.31720642  1
  Ta  Ta23  1  0.33333300  0.66666700  0.81720642  1
  Si  Si24  1  0.62546571  0.67055265  0.92011916  1
  Si  Si25  1  0.04508594  0.37453429  0.92011916  1
  Si  Si26  1  0.32944735  0.95491406  0.92011916  1
  Si  Si27  1  0.62546571  0.95491406  0.42011916  1
  Si  Si28  1  0.32944735  0.37453429  0.42011916  1
  Si  Si29  1  0.04508594  0.67055265  0.42011916  1
  S  S30  1  0.29551008  0.99928031  0.24921822  1
  S  S31  1  0.70377023  0.70448992  0.24921822  1
  S  S32  1  0.00071969  0.29622977  0.24921822  1
  S  S33  1  0.29551008  0.29622977  0.74921822  1
  S  S34  1  0.00071969  0.70448992  0.74921822  1
  S  S35  1  0.70377023  0.99928031  0.74921822  1
  S  S36  1  0.95827496  0.33311520  0.58588432  1
  S  S37  1  0.37484124  0.04172504  0.58588432  1
  S  S38  1  0.66688480  0.62515876  0.58588432  1
  S  S39  1  0.95827496  0.62515876  0.08588432  1
  S  S40  1  0.66688480  0.04172504  0.08588432  1
  S  S41  1  0.37484124  0.33311520  0.08588432  1
  O  O42  1  0.21834835  0.01659571  0.30482715  1
  O  O43  1  0.79824736  0.78165165  0.30482715  1
  O  O44  1  0.98340429  0.20175264  0.30482715  1
  O  O45  1  0.21834835  0.20175264  0.80482715  1
  O  O46  1  0.98340429  0.78165165  0.80482715  1
  O  O47  1  0.79824736  0.01659571  0.80482715  1
  O  O48  1  0.78877627  0.97610109  0.69732446  1
  O  O49  1  0.18732482  0.21122373  0.69732446  1
  O  O50  1  0.02389891  0.81267518  0.69732446  1
  O  O51  1  0.78877627  0.81267518  0.19732446  1
  O  O52  1  0.02389891  0.21122373  0.19732446  1
  O  O53  1  0.18732482  0.97610109  0.19732446  1
  O  O54  1  0.86512460  0.34758641  0.63658858  1
  O  O55  1  0.48246281  0.13487540  0.63658858  1
  O  O56  1  0.65241359  0.51753719  0.63658858  1
  O  O57  1  0.86512460  0.51753719  0.13658858  1
  O  O58  1  0.65241359  0.13487540  0.13658858  1
  O  O59  1  0.48246281  0.34758641  0.13658858  1
  O  O60  1  0.46825005  0.31792501  0.02959260  1
  O  O61  1  0.84967596  0.53174995  0.02959260  1
  O  O62  1  0.68207499  0.15032404  0.02959260  1
  O  O63  1  0.46825005  0.15032404  0.52959260  1
  O  O64  1  0.68207499  0.53174995  0.52959260  1
  O  O65  1  0.84967596  0.31792501  0.52959260  1
  O  O66  1  0.54851292  0.71577205  0.97575434  1
  O  O67  1  0.16725813  0.45148708  0.97575434  1
  O  O68  1  0.28422795  0.83274187  0.97575434  1
  O  O69  1  0.54851292  0.83274187  0.47575434  1
  O  O70  1  0.28422795  0.45148708  0.47575434  1
  O  O71  1  0.16725813  0.71577205  0.47575434  1
  O  O72  1  0.13144893  0.62050415  0.36071742  1
  O  O73  1  0.48905422  0.86855107  0.36071742  1
  O  O74  1  0.37949585  0.51094578  0.36071742  1
  O  O75  1  0.13144893  0.51094578  0.86071742  1
  O  O76  1  0.37949585  0.86855107  0.86071742  1
  O  O77  1  0.48905422  0.62050415  0.86071742  1
  O  O78  1  0.00292675  0.82173786  0.40562927  1
  O  O79  1  0.81881111  0.99707325  0.40562927  1
  O  O80  1  0.17826214  0.18118889  0.40562927  1
  O  O81  1  0.00292675  0.18118889  0.90562927  1
  O  O82  1  0.17826214  0.99707325  0.90562927  1
  O  O83  1  0.81881111  0.82173786  0.90562927  1
  O  O84  1  0.96679270  0.17114199  0.58659244  1
  O  O85  1  0.20434929  0.03320730  0.58659244  1
  O  O86  1  0.82885801  0.79565071  0.58659244  1
  O  O87  1  0.96679270  0.79565071  0.08659244  1
  O  O88  1  0.82885801  0.03320730  0.08659244  1
  O  O89  1  0.20434929  0.17114199  0.08659244  1
  O  O90  1  0.67824710  0.15149228  0.74363436  1
  O  O91  1  0.47324618  0.32175290  0.74363436  1
  O  O92  1  0.84850772  0.52675382  0.74363436  1
  O  O93  1  0.67824710  0.52675382  0.24363436  1
  O  O94  1  0.84850772  0.32175290  0.24363436  1
  O  O95  1  0.47324618  0.15149228  0.24363436  1
  O  O96  1  0.63219199  0.48593978  0.92706840  1
  O  O97  1  0.85374879  0.36780801  0.92706840  1
  O  O98  1  0.51406022  0.14625121  0.92706840  1
  O  O99  1  0.63219199  0.14625121  0.42706840  1
  O  O100  1  0.51406022  0.36780801  0.42706840  1
  O  O101  1  0.85374879  0.48593978  0.42706840  1
  O  O102  1  0.36068619  0.48971949  0.08074698  1
  O  O103  1  0.12903229  0.63931381  0.08074698  1
  O  O104  1  0.51028051  0.87096771  0.08074698  1
  O  O105  1  0.36068619  0.87096771  0.58074698  1
  O  O106  1  0.51028051  0.63931381  0.58074698  1
  O  O107  1  0.12903229  0.48971949  0.58074698  1
  O  O108  1  0.31079075  0.83452378  0.25353314  1
  O  O109  1  0.52373203  0.68920925  0.25353314  1
  O  O110  1  0.16547622  0.47626797  0.25353314  1
  O  O111  1  0.31079075  0.47626797  0.75353314  1
  O  O112  1  0.16547622  0.68920925  0.75353314  1
  O  O113  1  0.52373203  0.83452378  0.75353314  1
