# generated using pymatgen
data_Na8Ti2Ga2Si5SO24
_symmetry_space_group_name_H-M   'P 1'
_cell_length_a   8.98316575
_cell_length_b   8.97365458
_cell_length_c   21.97860291
_cell_angle_alpha   90.15627413
_cell_angle_beta   89.32487822
_cell_angle_gamma   119.91794386
_symmetry_Int_Tables_number   1
_chemical_formula_structural   Na8Ti2Ga2Si5SO24
_chemical_formula_sum   'Na24 Ti6 Ga6 Si15 S3 O72'
_cell_volume   1535.51817957
_cell_formula_units_Z   3
loop_
 _symmetry_equiv_pos_site_id
 _symmetry_equiv_pos_as_xyz
  1  'x, y, z'
loop_
 _atom_site_type_symbol
 _atom_site_label
 _atom_site_symmetry_multiplicity
 _atom_site_fract_x
 _atom_site_fract_y
 _atom_site_fract_z
 _atom_site_occupancy
  Na  Na0  1  0.63918502  0.00413225  0.25108593  1
  Na  Na1  1  0.36053643  0.36473201  0.24901667  1
  Na  Na2  1  -0.00006383  0.63508078  0.24998560  1
  Na  Na3  1  0.63228153  0.63202849  0.74858128  1
  Na  Na4  1  0.99542253  0.36293423  0.74958830  1
  Na  Na5  1  0.37026539  0.00689779  0.74983745  1
  Na  Na6  1  0.29817654  0.33565492  0.58455470  1
  Na  Na7  1  0.03814297  0.70334655  0.58247084  1
  Na  Na8  1  0.66579820  0.96077362  0.58272692  1
  Na  Na9  1  0.28936182  0.96432695  0.08186749  1
  Na  Na10  1  0.66983969  0.69785708  0.08590470  1
  Na  Na11  1  0.04190921  0.33371352  0.08662059  1
  Na  Na12  1  0.97040521  0.66902738  0.91652565  1
  Na  Na13  1  0.70497662  0.04122702  0.91154152  1
  Na  Na14  1  0.32431926  0.28776555  0.91809315  1
  Na  Na15  1  0.96105973  0.29397245  0.41196014  1
  Na  Na16  1  0.32901111  0.02718234  0.41578578  1
  Na  Na17  1  0.70988933  0.67611597  0.41727553  1
  Na  Na18  1  0.99426957  0.99263994  0.50009704  1
  Na  Na19  1  0.01324286  0.00504422  0.00004665  1
  Na  Na20  1  0.66660959  0.32784757  0.83229053  1
  Na  Na21  1  0.67159567  0.33079097  0.33303016  1
  Na  Na22  1  0.32792065  0.65851439  0.16618271  1
  Na  Na23  1  0.33599325  0.66680751  0.66431576  1
  Ti  Ti24  1  0.99979377  0.00042793  0.64826245  1
  Ti  Ti25  1  0.66612661  0.33396402  0.68506231  1
  Ti  Ti26  1  0.66969874  0.35086590  0.18821355  1
  Ti  Ti27  1  0.67835696  0.33179063  0.48418533  1
  Ti  Ti28  1  0.32845251  0.67937168  0.31115285  1
  Ti  Ti29  1  0.31808873  0.67206153  0.81098308  1
  Ga  Ga30  1  0.98724780  0.98642956  0.34699644  1
  Ga  Ga31  1  0.01366930  0.01228707  0.84769782  1
  Ga  Ga32  1  0.01370796  0.99939377  0.15274593  1
  Ga  Ga33  1  0.66529398  0.33219203  0.98238066  1
  Ga  Ga34  1  0.30074797  0.64534616  0.01755264  1
  Ga  Ga35  1  0.33768384  0.68429302  0.52158591  1
  Si  Si36  1  0.29044479  0.00510487  0.25086208  1
  Si  Si37  1  0.70946482  0.71497050  0.24893038  1
  Si  Si38  1  0.99964356  0.28685809  0.24983000  1
  Si  Si39  1  0.29296546  0.29329235  0.75001641  1
  Si  Si40  1  0.99412252  0.71278994  0.75162718  1
  Si  Si41  1  0.71117032  0.99960193  0.75218844  1
  Si  Si42  1  0.96342370  0.33540137  0.58408440  1
  Si  Si43  1  0.37706459  0.04569543  0.58340272  1
  Si  Si44  1  0.66467423  0.62320405  0.58253630  1
  Si  Si45  1  0.95502777  0.62692054  0.08153253  1
  Si  Si46  1  0.37561584  0.33551612  0.08130850  1
  Si  Si47  1  0.03597522  0.36797184  0.91697962  1
  Si  Si48  1  0.33382047  0.95843011  0.91930121  1
  Si  Si49  1  0.62559893  0.95656799  0.41737151  1
  Si  Si50  1  0.04272798  0.66989405  0.41834182  1
  S  S51  1  0.66660205  0.04232520  0.08276599  1
  S  S52  1  0.62060882  0.66716667  0.91726744  1
  S  S53  1  0.33391879  0.37815247  0.41732228  1
  O  O54  1  0.20963766  0.04531953  0.31079709  1
  O  O55  1  0.82786147  0.78118147  0.30896732  1
  O  O56  1  0.96100709  0.16777599  0.31038321  1
  O  O57  1  0.21954398  0.17309516  0.81013734  1
  O  O58  1  0.95801925  0.79418073  0.81192991  1
  O  O59  1  0.83127288  0.03720169  0.81120916  1
  O  O60  1  0.80192559  0.96526719  0.69204332  1
  O  O61  1  0.16527197  0.20257205  0.69161690  1
  O  O62  1  0.03527400  0.83689014  0.69172922  1
  O  O63  1  0.79041555  0.83595546  0.18924976  1
  O  O64  1  0.03887238  0.20608636  0.18937049  1
  O  O65  1  0.17210070  0.95268824  0.19086370  1
  O  O66  1  0.86897359  0.36865749  0.64206255  1
  O  O67  1  0.50163523  0.13837397  0.64182145  1
  O  O68  1  0.63539884  0.49991133  0.64176290  1
  O  O69  1  0.86170368  0.49909528  0.14112931  1
  O  O70  1  0.63875262  0.12305922  0.13752214  1
  O  O71  1  0.50083957  0.36322094  0.14078669  1
  O  O72  1  0.46102866  0.29501891  0.02216642  1
  O  O73  1  0.83511909  0.53721956  0.02247429  1
  O  O74  1  0.69537359  0.14842956  0.02729372  1
  O  O75  1  0.46995606  0.16992307  0.52358158  1
  O  O76  1  0.69899316  0.52928821  0.52327921  1
  O  O77  1  0.83541846  0.29876622  0.52468885  1
  O  O78  1  0.54092899  0.69301633  0.97281711  1
  O  O79  1  0.15891315  0.44475570  0.97630290  1
  O  O80  1  0.30565863  0.83613046  0.97854946  1
  O  O81  1  0.54207775  0.83374758  0.47659737  1
  O  O82  1  0.30730725  0.45576564  0.47218921  1
  O  O83  1  0.16236162  0.70054734  0.47696129  1
  O  O84  1  0.13428803  0.63431986  0.35822571  1
  O  O85  1  0.49883741  0.86078624  0.35837937  1
  O  O86  1  0.35968739  0.48381825  0.36186579  1
  O  O87  1  0.13599798  0.50041800  0.85879791  1
  O  O88  1  0.36422385  0.86348578  0.85876425  1
  O  O89  1  0.51521920  0.64206653  0.86254098  1
  O  O90  1  0.02618636  0.84296229  0.41161149  1
  O  O91  1  0.81946044  0.98251925  0.41120446  1
  O  O92  1  0.17991393  0.20385196  0.41313956  1
  O  O93  1  0.01443759  0.17612787  0.91078651  1
  O  O94  1  0.15840339  0.97055387  0.91315565  1
  O  O95  1  0.79437234  0.82083397  0.91331339  1
  O  O96  1  0.97349240  0.15932664  0.58816544  1
  O  O97  1  0.18791113  0.02929771  0.58833654  1
  O  O98  1  0.83920292  0.81121949  0.58820784  1
  O  O99  1  0.97133631  0.81666046  0.08812076  1
  O  O100  1  0.82230718  0.02583978  0.08649719  1
  O  O101  1  0.18345487  0.16519552  0.08826160  1
  O  O102  1  0.68851119  0.16866966  0.74409030  1
  O  O103  1  0.48412147  0.31399367  0.74249413  1
  O  O104  1  0.82993767  0.51959700  0.74462798  1
  O  O105  1  0.68734178  0.51946983  0.24282197  1
  O  O106  1  0.82867781  0.30988557  0.24259279  1
  O  O107  1  0.48531189  0.16953464  0.24231552  1
  O  O108  1  0.63736690  0.50956354  0.92001233  1
  O  O109  1  0.84893263  0.35941964  0.92237894  1
  O  O110  1  0.50863983  0.14939804  0.92154408  1
  O  O111  1  0.63703184  0.14678493  0.42108905  1
  O  O112  1  0.49129456  0.36129327  0.42001741  1
  O  O113  1  0.84992149  0.49420374  0.42129743  1
  O  O114  1  0.36788217  0.51612200  0.07747345  1
  O  O115  1  0.14668896  0.64335000  0.08094917  1
  O  O116  1  0.51205439  0.86917293  0.07837326  1
  O  O117  1  0.36055527  0.85695746  0.58106745  1
  O  O118  1  0.49170960  0.63720369  0.57779765  1
  O  O119  1  0.15100188  0.50483174  0.57630783  1
  O  O120  1  0.31235424  0.83176854  0.25704975  1
  O  O121  1  0.51424661  0.68378901  0.25743634  1
  O  O122  1  0.17125822  0.48057996  0.25708859  1
  O  O123  1  0.31268132  0.48470660  0.75693756  1
  O  O124  1  0.17027445  0.69527846  0.75563147  1
  O  O125  1  0.51994228  0.82530146  0.75707434  1
