# generated using pymatgen
data_Na18Nb8Zn16Si9(S3O16)9
_symmetry_space_group_name_H-M   'P 1'
_cell_length_a   17.72490430
_cell_length_b   8.91241324
_cell_length_c   22.58566780
_cell_angle_alpha   89.98251217
_cell_angle_beta   90.47651021
_cell_angle_gamma   120.06704394
_symmetry_Int_Tables_number   1
_chemical_formula_structural   Na18Nb8Zn16Si9(S3O16)9
_chemical_formula_sum   'Na18 Nb8 Zn16 Si9 S27 O144'
_cell_volume   3087.66121046
_cell_formula_units_Z   1
loop_
 _symmetry_equiv_pos_site_id
 _symmetry_equiv_pos_as_xyz
  1  'x, y, z'
loop_
 _atom_site_type_symbol
 _atom_site_label
 _atom_site_symmetry_multiplicity
 _atom_site_fract_x
 _atom_site_fract_y
 _atom_site_fract_z
 _atom_site_occupancy
  Na  Na0  1  0.35468974  0.03765810  0.90796097  1
  Na  Na1  1  0.84878362  0.03797254  0.90944407  1
  Na  Na2  1  0.66435446  0.28639893  0.90745340  1
  Na  Na3  1  0.16487658  0.04351107  0.41165402  1
  Na  Na4  1  0.34614415  0.65423028  0.42142947  1
  Na  Na5  1  0.85450698  0.67263581  0.41123837  1
  Na  Na6  1  0.00589330  0.03266949  0.49610680  1
  Na  Na7  1  0.50967212  0.01278327  0.49942281  1
  Na  Na8  1  0.00813747  0.00461100  0.99342678  1
  Na  Na9  1  0.50369846  0.97883606  0.99040980  1
  Na  Na10  1  0.32667530  0.33206795  0.82153801  1
  Na  Na11  1  0.82682462  0.32023428  0.82282509  1
  Na  Na12  1  0.32612606  0.32060417  0.32909105  1
  Na  Na13  1  0.82646060  0.32192183  0.32278069  1
  Na  Na14  1  0.16494605  0.66980663  0.15977691  1
  Na  Na15  1  0.67166591  0.67460246  0.15844395  1
  Na  Na16  1  0.16941170  0.66971281  0.65936154  1
  Na  Na17  1  0.66818272  0.66263560  0.66262415  1
  Nb  Nb18  1  0.99897353  0.00799595  0.65030509  1
  Nb  Nb19  1  0.49884329  0.01102886  0.65191835  1
  Nb  Nb20  1  0.99960606  0.98548723  0.15010100  1
  Nb  Nb21  1  0.50402337  0.99813152  0.14661456  1
  Nb  Nb22  1  0.16416941  0.66047229  0.31255912  1
  Nb  Nb23  1  0.66927845  0.67502452  0.30872566  1
  Nb  Nb24  1  0.16809606  0.66273448  0.80865974  1
  Nb  Nb25  1  0.67124942  0.68044552  0.80936837  1
  Zn  Zn26  1  0.01035391  0.01372276  0.34562225  1
  Zn  Zn27  1  0.50851384  0.01230778  0.34985533  1
  Zn  Zn28  1  0.00436423  0.01534629  0.84286092  1
  Zn  Zn29  1  0.50930391  0.00506753  0.84602062  1
  Zn  Zn30  1  0.32630499  0.31532567  0.68736770  1
  Zn  Zn31  1  0.82357461  0.31662856  0.68794645  1
  Zn  Zn32  1  0.32333950  0.31674620  0.18213539  1
  Zn  Zn33  1  0.82789744  0.33532327  0.18815709  1
  Zn  Zn34  1  0.33018269  0.33839681  0.98306941  1
  Zn  Zn35  1  0.83071186  0.31795761  0.97943623  1
  Zn  Zn36  1  0.32680062  0.33691642  0.48539039  1
  Zn  Zn37  1  0.82911824  0.32161457  0.49032355  1
  Zn  Zn38  1  0.16459977  0.66578226  0.01676651  1
  Zn  Zn39  1  0.66625912  0.67900958  0.01255371  1
  Zn  Zn40  1  0.16574957  0.65106442  0.51910090  1
  Zn  Zn41  1  0.66386615  0.66458971  0.51866414  1
  Si  Si42  1  0.15510622  0.00855227  0.25460226  1
  Si  Si43  1  0.64988115  0.00848920  0.25408984  1
  Si  Si44  1  0.85936953  0.70542003  0.25747744  1
  Si  Si45  1  0.15142994  0.29063486  0.75404364  1
  Si  Si46  1  0.65217946  0.30312657  0.75545363  1
  Si  Si47  1  0.35838007  0.01158985  0.75779937  1
  Si  Si48  1  0.85652222  0.01245068  0.75566206  1
  Si  Si49  1  0.66216838  0.96085838  0.92024957  1
  Si  Si50  1  0.16284926  0.36265515  0.41996698  1
  S  S51  1  0.35440015  0.70966929  0.25162174  1
  S  S52  1  0.00043380  0.29133690  0.24938265  1
  S  S53  1  0.49831939  0.28920290  0.25105735  1
  S  S54  1  0.99968851  0.71068797  0.75125515  1
  S  S55  1  0.49908914  0.70801755  0.74938918  1
  S  S56  1  0.47863647  0.33466030  0.58222613  1
  S  S57  1  0.97881841  0.33458403  0.58491030  1
  S  S58  1  0.18245427  0.02709006  0.58073476  1
  S  S59  1  0.68258448  0.03141738  0.58215149  1
  S  S60  1  0.33608431  0.63348367  0.58343235  1
  S  S61  1  0.83415113  0.62898559  0.58072970  1
  S  S62  1  0.47688272  0.61836626  0.08700491  1
  S  S63  1  0.97867224  0.62040041  0.08266302  1
  S  S64  1  0.33236864  0.03474040  0.08178048  1
  S  S65  1  0.83536686  0.03960688  0.08426295  1
  S  S66  1  0.18476324  0.33617582  0.08303640  1
  S  S67  1  0.68465456  0.34033267  0.08231769  1
  S  S68  1  0.30936711  0.65917172  0.91907944  1
  S  S69  1  0.81503253  0.66793342  0.91822428  1
  S  S70  1  0.02252838  0.37766280  0.91917048  1
  S  S71  1  0.51838278  0.38058177  0.92045204  1
  S  S72  1  0.16502974  0.95582996  0.91893305  1
  S  S73  1  0.31611296  0.95893424  0.41572911  1
  S  S74  1  0.80952981  0.96055639  0.41915167  1
  S  S75  1  0.66547300  0.37667478  0.41874597  1
  S  S76  1  0.01914333  0.65634433  0.41959330  1
  S  S77  1  0.52128487  0.66655649  0.41751252  1
  O  O78  1  0.11616817  0.02747308  0.31544962  1
  O  O79  1  0.60463859  0.03224720  0.30996412  1
  O  O80  1  0.40056066  0.78867628  0.30707929  1
  O  O81  1  0.90749341  0.79877336  0.31770248  1
  O  O82  1  0.48324630  0.18663131  0.30462954  1
  O  O83  1  0.98959435  0.19634198  0.30381841  1
  O  O84  1  0.11263929  0.17927035  0.81165480  1
  O  O85  1  0.61499951  0.19717660  0.81480780  1
  O  O86  1  0.48737266  0.78137487  0.80331608  1
  O  O87  1  0.98814725  0.78527042  0.80509814  1
  O  O88  1  0.40697346  0.01497889  0.81767196  1
  O  O89  1  0.90053308  0.01542512  0.81781503  1
  O  O90  1  0.40360308  0.97116445  0.69804241  1
  O  O91  1  0.90591648  0.97403528  0.69767584  1
  O  O92  1  0.08511559  0.19045790  0.69466142  1
  O  O93  1  0.58359680  0.19062184  0.69730939  1
  O  O94  1  0.01643707  0.82692676  0.69780930  1
  O  O95  1  0.51405044  0.82485113  0.69619514  1
  O  O96  1  0.39937291  0.82725465  0.19933308  1
  O  O97  1  0.90571234  0.83717793  0.19814940  1
  O  O98  1  0.01685589  0.20913539  0.19669732  1
  O  O99  1  0.51105243  0.19918817  0.19794450  1
  O  O100  1  0.08627609  0.98037897  0.19663618  1
  O  O101  1  0.58408457  0.97865973  0.19426935  1
  O  O102  1  0.43802074  0.35265308  0.63552414  1
  O  O103  1  0.93298012  0.34516408  0.63633174  1
  O  O104  1  0.23745986  0.11581523  0.63222615  1
  O  O105  1  0.73622540  0.11606223  0.63433019  1
  O  O106  1  0.32929362  0.52351521  0.63309420  1
  O  O107  1  0.82691629  0.52160268  0.63147811  1
  O  O108  1  0.43157065  0.52013588  0.13979244  1
  O  O109  1  0.93893387  0.52374836  0.13659011  1
  O  O110  1  0.32372883  0.12222954  0.13402856  1
  O  O111  1  0.82776433  0.13235304  0.13505865  1
  O  O112  1  0.23756172  0.36215395  0.13662858  1
  O  O113  1  0.73640286  0.35736033  0.13504190  1
  O  O114  1  0.22156247  0.30336827  0.02928234  1
  O  O115  1  0.71565000  0.30365499  0.02741185  1
  O  O116  1  0.42762981  0.55089788  0.03162977  1
  O  O117  1  0.92682714  0.54611418  0.02860203  1
  O  O118  1  0.34878973  0.13458622  0.02664315  1
  O  O119  1  0.84809901  0.13188467  0.02740461  1
  O  O120  1  0.21632140  0.12475668  0.52447327  1
  O  O121  1  0.71746201  0.13332377  0.52684592  1
  O  O122  1  0.34767147  0.56660255  0.52551907  1
  O  O123  1  0.84635974  0.55827560  0.52350740  1
  O  O124  1  0.42720350  0.30691999  0.52742273  1
  O  O125  1  0.93080745  0.30703266  0.52819471  1
  O  O126  1  0.26709045  0.68293560  0.97110154  1
  O  O127  1  0.77315559  0.68997568  0.97084213  1
  O  O128  1  0.07306136  0.46000152  0.97297993  1
  O  O129  1  0.57141052  0.45855877  0.97393523  1
  O  O130  1  0.15867051  0.85886428  0.97313464  1
  O  O131  1  0.65343849  0.85591355  0.97949300  1
  O  O132  1  0.27606404  0.85493980  0.46840021  1
  O  O133  1  0.76586685  0.84954422  0.46999856  1
  O  O134  1  0.15779427  0.46594702  0.47544224  1
  O  O135  1  0.65883599  0.46220007  0.47212625  1
  O  O136  1  0.07485288  0.68427404  0.47108579  1
  O  O137  1  0.57369074  0.69163054  0.47085520  1
  O  O138  1  0.06736555  0.64831880  0.36339635  1
  O  O139  1  0.56869719  0.65679769  0.36342231  1
  O  O140  1  0.25686704  0.86589563  0.36122309  1
  O  O141  1  0.75433475  0.86411452  0.36290916  1
  O  O142  1  0.17489060  0.49613757  0.35996388  1
  O  O143  1  0.67289973  0.48604660  0.36467888  1
  O  O144  1  0.06984371  0.48197907  0.86517660  1
  O  O145  1  0.56356779  0.48219069  0.86613735  1
  O  O146  1  0.17447186  0.86098039  0.86574996  1
  O  O147  1  0.67415142  0.85119862  0.86176968  1
  O  O148  1  0.25441014  0.64486088  0.86385465  1
  O  O149  1  0.75771917  0.64602755  0.86347577  1
  O  O150  1  0.00806278  0.80928059  0.41452946  1
  O  O151  1  0.50542185  0.81613718  0.41313241  1
  O  O152  1  0.40127372  0.96822305  0.40701821  1
  O  O153  1  0.89523088  0.97555786  0.41358622  1
  O  O154  1  0.07912823  0.17040487  0.41335860  1
  O  O155  1  0.58706213  0.20327425  0.41428997  1
  O  O156  1  0.00967368  0.19988782  0.91621766  1
  O  O157  1  0.50579128  0.20274307  0.91700007  1
  O  O158  1  0.08768101  0.97365353  0.91329211  1
  O  O159  1  0.57924085  0.98778364  0.91234750  1
  O  O160  1  0.39517218  0.81436943  0.91390942  1
  O  O161  1  0.90157661  0.82404630  0.91254744  1
  O  O162  1  0.48734841  0.16848644  0.58831216  1
  O  O163  1  0.98801676  0.16895446  0.59000630  1
  O  O164  1  0.09251391  0.00839552  0.58863522  1
  O  O165  1  0.59262783  0.01233694  0.58888991  1
  O  O166  1  0.41806077  0.81181119  0.58981828  1
  O  O167  1  0.91561042  0.80816211  0.58767976  1
  O  O168  1  0.48483387  0.80328889  0.09328551  1
  O  O169  1  0.98749744  0.80547172  0.08908381  1
  O  O170  1  0.41302144  0.01509462  0.09187365  1
  O  O171  1  0.91864809  0.02664568  0.09207406  1
  O  O172  1  0.09496429  0.17467972  0.09029378  1
  O  O173  1  0.59140154  0.17381822  0.09164260  1
  O  O174  1  0.34634344  0.17265958  0.74517919  1
  O  O175  1  0.84783518  0.17720211  0.74349074  1
  O  O176  1  0.24939408  0.34705582  0.74078007  1
  O  O177  1  0.74867006  0.34824630  0.74172612  1
  O  O178  1  0.42740850  0.53594684  0.73835831  1
  O  O179  1  0.92884500  0.53824605  0.73978980  1
  O  O180  1  0.34530567  0.53971348  0.24265604  1
  O  O181  1  0.84634531  0.51919937  0.24527614  1
  O  O182  1  0.42833589  0.32513399  0.24024048  1
  O  O183  1  0.92910781  0.32290486  0.23972514  1
  O  O184  1  0.25019582  0.16947407  0.24365185  1
  O  O185  1  0.74725044  0.15266182  0.24232306  1
  O  O186  1  0.31301519  0.49703994  0.91978861  1
  O  O187  1  0.81858418  0.50603137  0.91967042  1
  O  O188  1  0.42989125  0.36482136  0.92231452  1
  O  O189  1  0.93621299  0.36758477  0.91836506  1
  O  O190  1  0.24884641  0.12725100  0.91976700  1
  O  O191  1  0.75486176  0.15075269  0.91726008  1
  O  O192  1  0.32201429  0.12939469  0.41658065  1
  O  O193  1  0.81296631  0.12936452  0.41974880  1
  O  O194  1  0.25521038  0.35579187  0.41820710  1
  O  O195  1  0.74812694  0.36980665  0.41896721  1
  O  O196  1  0.43561990  0.50375907  0.41776948  1
  O  O197  1  0.93333007  0.49542860  0.41919569  1
  O  O198  1  0.17209598  0.48784245  0.07763120  1
  O  O199  1  0.66828956  0.48632385  0.07820667  1
  O  O200  1  0.06962326  0.65614854  0.07840122  1
  O  O201  1  0.56601072  0.65018215  0.08561002  1
  O  O202  1  0.25676849  0.85703257  0.07810716  1
  O  O203  1  0.76148620  0.85917558  0.08224242  1
  O  O204  1  0.17037375  0.85023457  0.57646318  1
  O  O205  1  0.67104134  0.85503181  0.57742932  1
  O  O206  1  0.26086326  0.66318036  0.58215361  1
  O  O207  1  0.75797797  0.65585053  0.57754889  1
  O  O208  1  0.06806829  0.48406355  0.58341837  1
  O  O209  1  0.56939829  0.48181663  0.57796135  1
  O  O210  1  0.15519655  0.81947044  0.25624830  1
  O  O211  1  0.64629085  0.81436064  0.25733966  1
  O  O212  1  0.26532758  0.69569388  0.25246154  1
  O  O213  1  0.75935204  0.69100169  0.26034343  1
  O  O214  1  0.08445130  0.47056807  0.25343573  1
  O  O215  1  0.58394358  0.45915835  0.25563806  1
  O  O216  1  0.14660265  0.47682051  0.75868543  1
  O  O217  1  0.64558113  0.48338877  0.75837073  1
  O  O218  1  0.08457233  0.70456513  0.75584308  1
  O  O219  1  0.58348452  0.70212879  0.75222545  1
  O  O220  1  0.25900597  0.82649728  0.76081603  1
  O  O221  1  0.75901759  0.82625908  0.75541758  1
