# generated using pymatgen
data_Na2Nb2Ga2Si3(SO8)3
_symmetry_space_group_name_H-M   'P 1'
_cell_length_a   8.72838328
_cell_length_b   8.74707548
_cell_length_c   22.68763092
_cell_angle_alpha   89.47580435
_cell_angle_beta   90.72635476
_cell_angle_gamma   119.60798848
_symmetry_Int_Tables_number   1
_chemical_formula_structural   Na2Nb2Ga2Si3(SO8)3
_chemical_formula_sum   'Na6 Nb6 Ga6 Si9 S9 O72'
_cell_volume   1505.84818459
_cell_formula_units_Z   3
loop_
 _symmetry_equiv_pos_site_id
 _symmetry_equiv_pos_as_xyz
  1  'x, y, z'
loop_
 _atom_site_type_symbol
 _atom_site_label
 _atom_site_symmetry_multiplicity
 _atom_site_fract_x
 _atom_site_fract_y
 _atom_site_fract_z
 _atom_site_occupancy
  Na  Na0  1  0.98783631  0.98610184  0.49111131  1
  Na  Na1  1  0.00593000  0.99156486  0.99665474  1
  Na  Na2  1  0.65385212  0.32024323  0.82494245  1
  Na  Na3  1  0.66985986  0.32165420  0.32767876  1
  Na  Na4  1  0.31938054  0.66143099  0.16758435  1
  Na  Na5  1  0.34244994  0.66237649  0.65866561  1
  Nb  Nb6  1  0.98872484  0.00190306  0.64421490  1
  Nb  Nb7  1  0.00678123  0.99587746  0.14946465  1
  Nb  Nb8  1  0.66568807  0.33484851  0.97848907  1
  Nb  Nb9  1  0.67776869  0.34580473  0.47380830  1
  Nb  Nb10  1  0.31950670  0.67623158  0.31144516  1
  Nb  Nb11  1  0.34783477  0.68305266  0.80708192  1
  Ga  Ga12  1  0.00376610  0.00432445  0.35435328  1
  Ga  Ga13  1  0.02004993  0.01567757  0.84780739  1
  Ga  Ga14  1  0.64111852  0.32570556  0.68729213  1
  Ga  Ga15  1  0.68797321  0.33546170  0.19202158  1
  Ga  Ga16  1  0.30727914  0.67445588  0.02019843  1
  Ga  Ga17  1  0.35788255  0.68445429  0.51457196  1
  Si  Si18  1  0.30263459  0.02028003  0.25335327  1
  Si  Si19  1  0.00134553  0.28518081  0.25331338  1
  Si  Si20  1  0.29210419  0.28615013  0.75087794  1
  Si  Si21  1  0.72857116  0.02191031  0.75262027  1
  Si  Si22  1  0.65253125  0.61314676  0.58468264  1
  Si  Si23  1  0.95561190  0.61893430  0.08648152  1
  Si  Si24  1  0.31825976  0.95329129  0.91650041  1
  Si  Si25  1  0.63239780  0.95338221  0.41690675  1
  Si  Si26  1  0.05904682  0.68487908  0.42081742  1
  S  S27  1  0.71035636  0.70718530  0.25088419  1
  S  S28  1  0.99378526  0.70932377  0.75089862  1
  S  S29  1  0.95663611  0.34114316  0.58449905  1
  S  S30  1  0.37818781  0.04145231  0.58413118  1
  S  S31  1  0.66107134  0.03809998  0.08332657  1
  S  S32  1  0.37910760  0.34099920  0.08285904  1
  S  S33  1  0.62046285  0.67193324  0.91904910  1
  S  S34  1  0.04798766  0.37740005  0.91809868  1
  S  S35  1  0.32824578  0.37800902  0.41778173  1
  O  O36  1  0.20347481  0.03400249  0.30909705  1
  O  O37  1  0.81723298  0.78394169  0.30314323  1
  O  O38  1  0.96882976  0.16207200  0.30866322  1
  O  O39  1  0.21432178  0.17384637  0.80973506  1
  O  O40  1  0.96920031  0.78690101  0.80457427  1
  O  O41  1  0.83253722  0.02711324  0.81203433  1
  O  O42  1  0.80356454  0.96962318  0.69345296  1
  O  O43  1  0.16538343  0.19248170  0.69244984  1
  O  O44  1  0.02995341  0.82110336  0.69754836  1
  O  O45  1  0.79438591  0.82040554  0.19561746  1
  O  O46  1  0.02325991  0.18867111  0.19160517  1
  O  O47  1  0.17058357  0.96861684  0.19227592  1
  O  O48  1  0.87215499  0.35601298  0.63759665  1
  O  O49  1  0.48425294  0.11786875  0.63840339  1
  O  O50  1  0.64067812  0.50172914  0.64270781  1
  O  O51  1  0.85180870  0.49552874  0.14061695  1
  O  O52  1  0.63059260  0.11523934  0.13528654  1
  O  O53  1  0.48189073  0.36173975  0.13541978  1
  O  O54  1  0.46111149  0.30781452  0.02854348  1
  O  O55  1  0.83227143  0.52144623  0.02591122  1
  O  O56  1  0.68467293  0.15142252  0.02907411  1
  O  O57  1  0.45847963  0.15057394  0.53140912  1
  O  O58  1  0.68811323  0.52184985  0.52652663  1
  O  O59  1  0.84576886  0.30574483  0.53026665  1
  O  O60  1  0.53356139  0.68670401  0.97182985  1
  O  O61  1  0.15411628  0.45606885  0.97220361  1
  O  O62  1  0.30169056  0.84090745  0.97471633  1
  O  O63  1  0.55168454  0.84141643  0.47581048  1
  O  O64  1  0.30652491  0.45718669  0.47166094  1
  O  O65  1  0.16734312  0.69098677  0.47904245  1
  O  O66  1  0.13150420  0.63429405  0.36002019  1
  O  O67  1  0.49951230  0.85802708  0.35918877  1
  O  O68  1  0.36275536  0.48655913  0.36414749  1
  O  O69  1  0.12393995  0.48521698  0.86517326  1
  O  O70  1  0.35670402  0.85960548  0.85948166  1
  O  O71  1  0.51054310  0.63756862  0.86425308  1
  O  O72  1  0.02811826  0.84710465  0.40990066  1
  O  O73  1  0.82745479  0.98663236  0.40856014  1
  O  O74  1  0.17779822  0.20150372  0.41308849  1
  O  O75  1  0.01873459  0.19763389  0.91396245  1
  O  O76  1  0.14393672  0.97229514  0.90891782  1
  O  O77  1  0.79617511  0.82237562  0.91239152  1
  O  O78  1  0.97185054  0.17330586  0.58779724  1
  O  O79  1  0.19985850  0.02811672  0.59012996  1
  O  O80  1  0.83752062  0.81092692  0.59181907  1
  O  O81  1  0.97075994  0.81550519  0.08815176  1
  O  O82  1  0.82670846  0.02931743  0.08589337  1
  O  O83  1  0.19989136  0.17863872  0.08536675  1
  O  O84  1  0.70029266  0.18594633  0.73970101  1
  O  O85  1  0.48886918  0.31951223  0.74503575  1
  O  O86  1  0.84585206  0.53207306  0.74399929  1
  O  O87  1  0.68969137  0.53217261  0.24177502  1
  O  O88  1  0.83466526  0.31559522  0.24615160  1
  O  O89  1  0.48825524  0.18780625  0.23727189  1
  O  O90  1  0.63554294  0.50512733  0.92333500  1
  O  O91  1  0.86613574  0.36216968  0.92422984  1
  O  O92  1  0.50084114  0.14976765  0.92536565  1
  O  O93  1  0.63647537  0.14578487  0.42633204  1
  O  O94  1  0.49241687  0.35898671  0.42317480  1
  O  O95  1  0.86002989  0.50039747  0.42487199  1
  O  O96  1  0.36277341  0.49903374  0.07192049  1
  O  O97  1  0.14925695  0.63627639  0.07983997  1
  O  O98  1  0.51000498  0.85935298  0.07463831  1
  O  O99  1  0.35282249  0.86265148  0.57974001  1
  O  O100  1  0.48146351  0.63836428  0.57663188  1
  O  O101  1  0.13298282  0.49065248  0.57813652  1
  O  O102  1  0.31510128  0.83586719  0.25406250  1
  O  O103  1  0.53510347  0.69467764  0.25293120  1
  O  O104  1  0.18545199  0.47758219  0.25615379  1
  O  O105  1  0.30221301  0.48101761  0.76030844  1
  O  O106  1  0.15980354  0.69408393  0.75665247  1
  O  O107  1  0.52871844  0.83758382  0.75780626  1
