# generated using pymatgen
data_Na3SiSe4
_symmetry_space_group_name_H-M   'P 1'
_cell_length_a   16.98413645
_cell_length_b   7.29579518
_cell_length_c   13.73423539
_cell_angle_alpha   80.99156096
_cell_angle_beta   90.00000000
_cell_angle_gamma   90.00000000
_symmetry_Int_Tables_number   1
_chemical_formula_structural   Na3SiSe4
_chemical_formula_sum   'Na24 Si8 Se32'
_cell_volume   1680.85550528
_cell_formula_units_Z   8
loop_
 _symmetry_equiv_pos_site_id
 _symmetry_equiv_pos_as_xyz
  1  'x, y, z'
loop_
 _atom_site_type_symbol
 _atom_site_label
 _atom_site_symmetry_multiplicity
 _atom_site_fract_x
 _atom_site_fract_y
 _atom_site_fract_z
 _atom_site_occupancy
  Na  Na0  1  0.94855867  0.04973695  0.28175000  1
  Na  Na1  1  0.44855867  0.95026305  0.21825000  1
  Na  Na2  1  0.05144133  0.95026305  0.71825000  1
  Na  Na3  1  0.55144133  0.04973695  0.78175000  1
  Na  Na4  1  0.67331558  0.57486776  0.76607623  1
  Na  Na5  1  0.17331558  0.42513224  0.73392377  1
  Na  Na6  1  0.32668442  0.42513224  0.23392377  1
  Na  Na7  1  0.82668442  0.57486776  0.26607623  1
  Na  Na8  1  0.70039223  0.98073515  0.28544760  1
  Na  Na9  1  0.20039223  0.01926485  0.21455240  1
  Na  Na10  1  0.29960777  0.01926485  0.71455240  1
  Na  Na11  1  0.79960777  0.98073515  0.78544760  1
  Na  Na12  1  0.61086162  0.42435931  0.02073258  1
  Na  Na13  1  0.11086162  0.57564069  0.47926742  1
  Na  Na14  1  0.38913838  0.57564069  0.97926742  1
  Na  Na15  1  0.88913838  0.42435931  0.52073258  1
  Na  Na16  1  0.67047602  0.29621119  0.50803830  1
  Na  Na17  1  0.93355946  0.75395614  0.00206016  1
  Na  Na18  1  0.56644054  0.75395614  0.50206016  1
  Na  Na19  1  0.06644054  0.24604386  0.99793984  1
  Na  Na20  1  0.82952398  0.29621119  0.00803830  1
  Na  Na21  1  0.32952398  0.70378881  0.49196170  1
  Na  Na22  1  0.17047602  0.70378881  0.99196170  1
  Na  Na23  1  0.43355946  0.24604386  0.49793984  1
  Si  Si24  1  0.02625785  0.60394304  0.23132125  1
  Si  Si25  1  0.52625785  0.39605696  0.26867875  1
  Si  Si26  1  0.97374215  0.39605696  0.76867875  1
  Si  Si27  1  0.47374215  0.60394304  0.73132125  1
  Si  Si28  1  0.77600377  0.88613502  0.52743093  1
  Si  Si29  1  0.27600377  0.11386498  0.97256907  1
  Si  Si30  1  0.22399623  0.11386498  0.47256907  1
  Si  Si31  1  0.72399623  0.88613502  0.02743093  1
  Se  Se32  1  0.96706885  0.67236363  0.36622332  1
  Se  Se33  1  0.10767592  0.19849171  0.38460092  1
  Se  Se34  1  0.39232408  0.19849171  0.88460092  1
  Se  Se35  1  0.89232408  0.80150829  0.61539908  1
  Se  Se36  1  0.06612742  0.85657135  0.12795408  1
  Se  Se37  1  0.56612742  0.14342865  0.37204592  1
  Se  Se38  1  0.93387258  0.14342865  0.87204592  1
  Se  Se39  1  0.43387258  0.85657135  0.62795408  1
  Se  Se40  1  0.73381512  0.66369257  0.44395064  1
  Se  Se41  1  0.23381512  0.33630743  0.05604936  1
  Se  Se42  1  0.26618488  0.33630743  0.55604936  1
  Se  Se43  1  0.76618488  0.66369257  0.94395064  1
  Se  Se44  1  0.15008154  0.47767600  0.28119038  1
  Se  Se45  1  0.65008154  0.52232400  0.21880962  1
  Se  Se46  1  0.84991846  0.52232400  0.71880962  1
  Se  Se47  1  0.34991846  0.47767600  0.78119038  1
  Se  Se48  1  0.60767592  0.80150829  0.11539908  1
  Se  Se49  1  0.46706885  0.32763637  0.13377668  1
  Se  Se50  1  0.03293115  0.32763637  0.63377668  1
  Se  Se51  1  0.53293115  0.67236363  0.86622332  1
  Se  Se52  1  0.81681978  0.94271145  0.13636170  1
  Se  Se53  1  0.31681978  0.05728855  0.36363830  1
  Se  Se54  1  0.18318022  0.05728855  0.86363830  1
  Se  Se55  1  0.68318022  0.94271145  0.63636170  1
  Se  Se56  1  0.81857909  0.13786442  0.42472778  1
  Se  Se57  1  0.31857909  0.86213558  0.07527222  1
  Se  Se58  1  0.18142091  0.86213558  0.57527222  1
  Se  Se59  1  0.68142091  0.13786442  0.92472778  1
  Se  Se60  1  0.45697031  0.59487195  0.34605959  1
  Se  Se61  1  0.95697031  0.40512805  0.15394041  1
  Se  Se62  1  0.54302969  0.40512805  0.65394041  1
  Se  Se63  1  0.04302969  0.59487195  0.84605959  1
