# generated using pymatgen
data_Ba2LaMgBiO6
_symmetry_space_group_name_H-M   'P 1'
_cell_length_a   7.35348122
_cell_length_b   7.35348122
_cell_length_c   6.78476586
_cell_angle_alpha   76.20195071
_cell_angle_beta   129.27314555
_cell_angle_gamma   129.49375660
_symmetry_Int_Tables_number   1
_chemical_formula_structural   Ba2LaMgBiO6
_chemical_formula_sum   'Ba2 La1 Mg1 Bi1 O6'
_cell_volume   210.74078943
_cell_formula_units_Z   1
loop_
 _symmetry_equiv_pos_site_id
 _symmetry_equiv_pos_as_xyz
  1  'x, y, z'
loop_
 _atom_site_type_symbol
 _atom_site_label
 _atom_site_symmetry_multiplicity
 _atom_site_fract_x
 _atom_site_fract_y
 _atom_site_fract_z
 _atom_site_occupancy
  Ba  Ba0  1  0.95725925  0.78146551  0.73872576  1
  Ba  Ba1  1  0.04274075  0.21853449  0.26127424  1
  La  La2  1  0.50000000  0.00000000  0.50000000  1
  Mg  Mg3  1  -0.00000000  0.50000000  0.50000000  1
  Bi  Bi4  1  0.50000000  0.50000000  -0.00000000  1
  O  O5  1  0.96241311  0.17555230  0.61487057  1
  O  O6  1  0.56068172  0.34754354  0.38512943  1
  O  O7  1  0.03758689  0.82444770  0.38512943  1
  O  O8  1  0.43931828  0.65245646  0.61487057  1
  O  O9  1  0.73722726  0.35080318  0.08803044  1
  O  O10  1  0.26277274  0.64919682  -0.08803044  1
