# generated using pymatgen
data_Na3AlIn(PO4)3
_symmetry_space_group_name_H-M   'P 1'
_cell_length_a   8.84793511
_cell_length_b   8.82878909
_cell_length_c   22.05939794
_cell_angle_alpha   89.97683568
_cell_angle_beta   89.97667574
_cell_angle_gamma   119.89615713
_symmetry_Int_Tables_number   1
_chemical_formula_structural   Na3AlIn(PO4)3
_chemical_formula_sum   'Na18 Al6 In6 P18 O72'
_cell_volume   1493.89717556
_cell_formula_units_Z   6
loop_
 _symmetry_equiv_pos_site_id
 _symmetry_equiv_pos_as_xyz
  1  'x, y, z'
loop_
 _atom_site_type_symbol
 _atom_site_label
 _atom_site_symmetry_multiplicity
 _atom_site_fract_x
 _atom_site_fract_y
 _atom_site_fract_z
 _atom_site_occupancy
  Na  Na0  1  0.00030637  0.00025219  0.50028693  1
  Na  Na1  1  0.99868140  0.99829475  0.00117032  1
  Na  Na2  1  0.63862400  0.31764361  0.83183786  1
  Na  Na3  1  0.68277046  0.36139767  0.33349987  1
  Na  Na4  1  0.33235356  0.66671050  0.16980206  1
  Na  Na5  1  0.33329463  0.66618857  0.66515812  1
  Na  Na6  1  0.63942289  0.00063326  0.24994520  1
  Na  Na7  1  0.36248135  0.36008154  0.24981022  1
  Na  Na8  1  0.63637793  0.63289373  0.74746425  1
  Na  Na9  1  0.99850476  0.36253315  0.74728284  1
  Na  Na10  1  0.03652398  0.70347460  0.58372280  1
  Na  Na11  1  0.66360525  0.96486165  0.58347853  1
  Na  Na12  1  0.30017287  0.96935586  0.08523358  1
  Na  Na13  1  0.02874946  0.33337131  0.08518553  1
  Na  Na14  1  0.96987226  0.66524387  0.91719402  1
  Na  Na15  1  0.69563788  0.02809463  0.91655744  1
  Na  Na16  1  0.97316121  0.30149825  0.41713160  1
  Na  Na17  1  0.33245698  0.03169518  0.41789167  1
  Al  Al18  1  0.00757266  0.00657037  0.64615558  1
  Al  Al19  1  0.99513998  0.99370110  0.15249212  1
  Al  Al20  1  0.66133181  0.32970864  0.68227199  1
  Al  Al21  1  0.67049505  0.33867215  0.18438916  1
  Al  Al22  1  0.66365783  0.33848901  0.48213959  1
  Al  Al23  1  0.32786636  0.66409734  0.31607797  1
  In  In24  1  0.99196270  0.98940395  0.34591049  1
  In  In25  1  0.01119114  0.00851789  0.84521361  1
  In  In26  1  0.66223893  0.33819743  0.98822960  1
  In  In27  1  0.34134580  0.66469346  0.02121182  1
  In  In28  1  0.33524507  0.65909558  0.51975710  1
  In  In29  1  0.33409234  0.67094179  0.81176170  1
  P  P30  1  0.29951096  0.99772852  0.24829419  1
  P  P31  1  0.70221378  0.69872193  0.24755245  1
  P  P32  1  0.99889432  0.30272576  0.24834991  1
  P  P33  1  0.30038694  0.28809043  0.74331645  1
  P  P34  1  0.99257903  0.70115342  0.74336833  1
  P  P35  1  0.70924480  0.00896724  0.74333257  1
  P  P36  1  0.94614648  0.32481487  0.58434993  1
  P  P37  1  0.37718353  0.05681915  0.58321595  1
  P  P38  1  0.67441575  0.62114142  0.58534173  1
  P  P39  1  0.95521288  0.63515926  0.08778742  1
  P  P40  1  0.67707205  0.04230718  0.08920598  1
  P  P41  1  0.36409505  0.32203092  0.09125967  1
  P  P42  1  0.63304059  0.66593363  0.91320059  1
  P  P43  1  0.03405582  0.36611943  0.91758160  1
  P  P44  1  0.33381422  0.96611065  0.91922383  1
  P  P45  1  0.62428481  0.96324041  0.41655730  1
  P  P46  1  0.34328217  0.37819454  0.41372932  1
  P  P47  1  0.03719340  0.65932079  0.41789138  1
  O  O48  1  0.23471414  0.04710413  0.30631313  1
  O  O49  1  0.80480293  0.75830780  0.30727688  1
  O  O50  1  0.95079878  0.18897528  0.30671711  1
  O  O51  1  0.23903275  0.19547279  0.80509583  1
  O  O52  1  0.95815632  0.76841551  0.80411805  1
  O  O53  1  0.81177238  0.04550646  0.80408167  1
  O  O54  1  0.81007658  0.98204626  0.69077900  1
  O  O55  1  0.16882855  0.18969884  0.69264357  1
  O  O56  1  0.01472216  0.82261880  0.69001450  1
  O  O57  1  0.79901560  0.83364212  0.19693197  1
  O  O58  1  0.03445926  0.20680530  0.19581587  1
  O  O59  1  0.17732160  0.97120358  0.19458333  1
  O  O60  1  0.85755213  0.35212279  0.64034536  1
  O  O61  1  0.49867636  0.14745325  0.63667792  1
  O  O62  1  0.65437784  0.51522674  0.64278440  1
  O  O63  1  0.84986916  0.50021992  0.13660563  1
  O  O64  1  0.64943850  0.14317922  0.14123736  1
  O  O65  1  0.48324998  0.34373374  0.14464225  1
  O  O66  1  0.43036201  0.28212555  0.03195104  1
  O  O67  1  0.86815540  0.57452873  0.02466401  1
  O  O68  1  0.71370434  0.14475093  0.02841524  1
  O  O69  1  0.45959731  0.15790679  0.52319656  1
  O  O70  1  0.69877444  0.53131004  0.52898568  1
  O  O71  1  0.83420077  0.29791580  0.52624039  1
  O  O72  1  0.55046970  0.70091156  0.96899019  1
  O  O73  1  0.13600438  0.44875607  0.97648991  1
  O  O74  1  0.30496879  0.85988317  0.97849618  1
  O  O75  1  0.55402196  0.86352697  0.47657378  1
  O  O76  1  0.29262647  0.44498928  0.47023675  1
  O  O77  1  0.14249219  0.69849143  0.47769049  1
  O  O78  1  0.13477230  0.63002963  0.36442149  1
  O  O79  1  0.50461227  0.86666232  0.36119803  1
  O  O80  1  0.36332543  0.48984783  0.35657233  1
  O  O81  1  0.11535247  0.47545399  0.85953110  1
  O  O82  1  0.36647672  0.88099131  0.86350221  1
  O  O83  1  0.53424206  0.64371239  0.85351069  1
  O  O84  1  0.02225246  0.82506178  0.41055735  1
  O  O85  1  0.81282869  0.99630226  0.41127305  1
  O  O86  1  0.18180629  0.18982434  0.40797781  1
  O  O87  1  0.00828876  0.18089817  0.91454535  1
  O  O88  1  0.16497486  0.97425344  0.91394256  1
  O  O89  1  0.81695553  0.83304018  0.91104498  1
  O  O90  1  0.96406406  0.15836579  0.59011520  1
  O  O91  1  0.18900606  0.02859417  0.58990278  1
  O  O92  1  0.84127246  0.80946848  0.58896079  1
  O  O93  1  0.98256173  0.82030562  0.09747971  1
  O  O94  1  0.84090855  0.02545290  0.09840520  1
  O  O95  1  0.17803143  0.15864196  0.09836937  1
  O  O96  1  0.68848916  0.17143449  0.73590613  1
  O  O97  1  0.48711366  0.31819097  0.73558974  1
  O  O98  1  0.82884240  0.51470823  0.73781661  1
  O  O99  1  0.67090764  0.51110592  0.23676154  1
  O  O100  1  0.83674667  0.32272611  0.23730870  1
  O  O101  1  0.48699827  0.15952974  0.23914682  1
  O  O102  1  0.65623792  0.50567097  0.91856183  1
  O  O103  1  0.85137347  0.35134859  0.92015400  1
  O  O104  1  0.50102349  0.14570871  0.92230185  1
  O  O105  1  0.63562214  0.14656531  0.42093279  1
  O  O106  1  0.50899202  0.36252869  0.42254477  1
  O  O107  1  0.85705838  0.48926498  0.42433009  1
  O  O108  1  0.34170845  0.48519034  0.08816227  1
  O  O109  1  0.13928664  0.64900504  0.08734663  1
  O  O110  1  0.50573802  0.86404898  0.08706763  1
  O  O111  1  0.35667875  0.86883745  0.58221808  1
  O  O112  1  0.51504586  0.65093732  0.58359544  1
  O  O113  1  0.12774133  0.49324605  0.58259274  1
  O  O114  1  0.31925795  0.83323710  0.25750915  1
  O  O115  1  0.51862940  0.68613736  0.25451968  1
  O  O116  1  0.16981453  0.48094948  0.25706917  1
  O  O117  1  0.31357550  0.47211350  0.74553037  1
  O  O118  1  0.15425515  0.67698529  0.74568344  1
  O  O119  1  0.53182480  0.83720138  0.74562428  1
