# generated using pymatgen
data_Na10La4Mg4Si3(S3O16)3
_symmetry_space_group_name_H-M   'P 1'
_cell_length_a   18.81910798
_cell_length_b   9.42823452
_cell_length_c   23.73102017
_cell_angle_alpha   89.97798218
_cell_angle_beta   89.48546199
_cell_angle_gamma   120.40276625
_symmetry_Int_Tables_number   1
_chemical_formula_structural   Na10La4Mg4Si3(S3O16)3
_chemical_formula_sum   'Na30 La12 Mg12 Si9 S27 O144'
_cell_volume   3631.40676581
_cell_formula_units_Z   3
loop_
 _symmetry_equiv_pos_site_id
 _symmetry_equiv_pos_as_xyz
  1  'x, y, z'
loop_
 _atom_site_type_symbol
 _atom_site_label
 _atom_site_symmetry_multiplicity
 _atom_site_fract_x
 _atom_site_fract_y
 _atom_site_fract_z
 _atom_site_occupancy
  Na  Na0  1  0.19344057  0.37094903  0.24277570  1
  Na  Na1  1  0.69278010  0.37466845  0.24312108  1
  Na  Na2  1  0.98979949  0.63659712  0.25346797  1
  Na  Na3  1  0.49160285  0.63115160  0.26013516  1
  Na  Na4  1  0.32412366  0.65494010  0.74421161  1
  Na  Na5  1  0.82204492  0.65095017  0.74357817  1
  Na  Na6  1  0.99072637  0.34493326  0.75144214  1
  Na  Na7  1  0.19551388  0.01353733  0.73914498  1
  Na  Na8  1  0.69448635  0.01143240  0.74087587  1
  Na  Na9  1  0.52528374  0.70703847  0.57264576  1
  Na  Na10  1  0.32494585  0.96715899  0.58900990  1
  Na  Na11  1  0.82485034  0.96280825  0.58845174  1
  Na  Na12  1  0.15403963  0.98591810  0.07920472  1
  Na  Na13  1  0.65399215  0.98498220  0.07895956  1
  Na  Na14  1  0.32637042  0.68180967  0.09161284  1
  Na  Na15  1  0.82592953  0.68227833  0.09219228  1
  Na  Na16  1  0.65721944  0.01364911  0.42430696  1
  Na  Na17  1  0.35912336  0.67463179  0.40952543  1
  Na  Na18  1  0.01773303  0.00243423  0.49556275  1
  Na  Na19  1  0.51254047  0.00870338  0.49297559  1
  Na  Na20  1  0.01040413  0.02974745  0.99507771  1
  Na  Na21  1  0.51063727  0.03005220  0.99439132  1
  Na  Na22  1  0.34393384  0.31838220  0.82535174  1
  Na  Na23  1  0.83333372  0.31600291  0.82869518  1
  Na  Na24  1  0.34372898  0.34445855  0.33054157  1
  Na  Na25  1  0.83893379  0.34963878  0.32603293  1
  Na  Na26  1  0.17480011  0.65426376  0.16036702  1
  Na  Na27  1  0.67570232  0.65461455  0.16298978  1
  Na  Na28  1  0.17006479  0.68575698  0.65448190  1
  Na  Na29  1  0.66958070  0.67270717  0.65650306  1
  La  La30  1  0.00522516  0.00052483  0.64746845  1
  La  La31  1  0.50380827  0.01099239  0.65134555  1
  La  La32  1  0.99537832  0.00787744  0.15293960  1
  La  La33  1  0.49618871  0.00822816  0.15212911  1
  La  La34  1  0.32984800  0.33219054  0.98174356  1
  La  La35  1  0.82971118  0.33279716  0.98154751  1
  La  La36  1  0.32862862  0.32587561  0.48170067  1
  La  La37  1  0.83101827  0.33700726  0.48532537  1
  La  La38  1  0.17452403  0.67573943  0.31615801  1
  La  La39  1  0.67061506  0.67097437  0.32052336  1
  La  La40  1  0.17305395  0.67960612  0.82158237  1
  La  La41  1  0.66647618  0.66941407  0.81910356  1
  Mg  Mg42  1  0.98769430  0.97218519  0.34896246  1
  Mg  Mg43  1  0.49244557  0.97216123  0.34979972  1
  Mg  Mg44  1  0.98993523  0.00879004  0.85083811  1
  Mg  Mg45  1  0.49008203  0.01091626  0.84997257  1
  Mg  Mg46  1  0.33331921  0.29238191  0.67989085  1
  Mg  Mg47  1  0.83012603  0.30046510  0.67814002  1
  Mg  Mg48  1  0.32941737  0.35333062  0.18242460  1
  Mg  Mg49  1  0.82801207  0.35237057  0.18223468  1
  Mg  Mg50  1  0.16089446  0.63099762  0.01734441  1
  Mg  Mg51  1  0.66043122  0.63050592  0.01758243  1
  Mg  Mg52  1  0.15734877  0.67995992  0.51827599  1
  Mg  Mg53  1  0.66165069  0.68315918  0.51326389  1
  Si  Si54  1  0.35173538  0.68927162  0.24958647  1
  Si  Si55  1  0.85147480  0.69062961  0.24851123  1
  Si  Si56  1  0.35359153  0.01064981  0.74988758  1
  Si  Si57  1  0.85433085  0.01029351  0.74896349  1
  Si  Si58  1  0.18446386  0.02059630  0.58522434  1
  Si  Si59  1  0.68343569  0.02039164  0.58381631  1
  Si  Si60  1  0.18465190  0.34027193  0.08615677  1
  Si  Si61  1  0.68469412  0.34072724  0.08581093  1
  Si  Si62  1  0.51768204  0.67845357  0.41612871  1
  S  S63  1  0.14968070  0.01069646  0.25042266  1
  S  S64  1  0.65160064  0.01091363  0.25056670  1
  S  S65  1  0.99442648  0.29671957  0.25411744  1
  S  S66  1  0.49491302  0.29639108  0.25350226  1
  S  S67  1  0.15081929  0.29316713  0.75383357  1
  S  S68  1  0.65448022  0.29512067  0.75363840  1
  S  S69  1  0.99478420  0.69673814  0.75385066  1
  S  S70  1  0.49441411  0.69930413  0.75184408  1
  S  S71  1  0.48407604  0.34672416  0.58439663  1
  S  S72  1  0.98546370  0.34769716  0.58547168  1
  S  S73  1  0.32814195  0.62771136  0.58578264  1
  S  S74  1  0.82601588  0.62749919  0.58705858  1
  S  S75  1  0.48681172  0.62712216  0.08510264  1
  S  S76  1  0.98703535  0.62749283  0.08506333  1
  S  S77  1  0.32576659  0.02902426  0.08400394  1
  S  S78  1  0.82606461  0.02980928  0.08389510  1
  S  S79  1  0.32253128  0.68372211  0.91836134  1
  S  S80  1  0.82131101  0.68373528  0.91726297  1
  S  S81  1  0.02060175  0.35972190  0.91636338  1
  S  S82  1  0.52054849  0.35861595  0.91851999  1
  S  S83  1  0.15731308  0.96131704  0.91868985  1
  S  S84  1  0.65807008  0.95996308  0.91812118  1
  S  S85  1  0.32026235  0.95786380  0.41984433  1
  S  S86  1  0.82255122  0.96487692  0.41998489  1
  S  S87  1  0.15802772  0.36312415  0.41772606  1
  S  S88  1  0.66041446  0.35867320  0.41723611  1
  S  S89  1  0.02128967  0.68166296  0.41601902  1
  O  O90  1  0.10563511  0.03224359  0.29850860  1
  O  O91  1  0.60874239  0.03147116  0.30019888  1
  O  O92  1  0.40824506  0.78857212  0.30395619  1
  O  O93  1  0.91561851  0.79573265  0.29861793  1
  O  O94  1  0.48896299  0.19408903  0.30204727  1
  O  O95  1  0.98863298  0.19402821  0.30240728  1
  O  O96  1  0.10787786  0.18486941  0.80250313  1
  O  O97  1  0.60919261  0.18841171  0.80196357  1
  O  O98  1  0.48750147  0.79085383  0.79993952  1
  O  O99  1  0.98731537  0.78456201  0.80270876  1
  O  O100  1  0.41000988  0.01749834  0.80194004  1
  O  O101  1  0.91644635  0.03673265  0.80048735  1
  O  O102  1  0.38561206  0.97083539  0.68998731  1
  O  O103  1  0.88731201  0.96933742  0.69031846  1
  O  O104  1  0.10206324  0.22563841  0.70188938  1
  O  O105  1  0.60880978  0.23007282  0.70072828  1
  O  O106  1  0.01367749  0.79738129  0.70190452  1
  O  O107  1  0.51053832  0.79528686  0.69830146  1
  O  O108  1  0.38802159  0.78774469  0.18955337  1
  O  O109  1  0.88629172  0.78332862  0.18692678  1
  O  O110  1  0.01401589  0.23661058  0.20144667  1
  O  O111  1  0.51146624  0.23165469  0.20072906  1
  O  O112  1  0.10326015  0.98403847  0.19693871  1
  O  O113  1  0.60310758  0.98659316  0.19838028  1
  O  O114  1  0.44132404  0.36559863  0.63443917  1
  O  O115  1  0.94515514  0.36516847  0.63762729  1
  O  O116  1  0.23863914  0.10814593  0.64265494  1
  O  O117  1  0.73960191  0.11480204  0.63931585  1
  O  O118  1  0.32312119  0.53227894  0.63679368  1
  O  O119  1  0.82310713  0.53502490  0.63880060  1
  O  O120  1  0.44643490  0.52806980  0.13644471  1
  O  O121  1  0.94697085  0.52894957  0.13663755  1
  O  O122  1  0.32142081  0.11748353  0.13397004  1
  O  O123  1  0.82184951  0.11828226  0.13393289  1
  O  O124  1  0.24007162  0.36457836  0.14262107  1
  O  O125  1  0.73988096  0.36444821  0.14221346  1
  O  O126  1  0.22994178  0.30858549  0.03210334  1
  O  O127  1  0.72994790  0.30857899  0.03171555  1
  O  O128  1  0.43529871  0.54998157  0.03507013  1
  O  O129  1  0.93538981  0.54939206  0.03516281  1
  O  O130  1  0.34016043  0.12689281  0.03212998  1
  O  O131  1  0.84040161  0.12803557  0.03204793  1
  O  O132  1  0.23028952  0.13525203  0.53034271  1
  O  O133  1  0.72487687  0.12666647  0.52567517  1
  O  O134  1  0.34266641  0.55606303  0.53425911  1
  O  O135  1  0.83889898  0.55155795  0.53644737  1
  O  O136  1  0.43579539  0.32264302  0.53316993  1
  O  O137  1  0.93354625  0.32398923  0.53586841  1
  O  O138  1  0.27476793  0.69241258  0.96713930  1
  O  O139  1  0.77502454  0.69241340  0.96687873  1
  O  O140  1  0.07370450  0.45669833  0.96381722  1
  O  O141  1  0.57177693  0.45113231  0.96726766  1
  O  O142  1  0.15298341  0.86045968  0.96807440  1
  O  O143  1  0.65386824  0.86111512  0.96807984  1
  O  O144  1  0.27568752  0.85476998  0.46978021  1
  O  O145  1  0.77961725  0.86300717  0.47057896  1
  O  O146  1  0.15223844  0.45601600  0.46586470  1
  O  O147  1  0.65786953  0.45383352  0.46548229  1
  O  O148  1  0.07295667  0.69091873  0.46418928  1
  O  O149  1  0.57575882  0.69823787  0.47073825  1
  O  O150  1  0.05620266  0.66101101  0.36198423  1
  O  O151  1  0.55756193  0.65732974  0.35693956  1
  O  O152  1  0.27130878  0.88309939  0.36827412  1
  O  O153  1  0.77141699  0.89260480  0.36917342  1
  O  O154  1  0.16977238  0.45646981  0.36364494  1
  O  O155  1  0.67331315  0.44810490  0.36306899  1
  O  O156  1  0.05448529  0.44812684  0.86172370  1
  O  O157  1  0.55649668  0.45243522  0.86557641  1
  O  O158  1  0.16681787  0.88729853  0.86521405  1
  O  O159  1  0.66775449  0.88438414  0.86517535  1
  O  O160  1  0.27566555  0.65735752  0.86502051  1
  O  O161  1  0.77394937  0.65984495  0.86443048  1
  O  O162  1  0.01544433  0.83359835  0.41310549  1
  O  O163  1  0.51372668  0.85128083  0.41262907  1
  O  O164  1  0.40084376  0.96407998  0.41396461  1
  O  O165  1  0.90451271  0.98099919  0.41254393  1
  O  O166  1  0.08530247  0.19596239  0.41336064  1
  O  O167  1  0.58513203  0.19273468  0.41435573  1
  O  O168  1  0.01493528  0.19639612  0.91415044  1
  O  O169  1  0.51505782  0.19558395  0.91472195  1
  O  O170  1  0.08277262  0.97597210  0.91485032  1
  O  O171  1  0.58374515  0.97521826  0.91409413  1
  O  O172  1  0.40411082  0.83603902  0.91387006  1
  O  O173  1  0.90339485  0.83581863  0.91258108  1
  O  O174  1  0.49081584  0.19616048  0.58931086  1
  O  O175  1  0.98983541  0.19412197  0.58903420  1
  O  O176  1  0.09116186  0.99485498  0.58525034  1
  O  O177  1  0.58779742  0.98497754  0.58594218  1
  O  O178  1  0.40299180  0.79928515  0.58818729  1
  O  O179  1  0.89774899  0.80040121  0.58755247  1
  O  O180  1  0.49550772  0.79497393  0.08904797  1
  O  O181  1  0.99595205  0.79542118  0.08879769  1
  O  O182  1  0.39438766  0.99177728  0.08626959  1
  O  O183  1  0.89494990  0.99323768  0.08607171  1
  O  O184  1  0.09410228  0.16744134  0.08657695  1
  O  O185  1  0.59437665  0.16762260  0.08611137  1
  O  O186  1  0.33927816  0.16896991  0.74653121  1
  O  O187  1  0.84604776  0.17803088  0.74400054  1
  O  O188  1  0.23483409  0.31623070  0.74723056  1
  O  O189  1  0.73757983  0.30925021  0.74847937  1
  O  O190  1  0.41689829  0.53786773  0.74647572  1
  O  O191  1  0.91684798  0.53466109  0.74715117  1
  O  O192  1  0.34669809  0.50801971  0.24688927  1
  O  O193  1  0.84635513  0.50828796  0.24638914  1
  O  O194  1  0.42064154  0.31200697  0.24745946  1
  O  O195  1  0.91978338  0.31025996  0.24754166  1
  O  O196  1  0.23325134  0.15810709  0.24500880  1
  O  O197  1  0.73436237  0.16142252  0.24494235  1
  O  O198  1  0.33318928  0.53815469  0.92239685  1
  O  O199  1  0.83205219  0.53760014  0.92068355  1
  O  O200  1  0.43683665  0.33684260  0.92295218  1
  O  O201  1  0.93719926  0.33908528  0.92170084  1
  O  O202  1  0.23356817  0.12710570  0.91991578  1
  O  O203  1  0.73451182  0.12673693  0.91889703  1
  O  O204  1  0.33303392  0.12552401  0.42202922  1
  O  O205  1  0.83004314  0.13073081  0.42425211  1
  O  O206  1  0.23593905  0.35595456  0.42061295  1
  O  O207  1  0.73303859  0.33068243  0.42016985  1
  O  O208  1  0.42179394  0.52379444  0.41844300  1
  O  O209  1  0.93712176  0.53367943  0.42100667  1
  O  O210  1  0.18289163  0.51260873  0.07721973  1
  O  O211  1  0.68304739  0.51292565  0.07711301  1
  O  O212  1  0.07143878  0.65213003  0.07728361  1
  O  O213  1  0.57127792  0.65254544  0.07736358  1
  O  O214  1  0.24636829  0.86677164  0.07933867  1
  O  O215  1  0.74679762  0.86763935  0.07924822  1
  O  O216  1  0.18320896  0.84456957  0.57822005  1
  O  O217  1  0.67906526  0.83990719  0.57895223  1
  O  O218  1  0.25407995  0.64415712  0.58022873  1
  O  O219  1  0.74993900  0.63748813  0.58189134  1
  O  O220  1  0.06852724  0.49351626  0.57829654  1
  O  O221  1  0.56692637  0.49661949  0.57948095  1
  O  O222  1  0.15450334  0.85764351  0.25655382  1
  O  O223  1  0.65829890  0.86074166  0.25528382  1
  O  O224  1  0.25494659  0.65128440  0.25183203  1
  O  O225  1  0.75570523  0.65424664  0.25285809  1
  O  O226  1  0.06696234  0.47031900  0.25886492  1
  O  O227  1  0.56904452  0.46771416  0.25668921  1
  O  O228  1  0.15954094  0.46064814  0.75970474  1
  O  O229  1  0.66951582  0.46674537  0.75865211  1
  O  O230  1  0.06476135  0.66310320  0.75910505  1
  O  O231  1  0.56776369  0.67780263  0.75695730  1
  O  O232  1  0.25760288  0.84136089  0.75385949  1
  O  O233  1  0.75911847  0.84743442  0.75549072  1
