# generated using pymatgen
data_Na2Mg5Ge3(SO4)12
_symmetry_space_group_name_H-M   'P 1'
_cell_length_a   17.01971184
_cell_length_b   8.51502678
_cell_length_c   22.20754765
_cell_angle_alpha   90.07976385
_cell_angle_beta   89.95154829
_cell_angle_gamma   120.01188008
_symmetry_Int_Tables_number   1
_chemical_formula_structural   Na2Mg5Ge3(SO4)12
_chemical_formula_sum   'Na6 Mg15 Ge9 S36 O144'
_cell_volume   2786.87201971
_cell_formula_units_Z   3
loop_
 _symmetry_equiv_pos_site_id
 _symmetry_equiv_pos_as_xyz
  1  'x, y, z'
loop_
 _atom_site_type_symbol
 _atom_site_label
 _atom_site_symmetry_multiplicity
 _atom_site_fract_x
 _atom_site_fract_y
 _atom_site_fract_z
 _atom_site_occupancy
  Na  Na0  1  0.00016668  0.00011335  0.50157044  1
  Na  Na1  1  0.50274579  0.00435889  0.99909050  1
  Na  Na2  1  0.33466023  0.33494642  0.83001932  1
  Na  Na3  1  0.83204010  0.33143548  0.83104306  1
  Na  Na4  1  0.33224840  0.33385422  0.33725362  1
  Na  Na5  1  0.83448050  0.33280843  0.33362550  1
  Mg  Mg6  1  0.00097095  0.00147799  0.35497077  1
  Mg  Mg7  1  0.50056623  0.00036268  0.85303590  1
  Mg  Mg8  1  -0.00008502  0.99944528  0.64604313  1
  Mg  Mg9  1  0.50246870  0.00314925  0.14648807  1
  Mg  Mg10  1  0.33177896  0.33112561  0.68316936  1
  Mg  Mg11  1  0.83486767  0.33586018  0.68360713  1
  Mg  Mg12  1  0.83121824  0.33178685  0.18367543  1
  Mg  Mg13  1  0.33100116  0.33130371  0.98015805  1
  Mg  Mg14  1  0.83561841  0.33532166  0.98242827  1
  Mg  Mg15  1  0.33576355  0.33673964  0.48426395  1
  Mg  Mg16  1  0.83118286  0.33022999  0.48345646  1
  Mg  Mg17  1  0.16436355  0.66272371  0.31060666  1
  Mg  Mg18  1  0.66889790  0.66896576  0.31106867  1
  Mg  Mg19  1  0.16891033  0.66985204  0.80891009  1
  Mg  Mg20  1  0.66433684  0.66347952  0.80829588  1
  Ge  Ge21  1  0.50048075  0.99853326  0.35386215  1
  Ge  Ge22  1  0.99885406  0.99893391  0.84854541  1
  Ge  Ge23  1  0.50015017  0.00000762  0.64967547  1
  Ge  Ge24  1  0.99577014  0.99716496  0.14940770  1
  Ge  Ge25  1  0.33448647  0.33380892  0.18264789  1
  Ge  Ge26  1  0.16232471  0.66620066  0.01590838  1
  Ge  Ge27  1  0.67137863  0.66739752  0.01645791  1
  Ge  Ge28  1  0.16629081  0.66529570  0.52063268  1
  Ge  Ge29  1  0.66647182  0.66724439  0.52091774  1
  S  S30  1  0.14683395  0.00514895  0.24699753  1
  S  S31  1  0.64399707  0.00123980  0.25120477  1
  S  S32  1  0.35582117  0.70721954  0.24878598  1
  S  S33  1  0.85622246  0.70945557  0.25028854  1
  S  S34  1  0.99875851  0.28669510  0.24953546  1
  S  S35  1  0.49757424  0.28815945  0.24940778  1
  S  S36  1  0.14453418  0.28669135  0.75071359  1
  S  S37  1  0.64503989  0.28707075  0.74951431  1
  S  S38  1  -0.00094348  0.71038386  0.75049040  1
  S  S39  1  0.49833235  0.71008508  0.74955704  1
  S  S40  1  0.35676140  0.00294689  0.74964574  1
  S  S41  1  0.85582458  0.00193712  0.75038598  1
  S  S42  1  0.48261735  0.33193697  0.58300347  1
  S  S43  1  0.98253177  0.33763412  0.58125500  1
  S  S44  1  0.18673352  0.03524218  0.58037344  1
  S  S45  1  0.68298301  0.03407229  0.58376474  1
  S  S46  1  0.33418747  0.63365133  0.58361433  1
  S  S47  1  0.83085471  0.62709100  0.58066113  1
  S  S48  1  0.48074392  0.62245610  0.08195314  1
  S  S49  1  0.98327105  0.63365160  0.08314332  1
  S  S50  1  0.33014485  0.03714076  0.08156313  1
  S  S51  1  0.83310448  0.03422655  0.08330774  1
  S  S52  1  0.18506633  0.33340045  0.08420044  1
  S  S53  1  0.68669754  0.33900792  0.08022851  1
  S  S54  1  0.30987774  0.66770858  0.91805338  1
  S  S55  1  0.81487979  0.67206330  0.91413014  1
  S  S56  1  0.02218540  0.37192803  0.91508149  1
  S  S57  1  0.52277150  0.37886937  0.91714004  1
  S  S58  1  0.16328489  0.95550511  0.91464621  1
  S  S59  1  0.66704758  0.95383040  0.91780871  1
  S  S60  1  0.31366961  0.95605641  0.41418123  1
  S  S61  1  0.81004723  0.95414963  0.41786464  1
  S  S62  1  0.16783766  0.37981195  0.41762465  1
  S  S63  1  0.66395589  0.37339989  0.41482970  1
  S  S64  1  0.02247333  0.66609076  0.41706360  1
  S  S65  1  0.52226745  0.67012364  0.41539596  1
  O  O66  1  0.11057261  0.04607605  0.30004588  1
  O  O67  1  0.60264299  0.04251721  0.30846444  1
  O  O68  1  0.41463549  0.78119673  0.30508173  1
  O  O69  1  0.91538141  0.79576072  0.30175420  1
  O  O70  1  0.47529309  0.16904999  0.30521608  1
  O  O71  1  0.98375235  0.17175791  0.30170139  1
  O  O72  1  0.10510347  0.16744794  0.80916127  1
  O  O73  1  0.60407172  0.17297010  0.80248498  1
  O  O74  1  0.48226809  0.79197522  0.80265957  1
  O  O75  1  0.97859728  0.78880824  0.80896993  1
  O  O76  1  0.41354442  0.03450413  0.80268620  1
  O  O77  1  0.91585209  0.04386121  0.80885670  1
  O  O78  1  0.39767144  0.96929337  0.69254749  1
  O  O79  1  0.89921650  0.97569326  0.69863064  1
  O  O80  1  0.08866424  0.20093246  0.69875615  1
  O  O81  1  0.58680468  0.20488710  0.69255328  1
  O  O82  1  0.01202366  0.82248808  0.69868116  1
  O  O83  1  0.51543830  0.82615365  0.69267948  1
  O  O84  1  0.39774657  0.81516602  0.19573127  1
  O  O85  1  0.89643908  0.82387315  0.19210807  1
  O  O86  1  0.01702188  0.20519513  0.19192922  1
  O  O87  1  0.50879019  0.20415038  0.19586371  1
  O  O88  1  0.09061007  0.97452372  0.19101522  1
  O  O89  1  0.58810935  0.97534819  0.19858449  1
  O  O90  1  0.44503704  0.36903140  0.63625725  1
  O  O91  1  0.94395483  0.37086565  0.63523605  1
  O  O92  1  0.24142431  0.11186386  0.63447934  1
  O  O93  1  0.73918251  0.10941851  0.63699491  1
  O  O94  1  0.31582064  0.52175557  0.63699703  1
  O  O95  1  0.81461840  0.51747926  0.63454775  1
  O  O96  1  0.44072013  0.50507043  0.13953793  1
  O  O97  1  0.94598665  0.52279493  0.13658804  1
  O  O98  1  0.31164655  0.11670650  0.13858462  1
  O  O99  1  0.81598163  0.10922982  0.13727774  1
  O  O100  1  0.24523283  0.37491733  0.13997804  1
  O  O101  1  0.74058289  0.37100702  0.13472012  1
  O  O102  1  0.22459314  0.29719886  0.03219384  1
  O  O103  1  0.72776803  0.31075109  0.02660901  1
  O  O104  1  0.42213302  0.53658751  0.03063136  1
  O  O105  1  0.92946578  0.55948645  0.02890129  1
  O  O106  1  0.34534850  0.15175102  0.02967896  1
  O  O107  1  0.85105199  0.14517085  0.02978873  1
  O  O108  1  0.22743430  0.14470763  0.52634865  1
  O  O109  1  0.72025417  0.14190000  0.52948404  1
  O  O110  1  0.35173424  0.55840616  0.52963658  1
  O  O111  1  0.84394890  0.54630026  0.52619647  1
  O  O112  1  0.42862315  0.29830859  0.52860211  1
  O  O113  1  0.92815698  0.31020178  0.52717516  1
  O  O114  1  0.26856484  0.70235843  0.97654038  1
  O  O115  1  0.77701570  0.70986536  0.97172480  1
  O  O116  1  0.07962486  0.44881491  0.97327440  1
  O  O117  1  0.58055946  0.46076295  0.97487603  1
  O  O118  1  0.14483831  0.84163355  0.97245514  1
  O  O119  1  0.64999173  0.83799939  0.97614627  1
  O  O120  1  0.27599093  0.84347089  0.46989461  1
  O  O121  1  0.76806216  0.83689414  0.47459057  1
  O  O122  1  0.15180145  0.46280375  0.47447124  1
  O  O123  1  0.64549926  0.45097826  0.47064428  1
  O  O124  1  0.08122674  0.70008817  0.47329685  1
  O  O125  1  0.57887621  0.70706651  0.47157172  1
  O  O126  1  0.06448758  0.64081607  0.36347020  1
  O  O127  1  0.56319689  0.64193719  0.36247429  1
  O  O128  1  0.25885584  0.87484361  0.36085611  1
  O  O129  1  0.75522286  0.86969264  0.36475495  1
  O  O130  1  0.18085643  0.48972677  0.36446286  1
  O  O131  1  0.67791202  0.48272157  0.36162620  1
  O  O132  1  0.06517809  0.48824047  0.86390136  1
  O  O133  1  0.56536598  0.48999389  0.86476310  1
  O  O134  1  0.17921442  0.87092623  0.86337501  1
  O  O135  1  0.67947970  0.86717339  0.86553711  1
  O  O136  1  0.25409554  0.64179734  0.86577894  1
  O  O137  1  0.75702001  0.64135181  0.86279034  1
  O  O138  1  0.01539164  0.83118297  0.41359103  1
  O  O139  1  0.51422569  0.83948679  0.40971191  1
  O  O140  1  0.40644462  0.96890194  0.40775456  1
  O  O141  1  0.89987243  0.96968344  0.41481669  1
  O  O142  1  0.08550671  0.20042921  0.41431740  1
  O  O143  1  0.57784619  0.18921899  0.40906392  1
  O  O144  1  0.01515444  0.18998857  0.90978404  1
  O  O145  1  0.51476575  0.19908139  0.91457127  1
  O  O146  1  0.07953380  0.96973398  0.90945771  1
  O  O147  1  0.58460214  0.96838801  0.91547009  1
  O  O148  1  0.39954398  0.83114685  0.91578303  1
  O  O149  1  0.90616360  0.84171439  0.90899740  1
  O  O150  1  0.49530313  0.17053004  0.59156498  1
  O  O151  1  0.99626299  0.18133410  0.58740568  1
  O  O152  1  0.09453865  0.00586376  0.58670502  1
  O  O153  1  0.58960056  0.01040303  0.59205384  1
  O  O154  1  0.41555068  0.82055882  0.59201823  1
  O  O155  1  0.90866894  0.81126176  0.58676934  1
  O  O156  1  0.49001983  0.80094266  0.09087650  1
  O  O157  1  0.99645287  0.82175832  0.09185147  1
  O  O158  1  0.40892994  0.01527093  0.09063938  1
  O  O159  1  0.91601984  0.01164161  0.09099143  1
  O  O160  1  0.09457258  0.17021225  0.09486491  1
  O  O161  1  0.59422755  0.18196125  0.08633214  1
  O  O162  1  0.34875557  0.16534378  0.74131760  1
  O  O163  1  0.84847204  0.16639409  0.74671143  1
  O  O164  1  0.23435006  0.30188991  0.74725398  1
  O  O165  1  0.73412170  0.30264765  0.74087333  1
  O  O166  1  0.41686681  0.53184710  0.74099094  1
  O  O167  1  0.91693497  0.53098158  0.74704411  1
  O  O168  1  0.34832237  0.51943949  0.24298389  1
  O  O169  1  0.84879505  0.53181517  0.24152712  1
  O  O170  1  0.41071540  0.30237501  0.24355082  1
  O  O171  1  0.91716227  0.30073998  0.24061041  1
  O  O172  1  0.24023504  0.17809335  0.23841433  1
  O  O173  1  0.73341431  0.16618522  0.24758264  1
  O  O174  1  0.31706110  0.50475036  0.92619702  1
  O  O175  1  0.82605599  0.51406195  0.92326425  1
  O  O176  1  0.43322098  0.36264323  0.92502298  1
  O  O177  1  0.93279070  0.35218563  0.92459691  1
  O  O178  1  0.24301266  0.13485188  0.92388458  1
  O  O179  1  0.74822469  0.13232936  0.92578939  1
  O  O180  1  0.32727234  0.13877257  0.42222436  1
  O  O181  1  0.81769280  0.13220913  0.42537488  1
  O  O182  1  0.24896060  0.36234828  0.42494998  1
  O  O183  1  0.74213868  0.34818604  0.42277530  1
  O  O184  1  0.43158177  0.51262136  0.42360711  1
  O  O185  1  0.93275670  0.50422444  0.42423657  1
  O  O186  1  0.17563202  0.49736744  0.07714959  1
  O  O187  1  0.67914807  0.50992588  0.07314092  1
  O  O188  1  0.07729823  0.65329937  0.07455012  1
  O  O189  1  0.57117701  0.63748607  0.07640395  1
  O  O190  1  0.24602820  0.85530697  0.07550475  1
  O  O191  1  0.75075845  0.84787652  0.07489903  1
  O  O192  1  0.18058277  0.85067483  0.57295780  1
  O  O193  1  0.67139961  0.84599139  0.57532627  1
  O  O194  1  0.25172135  0.65473079  0.57465997  1
  O  O195  1  0.74465260  0.64132758  0.57402625  1
  O  O196  1  0.07602601  0.50813548  0.57472826  1
  O  O197  1  0.57569718  0.49887035  0.57394578  1
  O  O198  1  0.15906992  0.84959058  0.25274072  1
  O  O199  1  0.65024855  0.84032484  0.26088369  1
  O  O200  1  0.26693349  0.68365841  0.25848871  1
  O  O201  1  0.76802707  0.69609189  0.25492022  1
  O  O202  1  0.08024097  0.46387487  0.25382697  1
  O  O203  1  0.57446062  0.46529907  0.25892835  1
  O  O204  1  0.15105311  0.46104738  0.76092538  1
  O  O205  1  0.65150588  0.46316428  0.75456974  1
  O  O206  1  0.07986058  0.69788433  0.76075834  1
  O  O207  1  0.57991068  0.69702995  0.75444548  1
  O  O208  1  0.26849839  0.83928664  0.75445357  1
  O  O209  1  0.76899956  0.84094828  0.76078703  1
