# generated using pymatgen
data_Na2La4Al4SiS11O48
_symmetry_space_group_name_H-M   'P 1'
_cell_length_a   17.71624567
_cell_length_b   8.90566615
_cell_length_c   23.54323428
_cell_angle_alpha   90.10360217
_cell_angle_beta   90.23419775
_cell_angle_gamma   120.36333779
_symmetry_Int_Tables_number   1
_chemical_formula_structural   Na2La4Al4SiS11O48
_chemical_formula_sum   'Na6 La12 Al12 Si3 S33 O144'
_cell_volume   3204.97856594
_cell_formula_units_Z   3
loop_
 _symmetry_equiv_pos_site_id
 _symmetry_equiv_pos_as_xyz
  1  'x, y, z'
loop_
 _atom_site_type_symbol
 _atom_site_label
 _atom_site_symmetry_multiplicity
 _atom_site_fract_x
 _atom_site_fract_y
 _atom_site_fract_z
 _atom_site_occupancy
  Na  Na0  1  0.99966860  0.97539416  0.48613540  1
  Na  Na1  1  0.50229064  0.02677126  0.00684753  1
  Na  Na2  1  0.34251089  0.33385492  0.83534751  1
  Na  Na3  1  0.83695398  0.34587135  0.83259744  1
  Na  Na4  1  0.33536177  0.33321277  0.33219593  1
  Na  Na5  1  0.84034043  0.34890976  0.32085335  1
  La  La6  1  0.00185139  0.99495486  0.86100345  1
  La  La7  1  0.49676688  0.00191125  0.86329415  1
  La  La8  1  0.00055941  0.98682609  0.64553610  1
  La  La9  1  0.49736603  0.99934579  0.63591490  1
  La  La10  1  0.34498285  0.33547256  0.67960855  1
  La  La11  1  0.83871301  0.36173985  0.67814339  1
  La  La12  1  0.34673217  0.34087350  0.99339565  1
  La  La13  1  0.84190230  0.34824751  0.46558730  1
  La  La14  1  0.65875891  0.65138479  0.03584278  1
  La  La15  1  0.15572140  0.66767866  0.50007977  1
  La  La16  1  0.14948032  0.64521650  0.81356669  1
  La  La17  1  0.67157431  0.67074991  0.82366045  1
  Al  Al18  1  0.00936016  0.99883365  0.33713597  1
  Al  Al19  1  0.50076893  0.01173210  0.34663685  1
  Al  Al20  1  0.99903290  0.01418033  0.15427985  1
  Al  Al21  1  0.49383405  0.99124819  0.16702451  1
  Al  Al22  1  0.31403515  0.30794201  0.17542277  1
  Al  Al23  1  0.85431530  0.36480339  0.18027586  1
  Al  Al24  1  0.83760298  0.33655496  0.99710957  1
  Al  Al25  1  0.33823265  0.34027920  0.47607651  1
  Al  Al26  1  0.15911382  0.65930143  0.02413976  1
  Al  Al27  1  0.66387231  0.67055613  0.50442375  1
  Al  Al28  1  0.17386537  0.65757371  0.31999097  1
  Al  Al29  1  0.64998021  0.65687867  0.31520066  1
  Si  Si30  1  0.99175627  0.68525472  0.74907333  1
  Si  Si31  1  0.50888493  0.36510621  0.92071616  1
  Si  Si32  1  0.02176881  0.68537963  0.39687402  1
  S  S33  1  0.14503713  0.01011822  0.24234004  1
  S  S34  1  0.63864295  0.99468445  0.25773169  1
  S  S35  1  0.35438968  0.71499868  0.25832754  1
  S  S36  1  0.86069703  0.71885184  0.24401857  1
  S  S37  1  0.00116914  0.28615216  0.25322804  1
  S  S38  1  0.50092788  0.28638879  0.24947962  1
  S  S39  1  0.16251189  0.30768383  0.75095237  1
  S  S40  1  0.64922902  0.30083457  0.74995769  1
  S  S41  1  0.50286515  0.70047229  0.75184785  1
  S  S42  1  0.34599817  -0.00004187  0.74996397  1
  S  S43  1  0.84675136  0.00620131  0.75070751  1
  S  S44  1  0.48842138  0.35818752  0.56251429  1
  S  S45  1  0.99165739  0.33212907  0.57797777  1
  S  S46  1  0.19173014  0.05583243  0.56599149  1
  S  S47  1  0.68743522  0.00743164  0.57305986  1
  S  S48  1  0.33260613  0.61510331  0.56714031  1
  S  S49  1  0.81539989  0.63966723  0.57006160  1
  S  S50  1  0.47063631  0.64300772  0.10497295  1
  S  S51  1  0.97989998  0.63263154  0.08638577  1
  S  S52  1  0.33689416  0.02498042  0.09530183  1
  S  S53  1  0.85035439  0.07798585  0.09527394  1
  S  S54  1  0.17463764  0.32391711  0.09063870  1
  S  S55  1  0.69431671  0.30133018  0.09498955  1
  S  S56  1  0.30406579  0.66452236  0.93315270  1
  S  S57  1  0.81611811  0.63141734  0.92968336  1
  S  S58  1  0.01080367  0.37628441  0.93623649  1
  S  S59  1  0.16507601  0.94482200  0.93302591  1
  S  S60  1  0.68556195  0.99897147  0.93041263  1
  S  S61  1  0.32578728  0.97657467  0.40558974  1
  S  S62  1  0.80159807  0.92157513  0.40551625  1
  S  S63  1  0.16884331  0.35733356  0.40527462  1
  S  S64  1  0.65169286  0.37831523  0.40354590  1
  S  S65  1  0.52120442  0.67201936  0.41105427  1
  O  O66  1  0.11046009  0.05890403  0.29253371  1
  O  O67  1  0.59728422  0.03124224  0.30749701  1
  O  O68  1  0.41572661  0.79980692  0.30728663  1
  O  O69  1  0.92096603  0.80199844  0.29333410  1
  O  O70  1  0.48434623  0.16851261  0.29857063  1
  O  O71  1  0.97887754  0.16304713  0.30246117  1
  O  O72  1  0.11206258  0.22771932  0.80371399  1
  O  O73  1  0.59863880  0.20227557  0.80009329  1
  O  O74  1  0.50427146  0.79117801  0.80495287  1
  O  O75  1  0.99782363  0.80375530  0.80381380  1
  O  O76  1  0.39653702  0.99939742  0.79973059  1
  O  O77  1  0.89363499  0.01340873  0.80466085  1
  O  O78  1  0.39592722  0.02800054  0.69611027  1
  O  O79  1  0.89978568  0.01767518  0.70076704  1
  O  O80  1  0.11502303  0.20708745  0.69993776  1
  O  O81  1  0.60456568  0.20808924  0.69630148  1
  O  O82  1  0.97776137  0.75261072  0.68718209  1
  O  O83  1  0.48982553  0.78387585  0.70098441  1
  O  O84  1  0.39262424  0.83106167  0.20816508  1
  O  O85  1  0.90038356  0.83372765  0.19295380  1
  O  O86  1  0.01402414  0.20358782  0.20207807  1
  O  O87  1  0.52150885  0.20825782  0.19907952  1
  O  O88  1  0.08452567  0.97693023  0.19346421  1
  O  O89  1  0.58141944  0.96447340  0.20684920  1
  O  O90  1  0.46177444  0.39495494  0.61769866  1
  O  O91  1  0.94699058  0.32049047  0.63180296  1
  O  O92  1  0.22945095  0.14307080  0.62082033  1
  O  O93  1  0.73474484  0.06952879  0.62727536  1
  O  O94  1  0.32869650  0.52973997  0.62179311  1
  O  O95  1  0.80272895  0.55800682  0.62605685  1
  O  O96  1  0.41196020  0.50129735  0.14556295  1
  O  O97  1  0.94650619  0.51903752  0.13873741  1
  O  O98  1  0.31753194  0.12885571  0.13820201  1
  O  O99  1  0.83987793  0.16390027  0.14715747  1
  O  O100  1  0.23986141  0.36211547  0.13875649  1
  O  O101  1  0.75187949  0.32780037  0.14546837  1
  O  O102  1  0.20434755  0.27306751  0.04036605  1
  O  O103  1  0.73522290  0.27926845  0.04255748  1
  O  O104  1  0.43166064  0.60511106  0.04775053  1
  O  O105  1  0.91510784  0.54169743  0.04010998  1
  O  O106  1  0.36703914  0.12485757  0.04223687  1
  O  O107  1  0.86562137  0.18924190  0.04485387  1
  O  O108  1  0.24800829  0.15954650  0.51679502  1
  O  O109  1  0.73247284  0.13261900  0.52655520  1
  O  O110  1  0.33344028  0.50661761  0.51825177  1
  O  O111  1  0.83425104  0.54297830  0.52639952  1
  O  O112  1  0.42322991  0.33210297  0.51738539  1
  O  O113  1  0.93969267  0.33806592  0.52886302  1
  O  O114  1  0.24843200  0.65621800  0.98227003  1
  O  O115  1  0.76326853  0.65176775  0.97417596  1
  O  O116  1  0.07501277  0.48638727  0.98085146  1
  O  O117  1  0.55438681  0.47777633  0.97889470  1
  O  O118  1  0.17250847  0.84728323  0.98291043  1
  O  O119  1  0.67307619  0.87388102  0.97545377  1
  O  O120  1  0.29705791  0.88027754  0.45880956  1
  O  O121  1  0.75942726  0.81918352  0.45778781  1
  O  O122  1  0.14731614  0.40739346  0.45914576  1
  O  O123  1  0.64007742  0.45912960  0.45490977  1
  O  O124  1  0.05461080  0.70889942  0.46328462  1
  O  O125  1  0.58068113  0.70478322  0.45947457  1
  O  O126  1  0.09014747  0.66236539  0.35560893  1
  O  O127  1  0.55590377  0.62713865  0.35912570  1
  O  O128  1  0.26290472  0.88365959  0.35798747  1
  O  O129  1  0.74573769  0.82945165  0.35450839  1
  O  O130  1  0.19164469  0.49410120  0.36049048  1
  O  O131  1  0.66293876  0.48682349  0.35225184  1
  O  O132  1  0.03540196  0.46151849  0.88035001  1
  O  O133  1  0.55898642  0.45287472  0.86208311  1
  O  O134  1  0.17170299  0.87020606  0.87885299  1
  O  O135  1  0.69709963  0.94137738  0.87393485  1
  O  O136  1  0.26968243  0.67951790  0.87805767  1
  O  O137  1  0.77359113  0.60010627  0.87309416  1
  O  O138  1  0.01498154  0.85879703  0.38555928  1
  O  O139  1  0.51393461  0.82670766  0.40009330  1
  O  O140  1  0.41142913  0.99427655  0.39134433  1
  O  O141  1  0.88942794  0.94430082  0.40060909  1
  O  O142  1  0.09125328  0.19249632  0.38702605  1
  O  O143  1  0.57331846  0.20206305  0.39543151  1
  O  O144  1  0.00456957  0.20659485  0.93508395  1
  O  O145  1  0.50060045  0.17642565  0.93049418  1
  O  O146  1  0.08246387  0.94432083  0.93712920  1
  O  O147  1  0.60899615  0.02370279  0.93035766  1
  O  O148  1  0.39327331  0.81574335  0.94244567  1
  O  O149  1  0.90325040  0.78677857  0.92862236  1
  O  O150  1  0.49416238  0.19997508  0.56618677  1
  O  O151  1  0.00037451  0.17726416  0.56935879  1
  O  O152  1  0.10429426  0.03539983  0.55887712  1
  O  O153  1  0.59800175  0.98066336  0.57890241  1
  O  O154  1  0.41449532  0.78402163  0.56492633  1
  O  O155  1  0.89016291  0.82108314  0.57037054  1
  O  O156  1  0.47958367  0.81254121  0.12043784  1
  O  O157  1  0.98732959  0.80134703  0.09824893  1
  O  O158  1  0.41267507  0.01050754  0.11606364  1
  O  O159  1  0.92755473  0.05612906  0.10370991  1
  O  O160  1  0.09000451  0.17462499  0.10906247  1
  O  O161  1  0.60609733  0.14482979  0.10201885  1
  O  O162  1  0.33270715  0.15065572  0.75713022  1
  O  O163  1  0.83164511  0.15430533  0.75138850  1
  O  O164  1  0.24688891  0.31114309  0.75538032  1
  O  O165  1  0.73496264  0.31176904  0.75359929  1
  O  O166  1  0.42560646  0.52059728  0.75621209  1
  O  O167  1  0.90692804  0.49221563  0.75665115  1
  O  O168  1  0.34337250  0.54169149  0.24835574  1
  O  O169  1  0.85521148  0.54317613  0.23306353  1
  O  O170  1  0.42193000  0.29869593  0.23931327  1
  O  O171  1  0.92451637  0.31474808  0.24323507  1
  O  O172  1  0.23486117  0.17390673  0.23119634  1
  O  O173  1  0.72662219  0.14385198  0.24974576  1
  O  O174  1  0.30784765  0.50272637  0.93168789  1
  O  O175  1  0.82275913  0.47525829  0.94283020  1
  O  O176  1  0.41209712  0.34462238  0.91528596  1
  O  O177  1  0.92593879  0.36056861  0.94995584  1
  O  O178  1  0.23926242  0.12433931  0.93524244  1
  O  O179  1  0.76673124  0.16557801  0.94293602  1
  O  O180  1  0.33622950  0.15489369  0.41264602  1
  O  O181  1  0.80686395  0.09233677  0.40834381  1
  O  O182  1  0.24818162  0.33791818  0.41257227  1
  O  O183  1  0.72928683  0.35941895  0.40721226  1
  O  O184  1  0.43201938  0.51494811  0.42132770  1
  O  O185  1  0.92567078  0.50686535  0.39278316  1
  O  O186  1  0.16712440  0.48055055  0.08164070  1
  O  O187  1  0.68609587  0.45656791  0.09040734  1
  O  O188  1  0.06594574  0.65085900  0.07266445  1
  O  O189  1  0.55629840  0.65605516  0.10615632  1
  O  O190  1  0.25779471  0.85416782  0.08641648  1
  O  O191  1  0.77202028  0.90756651  0.08834795  1
  O  O192  1  0.18766606  0.88768004  0.56792277  1
  O  O193  1  0.67863177  0.83832745  0.55718162  1
  O  O194  1  0.25653211  0.63546024  0.56238310  1
  O  O195  1  0.73364643  0.63347384  0.55398168  1
  O  O196  1  0.07825592  0.49119492  0.57897570  1
  O  O197  1  0.57250361  0.50888097  0.54772414  1
  O  O198  1  0.15788517  0.86489736  0.25242833  1
  O  O199  1  0.64220970  0.83203135  0.26814743  1
  O  O200  1  0.26680815  0.69764732  0.26931344  1
  O  O201  1  0.77384119  0.69089601  0.25532963  1
  O  O202  1  0.08131781  0.45385953  0.26472598  1
  O  O203  1  0.57807984  0.46343576  0.26026642  1
  O  O204  1  0.17981325  0.48582761  0.74531462  1
  O  O205  1  0.65986708  0.47494798  0.74880994  1
  O  O206  1  0.07896834  0.67153614  0.74578686  1
  O  O207  1  0.58322207  0.69412703  0.74640184  1
  O  O208  1  0.26261910  0.83795604  0.74633980  1
  O  O209  1  0.76319193  0.84141992  0.74757238  1
