# generated using pymatgen
data_MgMn3Zn2O8
_symmetry_space_group_name_H-M   'P 1'
_cell_length_a   5.75631993
_cell_length_b   5.69163908
_cell_length_c   5.74478354
_cell_angle_alpha   119.69446168
_cell_angle_beta   89.82371817
_cell_angle_gamma   90.00000436
_symmetry_Int_Tables_number   1
_chemical_formula_structural   MgMn3Zn2O8
_chemical_formula_sum   'Mg1 Mn3 Zn2 O8'
_cell_volume   163.49811322
_cell_formula_units_Z   1
loop_
 _symmetry_equiv_pos_site_id
 _symmetry_equiv_pos_as_xyz
  1  'x, y, z'
loop_
 _atom_site_type_symbol
 _atom_site_label
 _atom_site_symmetry_multiplicity
 _atom_site_fract_x
 _atom_site_fract_y
 _atom_site_fract_z
 _atom_site_occupancy
  Mg  Mg0  1  0.79786396  0.30426174  0.60852249  1
  Mn  Mn1  1  0.50123764  0.99828840  0.99657981  1
  Mn  Mn2  1  0.04049082  0.78517904  0.07099653  1
  Mn  Mn3  1  0.04049082  0.28581849  0.07099653  1
  Zn  Zn4  1  0.56530426  0.70358861  0.40717621  1
  Zn  Zn5  1  0.36195597  0.29028483  0.58056965  1
  O  O6  1  0.08823966  0.39811054  0.79622309  1
  O  O7  1  0.89843340  0.63190452  0.26381003  1
  O  O8  1  0.18070762  0.93159121  0.86318142  1
  O  O9  1  0.82179410  0.10229713  0.20459427  1
  O  O10  1  0.37312065  0.35471160  0.24925634  1
  O  O11  1  0.37312065  0.89454475  0.24925634  1
  O  O12  1  0.59945223  0.10543289  0.73608514  1
  O  O13  1  0.59945223  0.63065125  0.73608514  1
