# generated using pymatgen
data_Lu6MgWO12
_symmetry_space_group_name_H-M   'P 1'
_cell_length_a   6.42720141
_cell_length_b   6.42720144
_cell_length_c   6.42720135
_cell_angle_alpha   99.58363752
_cell_angle_beta   99.58363913
_cell_angle_gamma   99.58362573
_symmetry_Int_Tables_number   1
_chemical_formula_structural   Lu6MgWO12
_chemical_formula_sum   'Lu6 Mg1 W1 O12'
_cell_volume   252.93969061
_cell_formula_units_Z   1
loop_
 _symmetry_equiv_pos_site_id
 _symmetry_equiv_pos_as_xyz
  1  'x, y, z'
loop_
 _atom_site_type_symbol
 _atom_site_label
 _atom_site_symmetry_multiplicity
 _atom_site_fract_x
 _atom_site_fract_y
 _atom_site_fract_z
 _atom_site_occupancy
  Lu  Lu0  1  0.13285300  0.30608500  0.65086300  1
  Lu  Lu1  1  0.39442500  0.85903500  0.66774300  1
  Lu  Lu2  1  0.30608500  0.65086300  0.13285300  1
  Lu  Lu3  1  0.66774300  0.39442500  0.85903500  1
  Lu  Lu4  1  0.65086300  0.13285300  0.30608500  1
  Lu  Lu5  1  0.85903500  0.66774300  0.39442500  1
  Mg  Mg6  1  0.27235300  0.27235300  0.27235300  1
  W  W7  1  0.97960800  0.97960800  0.97960800  1
  O  O8  1  0.05612400  0.91566800  0.67750100  1
  O  O9  1  0.09727400  0.30744600  0.97705500  1
  O  O10  1  0.18946600  0.56125400  0.41663500  1
  O  O11  1  0.30744600  0.97705500  0.09727400  1
  O  O12  1  0.40869400  0.58352500  0.82764200  1
  O  O13  1  0.41663500  0.18946600  0.56125400  1
  O  O14  1  0.58352500  0.82764200  0.40869400  1
  O  O15  1  0.56125400  0.41663500  0.18946600  1
  O  O16  1  0.67750100  0.05612400  0.91566800  1
  O  O17  1  0.82764200  0.40869400  0.58352500  1
  O  O18  1  0.91566800  0.67750100  0.05612400  1
  O  O19  1  0.97705500  0.09727400  0.30744600  1
