# generated using pymatgen
data_MgZn2Cr2O8
_symmetry_space_group_name_H-M   'P 1'
_cell_length_a   5.26697522
_cell_length_b   5.26697522
_cell_length_c   6.29819636
_cell_angle_alpha   86.65561676
_cell_angle_beta   86.65561676
_cell_angle_gamma   64.88313503
_symmetry_Int_Tables_number   1
_chemical_formula_structural   MgZn2Cr2O8
_chemical_formula_sum   'Mg1 Zn2 Cr2 O8'
_cell_volume   157.81933723
_cell_formula_units_Z   1
loop_
 _symmetry_equiv_pos_site_id
 _symmetry_equiv_pos_as_xyz
  1  'x, y, z'
loop_
 _atom_site_type_symbol
 _atom_site_label
 _atom_site_symmetry_multiplicity
 _atom_site_fract_x
 _atom_site_fract_y
 _atom_site_fract_z
 _atom_site_occupancy
  Mg  Mg0  1  0.50000000  0.50000000  0.50000000  1
  Zn  Zn1  1  0.00000000  0.00000000  0.00000000  1
  Zn  Zn2  1  0.00000000  0.00000000  0.50000000  1
  Cr  Cr3  1  0.32814300  0.32814300  0.20499900  1
  Cr  Cr4  1  0.67185700  0.67185700  0.79500100  1
  O  O5  1  0.29886600  0.76800000  0.74598200  1
  O  O6  1  0.23200000  0.70113400  0.25401800  1
  O  O7  1  0.76901400  0.76901400  0.55764100  1
  O  O8  1  0.23842200  0.23842200  0.98401800  1
  O  O9  1  0.76157800  0.76157800  0.01598200  1
  O  O10  1  0.23098600  0.23098600  0.44235900  1
  O  O11  1  0.70113400  0.23200000  0.25401800  1
  O  O12  1  0.76800000  0.29886600  0.74598200  1
