# generated using pymatgen
data_MgMn4Zn2O8
_symmetry_space_group_name_H-M   'P 1'
_cell_length_a   2.97677906
_cell_length_b   5.37464504
_cell_length_c   11.98564502
_cell_angle_alpha   94.02272151
_cell_angle_beta   87.81014093
_cell_angle_gamma   105.10777229
_symmetry_Int_Tables_number   1
_chemical_formula_structural   MgMn4Zn2O8
_chemical_formula_sum   'Mg1 Mn4 Zn2 O8'
_cell_volume   184.63651452
_cell_formula_units_Z   1
loop_
 _symmetry_equiv_pos_site_id
 _symmetry_equiv_pos_as_xyz
  1  'x, y, z'
loop_
 _atom_site_type_symbol
 _atom_site_label
 _atom_site_symmetry_multiplicity
 _atom_site_fract_x
 _atom_site_fract_y
 _atom_site_fract_z
 _atom_site_occupancy
  Mg  Mg0  1  0.67370513  0.35850568  0.76022999  1
  Mn  Mn1  1  0.82140988  0.73503673  0.11263141  1
  Mn  Mn2  1  0.09051996  0.22249667  0.98928733  1
  Mn  Mn3  1  0.97799238  0.80805755  0.40292118  1
  Mn  Mn4  1  0.19003324  0.33565036  0.53433440  1
  Zn  Zn5  1  0.44861139  0.87149171  0.64192941  1
  Zn  Zn6  1  0.56706307  0.23482426  0.22607412  1
  O  O7  1  0.37251571  0.55689599  0.39609486  1
  O  O8  1  0.81272812  0.59364346  0.63420085  1
  O  O9  1  0.68817661  0.40752421  0.92202927  1
  O  O10  1  0.17586119  0.45770531  0.14431436  1
  O  O11  1  0.95690891  0.99065262  0.26020780  1
  O  O12  1  0.07777255  0.13786126  0.70220535  1
  O  O13  1  0.47234690  0.99058771  0.03811589  1
  O  O14  1  0.54935696  0.03656747  0.48542477  1
