# generated using pymatgen
data_SbSeCl9
_symmetry_space_group_name_H-M   'P 1'
_cell_length_a   10.94594565
_cell_length_b   9.49248231
_cell_length_c   12.72572698
_cell_angle_alpha   76.76985154
_cell_angle_beta   90.00000000
_cell_angle_gamma   90.00000000
_symmetry_Int_Tables_number   1
_chemical_formula_structural   SbSeCl9
_chemical_formula_sum   'Sb4 Se4 Cl36'
_cell_volume   1287.16190255
_cell_formula_units_Z   4
loop_
 _symmetry_equiv_pos_site_id
 _symmetry_equiv_pos_as_xyz
  1  'x, y, z'
loop_
 _atom_site_type_symbol
 _atom_site_label
 _atom_site_symmetry_multiplicity
 _atom_site_fract_x
 _atom_site_fract_y
 _atom_site_fract_z
 _atom_site_occupancy
  Sb  Sb0  1  0.25000000  0.97719647  0.37856134  1
  Sb  Sb1  1  0.75000000  0.02280353  0.62143866  1
  Sb  Sb2  1  0.25000000  0.33276796  0.83064055  1
  Sb  Sb3  1  0.75000000  0.66723204  0.16935945  1
  Se  Se4  1  0.75000000  0.62771059  0.68016681  1
  Se  Se5  1  0.25000000  0.37228941  0.31983319  1
  Se  Se6  1  0.25000000  0.93554949  0.88218266  1
  Se  Se7  1  0.75000000  0.06445051  0.11781734  1
  Cl  Cl8  1  0.59946413  0.51817256  0.62316473  1
  Cl  Cl9  1  0.09946413  0.48182744  0.37683527  1
  Cl  Cl10  1  0.75000000  0.84029721  0.99488199  1
  Cl  Cl11  1  0.25000000  0.15970279  0.00511801  1
  Cl  Cl12  1  0.90382836  0.81879136  0.22651698  1
  Cl  Cl13  1  0.40382836  0.18120864  0.77348302  1
  Cl  Cl14  1  0.09617164  0.18120864  0.77348302  1
  Cl  Cl15  1  0.59617164  0.81879136  0.22651698  1
  Cl  Cl16  1  0.75000000  0.51111066  0.34223793  1
  Cl  Cl17  1  0.25000000  0.48888934  0.65776207  1
  Cl  Cl18  1  0.90588568  0.53550715  0.10611056  1
  Cl  Cl19  1  0.40588568  0.46449285  0.89388944  1
  Cl  Cl20  1  0.09411432  0.46449285  0.89388944  1
  Cl  Cl21  1  0.59411432  0.53550715  0.10611056  1
  Cl  Cl22  1  0.40053587  0.48182744  0.37683527  1
  Cl  Cl23  1  0.90053587  0.51817256  0.62316473  1
  Cl  Cl24  1  0.75000000  0.86595418  0.49357811  1
  Cl  Cl25  1  0.25000000  0.13404582  0.50642189  1
  Cl  Cl26  1  0.59680508  0.85779440  0.72265462  1
  Cl  Cl27  1  0.09680508  0.14220560  0.27734538  1
  Cl  Cl28  1  0.40319492  0.14220560  0.27734538  1
  Cl  Cl29  1  0.90319492  0.85779440  0.72265462  1
  Cl  Cl30  1  0.75000000  0.15247836  0.75867255  1
  Cl  Cl31  1  0.25000000  0.84752164  0.24132745  1
  Cl  Cl32  1  0.59474218  0.16468412  0.52313345  1
  Cl  Cl33  1  0.09474218  0.83531588  0.47686655  1
  Cl  Cl34  1  0.40525782  0.83531588  0.47686655  1
  Cl  Cl35  1  0.90525782  0.16468412  0.52313345  1
  Cl  Cl36  1  0.25000000  0.48843363  0.15220725  1
  Cl  Cl37  1  0.75000000  0.51156637  0.84779275  1
  Cl  Cl38  1  0.75000000  0.16921319  0.25088570  1
  Cl  Cl39  1  0.25000000  0.83078681  0.74911430  1
  Cl  Cl40  1  0.90014524  0.17868854  0.02578129  1
  Cl  Cl41  1  0.40014524  0.82131146  0.97421871  1
  Cl  Cl42  1  0.09985476  0.82131146  0.97421871  1
  Cl  Cl43  1  0.59985476  0.17868854  0.02578129  1
