# generated using pymatgen
data_Na10Ca3Ti5Si6(SO8)6
_symmetry_space_group_name_H-M   'P 1'
_cell_length_a   18.21618925
_cell_length_b   9.10584109
_cell_length_c   22.45726532
_cell_angle_alpha   89.61239305
_cell_angle_beta   89.67098165
_cell_angle_gamma   120.11376113
_symmetry_Int_Tables_number   1
_chemical_formula_structural   Na10Ca3Ti5Si6(SO8)6
_chemical_formula_sum   'Na30 Ca9 Ti15 Si18 S18 O144'
_cell_volume   3222.04754901
_cell_formula_units_Z   3
loop_
 _symmetry_equiv_pos_site_id
 _symmetry_equiv_pos_as_xyz
  1  'x, y, z'
loop_
 _atom_site_type_symbol
 _atom_site_label
 _atom_site_symmetry_multiplicity
 _atom_site_fract_x
 _atom_site_fract_y
 _atom_site_fract_z
 _atom_site_occupancy
  Na  Na0  1  0.31655431  0.00229144  0.24909293  1
  Na  Na1  1  0.18814464  0.35711552  0.24202419  1
  Na  Na2  1  0.69058938  0.37130105  0.24104608  1
  Na  Na3  1  0.99734892  0.63315140  0.25290832  1
  Na  Na4  1  0.31525024  0.61675792  0.75525648  1
  Na  Na5  1  0.81705416  0.62199117  0.75370696  1
  Na  Na6  1  0.99180322  0.36303119  0.75027210  1
  Na  Na7  1  0.49349812  0.37232100  0.74153458  1
  Na  Na8  1  0.18646390  0.01008052  0.75277616  1
  Na  Na9  1  0.69064317  0.01447762  0.75472252  1
  Na  Na10  1  0.65375902  0.34337127  0.57282038  1
  Na  Na11  1  0.32143051  0.67520457  0.07619890  1
  Na  Na12  1  0.82352477  0.68360467  0.08740824  1
  Na  Na13  1  0.15813533  0.31361642  0.92251834  1
  Na  Na14  1  0.00233044  0.31155077  0.42057311  1
  Na  Na15  1  0.16377473  0.02563013  0.42149223  1
  Na  Na16  1  0.66227048  0.01319048  0.41561947  1
  Na  Na17  1  0.84492606  0.68357724  0.42145445  1
  Na  Na18  1  0.00252266  0.00525133  0.50459845  1
  Na  Na19  1  0.49003286  0.00347333  0.49799598  1
  Na  Na20  1  0.00108704  0.01734417  0.99926338  1
  Na  Na21  1  0.50205296  0.02772801  0.99614903  1
  Na  Na22  1  0.34260749  0.35008188  0.83582452  1
  Na  Na23  1  0.83634665  0.33660363  0.83406111  1
  Na  Na24  1  0.34043199  0.37430006  0.33037027  1
  Na  Na25  1  0.83302811  0.33092511  0.32881210  1
  Na  Na26  1  0.16380578  0.65329594  0.15866869  1
  Na  Na27  1  0.65749337  0.66310945  0.15997163  1
  Na  Na28  1  0.16249133  0.66457181  0.66161832  1
  Na  Na29  1  0.65803123  0.66437024  0.65944844  1
  Ca  Ca30  1  0.49789176  0.99916677  0.35261770  1
  Ca  Ca31  1  0.33419627  0.33950756  0.68398792  1
  Ca  Ca32  1  0.83578675  0.33703284  0.68835281  1
  Ca  Ca33  1  0.33279740  0.33434699  0.18460948  1
  Ca  Ca34  1  0.83481284  0.32867049  0.18427005  1
  Ca  Ca35  1  0.16403930  0.65799308  0.01134194  1
  Ca  Ca36  1  0.65850391  0.64651047  0.01066958  1
  Ca  Ca37  1  0.16020651  0.65357033  0.51437353  1
  Ca  Ca38  1  0.66938842  0.67114032  0.51717540  1
  Ti  Ti39  1  0.00162188  0.99177067  0.35340514  1
  Ti  Ti40  1  0.99559212  0.00272646  0.85012452  1
  Ti  Ti41  1  0.50052959  0.99823366  0.85558121  1
  Ti  Ti42  1  0.00123939  0.00107893  0.65662984  1
  Ti  Ti43  1  0.50650384  0.01709607  0.64847038  1
  Ti  Ti44  1  0.00902817  0.99321644  0.14856072  1
  Ti  Ti45  1  0.49701934  0.99854622  0.14504632  1
  Ti  Ti46  1  0.33108795  0.34954558  0.97530367  1
  Ti  Ti47  1  0.82513115  0.31863038  0.98143707  1
  Ti  Ti48  1  0.33803673  0.33919821  0.48656002  1
  Ti  Ti49  1  0.83848623  0.34231564  0.47108280  1
  Ti  Ti50  1  0.17150251  0.65941085  0.31422525  1
  Ti  Ti51  1  0.68124176  0.67568812  0.31841740  1
  Ti  Ti52  1  0.15299362  0.63332730  0.81860135  1
  Ti  Ti53  1  0.65261682  0.64886406  0.80822093  1
  Si  Si54  1  0.14475207  0.98378952  0.25381260  1
  Si  Si55  1  0.34983859  0.70878471  0.25067576  1
  Si  Si56  1  0.85619290  0.72197773  0.25070009  1
  Si  Si57  1  0.14100340  0.29145522  0.75361500  1
  Si  Si58  1  0.63955210  0.28968326  0.75207628  1
  Si  Si59  1  0.00896658  0.72275419  0.75515587  1
  Si  Si60  1  0.50255745  0.72405844  0.75122205  1
  Si  Si61  1  0.85047263  0.98264262  0.75225686  1
  Si  Si62  1  0.48172813  0.32328415  0.58963648  1
  Si  Si63  1  0.17997032  0.32277904  0.08539910  1
  Si  Si64  1  0.68173985  0.32561546  0.08886124  1
  Si  Si65  1  0.31625444  0.67323219  0.91677239  1
  Si  Si66  1  0.00666937  0.34747382  0.91878551  1
  Si  Si67  1  0.51058337  0.35769538  0.91537270  1
  Si  Si68  1  0.82055918  0.97158491  0.41589562  1
  Si  Si69  1  0.17090429  0.36604374  0.41520957  1
  Si  Si70  1  0.66846869  0.36770167  0.42125879  1
  Si  Si71  1  0.02318790  0.67312317  0.41310513  1
  S  S72  1  0.64299135  0.98047065  0.25019996  1
  S  S73  1  0.00628887  0.28866617  0.25163623  1
  S  S74  1  0.50905789  0.30307048  0.24755266  1
  S  S75  1  0.35573936  0.98655062  0.75136015  1
  S  S76  1  0.97872675  0.31572391  0.58296723  1
  S  S77  1  0.18012431  0.04025758  0.58430075  1
  S  S78  1  0.68294879  0.04589871  0.58401391  1
  S  S79  1  0.33890420  0.63842318  0.58311663  1
  S  S80  1  0.84276707  0.64060556  0.58251859  1
  S  S81  1  0.47908615  0.64012528  0.08163419  1
  S  S82  1  0.97956320  0.63781612  0.08339469  1
  S  S83  1  0.33949475  0.03959335  0.08524045  1
  S  S84  1  0.83857820  0.04077645  0.07944962  1
  S  S85  1  0.81855466  0.66151326  0.91555904  1
  S  S86  1  0.16664376  0.97107467  0.91323158  1
  S  S87  1  0.66827563  0.97376778  0.91374970  1
  S  S88  1  0.31224194  0.97096718  0.41712081  1
  S  S89  1  0.51463436  0.64873424  0.41616542  1
  O  O90  1  0.08929684  0.00172495  0.30749461  1
  O  O91  1  0.61078815  0.00656404  0.30714329  1
  O  O92  1  0.39728766  0.80418768  0.30829793  1
  O  O93  1  0.91237375  0.83508285  0.30621429  1
  O  O94  1  0.50107896  0.21339837  0.30368845  1
  O  O95  1  0.00022006  0.19874478  0.30737897  1
  O  O96  1  0.09126062  0.18057442  0.81227938  1
  O  O97  1  0.58528501  0.16325472  0.80511646  1
  O  O98  1  0.49656251  0.82665600  0.80703030  1
  O  O99  1  0.99950607  0.82600339  0.81009004  1
  O  O100  1  0.40622047  0.00732602  0.80384709  1
  O  O101  1  0.91320391  0.00705627  0.80738385  1
  O  O102  1  0.39939687  0.97429364  0.69623090  1
  O  O103  1  0.90173313  0.95844424  0.69344044  1
  O  O104  1  0.07871437  0.19721003  0.69493236  1
  O  O105  1  0.58380222  0.20582450  0.68906003  1
  O  O106  1  0.02245774  0.84672276  0.69444492  1
  O  O107  1  0.51386804  0.84420067  0.69118434  1
  O  O108  1  0.40400433  0.83751818  0.19038470  1
  O  O109  1  0.90125977  0.82560383  0.18788428  1
  O  O110  1  0.01039877  0.19646913  0.19834739  1
  O  O111  1  0.51828180  0.20687548  0.19569087  1
  O  O112  1  0.08333778  0.97009269  0.19430377  1
  O  O113  1  0.58906474  0.97552709  0.19934733  1
  O  O114  1  0.44160872  0.33065805  0.65173287  1
  O  O115  1  0.93687399  0.32164226  0.63841228  1
  O  O116  1  0.22324233  0.11903300  0.64037742  1
  O  O117  1  0.72716132  0.12426304  0.63936594  1
  O  O118  1  0.32770161  0.55329379  0.64123163  1
  O  O119  1  0.83398511  0.54376751  0.63738936  1
  O  O120  1  0.44481161  0.54495578  0.13688937  1
  O  O121  1  0.94823822  0.55420795  0.14224284  1
  O  O122  1  0.33505950  0.10745977  0.14370719  1
  O  O123  1  0.83239774  0.11685833  0.13518892  1
  O  O124  1  0.22817032  0.33721519  0.14593137  1
  O  O125  1  0.73275954  0.35116467  0.14959453  1
  O  O126  1  0.23850818  0.31432343  0.02532610  1
  O  O127  1  0.74187624  0.30795968  0.03099650  1
  O  O128  1  0.42350581  0.54640355  0.02946706  1
  O  O129  1  0.92178237  0.53500780  0.03460625  1
  O  O130  1  0.34752897  0.15017521  0.03467296  1
  O  O131  1  0.84301547  0.15250759  0.02707851  1
  O  O132  1  0.23092038  0.14990228  0.53095019  1
  O  O133  1  0.73057854  0.15160572  0.53039236  1
  O  O134  1  0.34031436  0.52556156  0.53325029  1
  O  O135  1  0.84494772  0.54225421  0.52881078  1
  O  O136  1  0.41434243  0.31765844  0.53301898  1
  O  O137  1  0.92903270  0.31492705  0.52903719  1
  O  O138  1  0.28994516  0.70828535  0.97979635  1
  O  O139  1  0.78608784  0.69269392  0.97099389  1
  O  O140  1  0.07554043  0.42039831  0.96954842  1
  O  O141  1  0.56718985  0.41509847  0.97256316  1
  O  O142  1  0.15568075  0.87642624  0.96778195  1
  O  O143  1  0.65760984  0.87651038  0.96775168  1
  O  O144  1  0.27254691  0.87093845  0.47043954  1
  O  O145  1  0.78974409  0.84577126  0.47111849  1
  O  O146  1  0.13325481  0.42402421  0.46834735  1
  O  O147  1  0.65936441  0.44201325  0.48198451  1
  O  O148  1  0.08376323  0.74342084  0.46846838  1
  O  O149  1  0.56450031  0.67600321  0.47017553  1
  O  O150  1  0.06687822  0.62532071  0.35714297  1
  O  O151  1  0.55796807  0.62844342  0.36282873  1
  O  O152  1  0.25954524  0.88251656  0.36225947  1
  O  O153  1  0.74854793  0.86847376  0.36091967  1
  O  O154  1  0.18526958  0.49866523  0.35611429  1
  O  O155  1  0.68307623  0.50502086  0.36346680  1
  O  O156  1  0.05779806  0.47890709  0.85713858  1
  O  O157  1  0.56503886  0.50005924  0.85747165  1
  O  O158  1  0.17499778  0.88266472  0.85961595  1
  O  O159  1  0.67972863  0.89260816  0.85978431  1
  O  O160  1  0.24254756  0.63523609  0.86339130  1
  O  O161  1  0.76380532  0.64035444  0.86338645  1
  O  O162  1  0.99210148  0.81378106  0.40244369  1
  O  O163  1  0.50286952  0.79672088  0.41021860  1
  O  O164  1  0.39988991  0.00776617  0.41270987  1
  O  O165  1  0.91808619  0.02273663  0.40131654  1
  O  O166  1  0.09104458  0.17276595  0.40044187  1
  O  O167  1  0.59964861  0.17186882  0.41411582  1
  O  O168  1  0.99435847  0.15751305  0.90709545  1
  O  O169  1  0.49380128  0.16797152  0.89855276  1
  O  O170  1  0.09333909  0.00220512  0.90847053  1
  O  O171  1  0.59462346  0.00251108  0.90822904  1
  O  O172  1  0.41147044  0.82262982  0.89981776  1
  O  O173  1  0.90651026  0.80663522  0.90664073  1
  O  O174  1  0.48362083  0.13858776  0.58798223  1
  O  O175  1  0.98244471  0.15485444  0.58227943  1
  O  O176  1  0.09615822  0.03344153  0.58284853  1
  O  O177  1  0.59912646  0.04509264  0.58418445  1
  O  O178  1  0.42167175  0.79935185  0.57999614  1
  O  O179  1  0.92314084  0.80752439  0.58257130  1
  O  O180  1  0.47611269  0.80471062  0.08455669  1
  O  O181  1  0.97588717  0.80236087  0.08376176  1
  O  O182  1  0.42127454  0.02703525  0.08537485  1
  O  O183  1  0.91711604  0.02973304  0.07791784  1
  O  O184  1  0.08434772  0.14072125  0.09044226  1
  O  O185  1  0.58744618  0.14544688  0.09314630  1
  O  O186  1  0.34128098  0.13368101  0.74901196  1
  O  O187  1  0.84059403  0.14825910  0.75086096  1
  O  O188  1  0.23379374  0.31131006  0.75277896  1
  O  O189  1  0.73375473  0.31756021  0.75145186  1
  O  O190  1  0.42221288  0.53350121  0.75273001  1
  O  O191  1  0.92711548  0.53519397  0.75223582  1
  O  O192  1  0.33050800  0.51760763  0.24789351  1
  O  O193  1  0.84654866  0.53367470  0.25626251  1
  O  O194  1  0.43379681  0.31903170  0.24102481  1
  O  O195  1  0.93500100  0.32285930  0.24977276  1
  O  O196  1  0.23952048  0.14226035  0.25536914  1
  O  O197  1  0.73091505  0.12856752  0.24436661  1
  O  O198  1  0.31684107  0.48670568  0.92034860  1
  O  O199  1  0.82440163  0.50146669  0.92122514  1
  O  O200  1  0.41748222  0.35007163  0.92521187  1
  O  O201  1  0.91620168  0.34423847  0.92749441  1
  O  O202  1  0.24587610  0.14524800  0.91452269  1
  O  O203  1  0.74772377  0.14832936  0.91830744  1
  O  O204  1  0.31241625  0.13791634  0.41991243  1
  O  O205  1  0.81921945  0.15324608  0.42410162  1
  O  O206  1  0.25597514  0.34934747  0.42768337  1
  O  O207  1  0.76527508  0.37539571  0.42360290  1
  O  O208  1  0.42790642  0.49012247  0.42251279  1
  O  O209  1  0.93047372  0.49127108  0.42564022  1
  O  O210  1  0.17133340  0.48995538  0.08061438  1
  O  O211  1  0.67753878  0.49719437  0.08074972  1
  O  O212  1  0.06693449  0.67785679  0.07526013  1
  O  O213  1  0.56727941  0.68289274  0.07370220  1
  O  O214  1  0.26679986  0.86548863  0.08100773  1
  O  O215  1  0.76399533  0.86946192  0.07354617  1
  O  O216  1  0.17066354  0.87105489  0.58075530  1
  O  O217  1  0.66714302  0.87225437  0.58076791  1
  O  O218  1  0.26735757  0.66687648  0.57508343  1
  O  O219  1  0.76734934  0.66090320  0.58084809  1
  O  O220  1  0.06456489  0.46586056  0.58236865  1
  O  O221  1  0.57764301  0.47886878  0.58423707  1
  O  O222  1  0.14326500  0.80271052  0.25668167  1
  O  O223  1  0.64527475  0.81851077  0.25124157  1
  O  O224  1  0.25376859  0.70245846  0.25296687  1
  O  O225  1  0.75794501  0.69563752  0.25961213  1
  O  O226  1  0.08799222  0.45824644  0.25086575  1
  O  O227  1  0.58940752  0.47268068  0.24781687  1
  O  O228  1  0.14920744  0.48257082  0.75672687  1
  O  O229  1  0.64420459  0.47730170  0.75654498  1
  O  O230  1  0.09715521  0.71108309  0.75913132  1
  O  O231  1  0.59213800  0.71310440  0.75624060  1
  O  O232  1  0.27118789  0.82675347  0.75366587  1
  O  O233  1  0.75835490  0.80803946  0.75979063  1
