# generated using pymatgen
data_Rb6Cl4O
_symmetry_space_group_name_H-M   'P 1'
_cell_length_a   9.01754057
_cell_length_b   9.01754057
_cell_length_c   9.01754060
_cell_angle_alpha   89.04163095
_cell_angle_beta   89.04163095
_cell_angle_gamma   89.04163080
_symmetry_Int_Tables_number   1
_chemical_formula_structural   Rb6Cl4O
_chemical_formula_sum   'Rb12 Cl8 O2'
_cell_volume   732.96633496
_cell_formula_units_Z   2
loop_
 _symmetry_equiv_pos_site_id
 _symmetry_equiv_pos_as_xyz
  1  'x, y, z'
loop_
 _atom_site_type_symbol
 _atom_site_label
 _atom_site_symmetry_multiplicity
 _atom_site_fract_x
 _atom_site_fract_y
 _atom_site_fract_z
 _atom_site_occupancy
  Rb  Rb0  1  0.05761604  0.92948794  0.71497912  1
  Rb  Rb1  1  0.92948794  0.71497912  0.05761604  1
  Rb  Rb2  1  0.71497912  0.05761604  0.92948794  1
  Rb  Rb3  1  0.57051206  0.44238396  0.78502088  1
  Rb  Rb4  1  0.78502088  0.57051206  0.44238396  1
  Rb  Rb5  1  0.44238396  0.78502088  0.57051206  1
  Rb  Rb6  1  0.07051206  0.28502088  0.94238396  1
  Rb  Rb7  1  0.94238396  0.07051206  0.28502088  1
  Rb  Rb8  1  0.28502088  0.94238396  0.07051206  1
  Rb  Rb9  1  0.42948794  0.55761604  0.21497912  1
  Rb  Rb10  1  0.21497912  0.42948794  0.55761604  1
  Rb  Rb11  1  0.55761604  0.21497912  0.42948794  1
  Cl  Cl12  1  0.75000000  0.75000000  0.75000000  1
  Cl  Cl13  1  0.25000000  0.25000000  0.25000000  1
  Cl  Cl14  1  0.75000000  0.37531492  0.12468508  1
  Cl  Cl15  1  0.12468508  0.75000000  0.37531492  1
  Cl  Cl16  1  0.37531492  0.12468508  0.75000000  1
  Cl  Cl17  1  0.25000000  0.62468508  0.87531492  1
  Cl  Cl18  1  0.87531492  0.25000000  0.62468508  1
  Cl  Cl19  1  0.62468508  0.87531492  0.25000000  1
  O  O20  1  0.50000000  0.50000000  0.50000000  1
  O  O21  1  -0.00000000  0.00000000  -0.00000000  1
