# generated using pymatgen
data_Na6ZnSi4Sn3(SO12)2
_symmetry_space_group_name_H-M   'P 1'
_cell_length_a   9.09992248
_cell_length_b   9.09356533
_cell_length_c   22.45163784
_cell_angle_alpha   90.47602505
_cell_angle_beta   89.98167021
_cell_angle_gamma   120.09404001
_symmetry_Int_Tables_number   1
_chemical_formula_structural   Na6ZnSi4Sn3(SO12)2
_chemical_formula_sum   'Na18 Zn3 Si12 Sn9 S6 O72'
_cell_volume   1607.38141285
_cell_formula_units_Z   3
loop_
 _symmetry_equiv_pos_site_id
 _symmetry_equiv_pos_as_xyz
  1  'x, y, z'
loop_
 _atom_site_type_symbol
 _atom_site_label
 _atom_site_symmetry_multiplicity
 _atom_site_fract_x
 _atom_site_fract_y
 _atom_site_fract_z
 _atom_site_occupancy
  Na  Na0  1  0.98722750  0.35281205  0.75380737  1
  Na  Na1  1  0.39496136  0.02254343  0.75110859  1
  Na  Na2  1  0.31907165  0.33477488  0.58524212  1
  Na  Na3  1  0.02802005  0.70233088  0.57449412  1
  Na  Na4  1  0.65531444  0.96221676  0.58960064  1
  Na  Na5  1  0.31250854  0.97507610  0.08391546  1
  Na  Na6  1  0.66069550  0.68379665  0.08663373  1
  Na  Na7  1  0.02346995  0.33536118  0.08405688  1
  Na  Na8  1  0.33032961  0.29525590  0.92404728  1
  Na  Na9  1  0.96696782  0.29135049  0.40941835  1
  Na  Na10  1  0.32209056  0.03315562  0.41240359  1
  Na  Na11  1  0.71217357  0.67968258  0.41288399  1
  Na  Na12  1  0.00002895  0.99324438  0.48959237  1
  Na  Na13  1  0.99849609  0.99724455  0.00044309  1
  Na  Na14  1  0.66551678  0.32004849  0.83204657  1
  Na  Na15  1  0.66692635  0.33417747  0.32392771  1
  Na  Na16  1  0.33327196  0.66700871  0.16501635  1
  Na  Na17  1  0.36847329  0.67355403  0.66958646  1
  Zn  Zn18  1  0.00109243  0.99722321  0.35624877  1
  Zn  Zn19  1  0.62640638  0.31853929  0.68504449  1
  Zn  Zn20  1  0.66307001  0.33043124  0.16601468  1
  Si  Si21  1  0.29628555  0.30051042  0.75105932  1
  Si  Si22  1  0.70441040  0.99849362  0.74989606  1
  Si  Si23  1  0.36855859  0.03170079  0.58489361  1
  Si  Si24  1  0.66783566  0.62749775  0.58452691  1
  Si  Si25  1  0.95413166  0.62120212  0.08573973  1
  Si  Si26  1  0.66485206  0.03436721  0.08659301  1
  Si  Si27  1  0.37588016  0.33782029  0.08286710  1
  Si  Si28  1  0.03507400  0.37729076  0.91533311  1
  Si  Si29  1  0.33180077  0.96353072  0.91553409  1
  Si  Si30  1  0.62938442  0.96591227  0.41674039  1
  Si  Si31  1  0.33301652  0.37688357  0.41633271  1
  Si  Si32  1  0.03793889  0.65958294  0.41777610  1
  Sn  Sn33  1  0.00527979  0.01341420  0.85414141  1
  Sn  Sn34  1  0.99598313  0.99907708  0.65045570  1
  Sn  Sn35  1  0.00320977  0.00078478  0.14973022  1
  Sn  Sn36  1  0.67197139  0.31915312  0.98385567  1
  Sn  Sn37  1  0.65624675  0.33710301  0.47988322  1
  Sn  Sn38  1  0.32357675  0.66905219  0.01843594  1
  Sn  Sn39  1  0.34512900  0.67484713  0.51444120  1
  Sn  Sn40  1  0.33319693  0.66942418  0.31756405  1
  Sn  Sn41  1  0.33766991  0.67037428  0.81544991  1
  S  S42  1  0.29433721  0.99424301  0.25266300  1
  S  S43  1  0.69978307  0.70569824  0.25237428  1
  S  S44  1  0.00663028  0.30116192  0.25252833  1
  S  S45  1  -0.00075902  0.70566332  0.75048908  1
  S  S46  1  0.96084172  0.33413604  0.58456483  1
  S  S47  1  0.63167789  0.66773535  0.91690728  1
  O  O48  1  0.20376957  0.00260849  0.30572342  1
  O  O49  1  0.79834554  0.79677403  0.30574863  1
  O  O50  1  -0.00035239  0.20340626  0.30540056  1
  O  O51  1  0.20747626  0.17468105  0.80800079  1
  O  O52  1  0.97850184  0.79233752  0.80290010  1
  O  O53  1  0.82810825  0.01793461  0.80550247  1
  O  O54  1  0.77897646  0.96278403  0.68691960  1
  O  O55  1  0.17394036  0.21710130  0.68999794  1
  O  O56  1  0.02975779  0.81055196  0.69444250  1
  O  O57  1  0.78239114  0.80774513  0.19611761  1
  O  O58  1  0.02641245  0.21831485  0.19561913  1
  O  O59  1  0.19192836  0.97245920  0.19578599  1
  O  O60  1  0.88434743  0.35584965  0.63836119  1
  O  O61  1  0.48964215  0.09908781  0.64269553  1
  O  O62  1  0.63360722  0.50278565  0.63874937  1
  O  O63  1  0.88663181  0.49992671  0.14253785  1
  O  O64  1  0.60443708  0.10269911  0.14200311  1
  O  O65  1  0.49848462  0.38955934  0.13968106  1
  O  O66  1  0.44938436  0.29139747  0.02202865  1
  O  O67  1  0.82596275  0.54426883  0.02735423  1
  O  O68  1  0.72515401  0.15966419  0.02794079  1
  O  O69  1  0.44728275  0.15380768  0.52511560  1
  O  O70  1  0.71445406  0.55849743  0.52238448  1
  O  O71  1  0.85731279  0.30916603  0.52947121  1
  O  O72  1  0.55769930  0.69644985  0.97145970  1
  O  O73  1  0.16402875  0.46017764  0.97247213  1
  O  O74  1  0.31213545  0.85714426  0.97590622  1
  O  O75  1  0.56123042  0.85289945  0.47835602  1
  O  O76  1  0.29380338  0.45151193  0.47820448  1
  O  O77  1  0.15322191  0.69670835  0.47877526  1
  O  O78  1  0.12023091  0.61119741  0.36134508  1
  O  O79  1  0.49097148  0.88352763  0.36200551  1
  O  O80  1  0.38443870  0.51219815  0.36184229  1
  O  O81  1  0.12493776  0.48505168  0.85428397  1
  O  O82  1  0.36211229  0.88028902  0.85490915  1
  O  O83  1  0.52183083  0.63984808  0.86333102  1
  O  O84  1  0.01822392  0.82654704  0.41222853  1
  O  O85  1  0.81512715  0.98629518  0.40892582  1
  O  O86  1  0.16858168  0.18870805  0.41071820  1
  O  O87  1  0.02335289  0.18871298  0.91464912  1
  O  O88  1  0.15593805  0.97669609  0.91208322  1
  O  O89  1  0.80320553  0.81896876  0.91045323  1
  O  O90  1  0.97916191  0.17725904  0.58504789  1
  O  O91  1  0.17919262  0.01890391  0.59062276  1
  O  O92  1  0.83754745  0.82290735  0.58794228  1
  O  O93  1  0.97866561  0.81540735  0.09222496  1
  O  O94  1  0.83509768  0.01386880  0.09460745  1
  O  O95  1  0.18396942  0.16461208  0.09066570  1
  O  O96  1  0.69925090  0.17447350  0.74832359  1
  O  O97  1  0.47919863  0.31407082  0.75054961  1
  O  O98  1  0.85749274  0.53496473  0.74468929  1
  O  O99  1  0.68092217  0.53663886  0.24825868  1
  O  O100  1  0.85552135  0.31831740  0.24865201  1
  O  O101  1  0.46258691  0.14544438  0.24909739  1
  O  O102  1  0.64048768  0.51022275  0.92027272  1
  O  O103  1  0.85076628  0.36564686  0.91963421  1
  O  O104  1  0.49445413  0.16039576  0.91925966  1
  O  O105  1  0.64518181  0.15345282  0.42405712  1
  O  O106  1  0.50702733  0.36331693  0.41892073  1
  O  O107  1  0.85188818  0.48480316  0.42265719  1
  O  O108  1  0.34822805  0.50246335  0.07405754  1
  O  O109  1  0.14910638  0.65322340  0.07819252  1
  O  O110  1  0.50431933  0.84066456  0.07490112  1
  O  O111  1  0.33564365  0.83553369  0.57777198  1
  O  O112  1  0.49390527  0.64440389  0.57908708  1
  O  O113  1  0.13526212  0.48652590  0.57941516  1
  O  O114  1  0.30370789  0.83111638  0.25197277  1
  O  O115  1  0.52658882  0.69561373  0.25223364  1
  O  O116  1  0.16964260  0.47428047  0.25195313  1
  O  O117  1  0.29479104  0.48204016  0.75481204  1
  O  O118  1  0.16270984  0.70056365  0.75380411  1
  O  O119  1  0.50923306  0.83270227  0.75424203  1
