# generated using pymatgen
data_TaIn3P2(SO6)4
_symmetry_space_group_name_H-M   'P 1'
_cell_length_a   8.87482250
_cell_length_b   8.87993247
_cell_length_c   22.99520492
_cell_angle_alpha   89.85214070
_cell_angle_beta   90.06901182
_cell_angle_gamma   119.77815932
_symmetry_Int_Tables_number   1
_chemical_formula_structural   TaIn3P2(SO6)4
_chemical_formula_sum   'Ta3 In9 P6 S12 O72'
_cell_volume   1572.90430332
_cell_formula_units_Z   3
loop_
 _symmetry_equiv_pos_site_id
 _symmetry_equiv_pos_as_xyz
  1  'x, y, z'
loop_
 _atom_site_type_symbol
 _atom_site_label
 _atom_site_symmetry_multiplicity
 _atom_site_fract_x
 _atom_site_fract_y
 _atom_site_fract_z
 _atom_site_occupancy
  Ta  Ta0  1  0.66644165  0.33213199  0.97270805  1
  Ta  Ta1  1  0.32271130  0.65957454  0.31382406  1
  Ta  Ta2  1  0.33926217  0.67151185  0.81550754  1
  In  In3  1  0.99699007  0.99844189  0.35350932  1
  In  In4  1  0.99492394  0.00189393  0.85488287  1
  In  In5  1  0.99282860  0.99643134  0.65046332  1
  In  In6  1  0.00152061  0.00724960  0.14530666  1
  In  In7  1  0.66723467  0.32920040  0.68639830  1
  In  In8  1  0.67356315  0.33396091  0.18775891  1
  In  In9  1  0.67321886  0.33701486  0.47670411  1
  In  In10  1  0.33208619  0.66660559  0.01828574  1
  In  In11  1  0.33004314  0.66989238  0.52188453  1
  P  P12  1  0.00142318  0.28973851  0.25081034  1
  P  P13  1  0.70541962  0.99827172  0.75087611  1
  P  P14  1  0.61999494  0.66428447  0.91824621  1
  P  P15  1  0.04743220  0.38266388  0.91777102  1
  P  P16  1  0.33309307  0.95547230  0.91731119  1
  P  P17  1  0.04267838  0.66800585  0.41728458  1
  S  S18  1  0.29303232  0.99594508  0.25038485  1
  S  S19  1  0.70068863  0.70625800  0.25056199  1
  S  S20  1  0.29438481  0.29958696  0.75125119  1
  S  S21  1  0.00571030  0.70680361  0.75131067  1
  S  S22  1  0.96096650  0.33156218  0.58308426  1
  S  S23  1  0.37129952  0.04369458  0.58283467  1
  S  S24  1  0.66664237  0.62516800  0.58302979  1
  S  S25  1  0.95276867  0.62305514  0.08171448  1
  S  S26  1  0.66520427  0.04604371  0.08151310  1
  S  S27  1  0.38308028  0.33233023  0.08238134  1
  S  S28  1  0.61702682  0.95209527  0.41611597  1
  S  S29  1  0.33498891  0.37964873  0.41665112  1
  O  O30  1  0.21514933  0.02630622  0.30179699  1
  O  O31  1  0.81230700  0.78130798  0.30151114  1
  O  O32  1  0.97031750  0.17766693  0.30421927  1
  O  O33  1  0.21785835  0.18757476  0.80197730  1
  O  O34  1  0.97601672  0.78671965  0.80223695  1
  O  O35  1  0.81974237  0.03026531  0.80361650  1
  O  O36  1  0.77223138  0.95068327  0.69625705  1
  O  O37  1  0.18612557  0.23062900  0.69847743  1
  O  O38  1  0.04868767  0.81635181  0.69849588  1
  O  O39  1  0.76950524  0.81566552  0.19795209  1
  O  O40  1  0.04784678  0.22133914  0.19620136  1
  O  O41  1  0.18220802  0.95161646  0.19814018  1
  O  O42  1  0.88203042  0.36197306  0.63515865  1
  O  O43  1  0.47930024  0.12372220  0.63493659  1
  O  O44  1  0.63903634  0.51792579  0.63573214  1
  O  O45  1  0.87886240  0.52049975  0.13533142  1
  O  O46  1  0.63752141  0.12024966  0.13510403  1
  O  O47  1  0.48435947  0.35678722  0.13611715  1
  O  O48  1  0.47918216  0.31589366  0.03088727  1
  O  O49  1  0.83936091  0.52820035  0.03041085  1
  O  O50  1  0.68435851  0.16097709  0.03033055  1
  O  O51  1  0.45128804  0.15017373  0.52949010  1
  O  O52  1  0.69198579  0.54380005  0.53012018  1
  O  O53  1  0.85301375  0.30317926  0.53023336  1
  O  O54  1  0.54620746  0.69707967  0.97281264  1
  O  O55  1  0.14983743  0.45498252  0.97323020  1
  O  O56  1  0.30121324  0.85113917  0.97230964  1
  O  O57  1  0.54445401  0.84797215  0.46881317  1
  O  O58  1  0.30910375  0.45783405  0.46875556  1
  O  O59  1  0.15439158  0.69882492  0.47056337  1
  O  O60  1  0.14721200  0.64774234  0.36266452  1
  O  O61  1  0.50514195  0.85618497  0.36385301  1
  O  O62  1  0.35589233  0.49548766  0.36406068  1
  O  O63  1  0.13551727  0.50546788  0.86507877  1
  O  O64  1  0.36895114  0.86493742  0.86483480  1
  O  O65  1  0.49574192  0.62994678  0.86527539  1
  O  O66  1  0.02834151  0.82794427  0.40459921  1
  O  O67  1  0.78947719  0.97181475  0.40794554  1
  O  O68  1  0.18110286  0.21089590  0.40717769  1
  O  O69  1  0.01335586  0.20161239  0.90692452  1
  O  O70  1  0.18977767  0.99202722  0.90277324  1
  O  O71  1  0.80185536  0.80546006  0.90596673  1
  O  O72  1  0.97952170  0.17669085  0.59001235  1
  O  O73  1  0.19768991  0.02540692  0.59039940  1
  O  O74  1  0.82349197  0.79681254  0.58906472  1
  O  O75  1  0.95931958  0.79295315  0.08594944  1
  O  O76  1  0.82796668  0.03862469  0.08428095  1
  O  O77  1  0.21468525  0.16851208  0.08475593  1
  O  O78  1  0.67098730  0.14869061  0.74250887  1
  O  O79  1  0.47271570  0.33337796  0.74304829  1
  O  O80  1  0.85678033  0.53230531  0.74284301  1
  O  O81  1  0.66767809  0.52828117  0.24262661  1
  O  O82  1  0.85137668  0.32462768  0.24281438  1
  O  O83  1  0.46789792  0.14372914  0.24228927  1
  O  O84  1  0.62600468  0.48932858  0.92795240  1
  O  O85  1  0.86305996  0.37183432  0.92798936  1
  O  O86  1  0.50707311  0.13685266  0.92755423  1
  O  O87  1  0.61960286  0.11851213  0.41809190  1
  O  O88  1  0.49606020  0.37234686  0.41777062  1
  O  O89  1  0.87032061  0.49849404  0.41838537  1
  O  O90  1  0.36260306  0.48508399  0.07571147  1
  O  O91  1  0.12546794  0.64247916  0.07491311  1
  O  O92  1  0.51256431  0.87469475  0.07433612  1
  O  O93  1  0.35704523  0.87077853  0.57789691  1
  O  O94  1  0.51029765  0.64369919  0.57681803  1
  O  O95  1  0.13447847  0.48719024  0.57714184  1
  O  O96  1  0.31578764  0.83942775  0.26229003  1
  O  O97  1  0.52637291  0.69092203  0.26329149  1
  O  O98  1  0.16766565  0.47485687  0.26479358  1
  O  O99  1  0.30802278  0.47391807  0.76329400  1
  O  O100  1  0.16312790  0.68706659  0.76286094  1
  O  O101  1  0.52180497  0.83110270  0.76557596  1
