# generated using pymatgen
data_SBr2O
_symmetry_space_group_name_H-M   'P 1'
_cell_length_a   4.11735153
_cell_length_b   11.79866766
_cell_length_c   18.40368686
_cell_angle_alpha   90.00000000
_cell_angle_beta   90.00000000
_cell_angle_gamma   90.00000000
_symmetry_Int_Tables_number   1
_chemical_formula_structural   SBr2O
_chemical_formula_sum   'S8 Br16 O8'
_cell_volume   894.03753203
_cell_formula_units_Z   8
loop_
 _symmetry_equiv_pos_site_id
 _symmetry_equiv_pos_as_xyz
  1  'x, y, z'
loop_
 _atom_site_type_symbol
 _atom_site_label
 _atom_site_symmetry_multiplicity
 _atom_site_fract_x
 _atom_site_fract_y
 _atom_site_fract_z
 _atom_site_occupancy
  S  S0  1  0.62767658  0.23765715  0.18399964  1
  S  S1  1  0.12207606  0.48258824  0.51861409  1
  S  S2  1  0.12207606  0.01741176  0.01861409  1
  S  S3  1  0.87792394  0.98258824  0.51861409  1
  S  S4  1  0.37232342  0.76234285  0.68399964  1
  S  S5  1  0.37232342  0.73765715  0.18399964  1
  S  S6  1  0.62767658  0.26234285  0.68399964  1
  S  S7  1  0.87792394  0.51741176  0.01861409  1
  Br  Br8  1  0.86752799  0.41114749  0.20407616  1
  Br  Br9  1  0.13247201  0.58885251  0.70407616  1
  Br  Br10  1  0.13247201  0.91114749  0.20407616  1
  Br  Br11  1  0.86752799  0.08885251  0.70407616  1
  Br  Br12  1  0.50215373  0.19326679  0.30022884  1
  Br  Br13  1  0.49784627  0.80673321  0.80022884  1
  Br  Br14  1  0.49784627  0.69326679  0.30022884  1
  Br  Br15  1  0.50215373  0.30673321  0.80022884  1
  Br  Br16  1  0.01207116  0.94332453  0.40196247  1
  Br  Br17  1  0.98792884  0.05667547  0.90196247  1
  Br  Br18  1  0.98792884  0.44332453  0.40196247  1
  Br  Br19  1  0.01207116  0.55667547  0.90196247  1
  Br  Br20  1  0.63571488  0.15627042  0.50129935  1
  Br  Br21  1  0.36428512  0.84372958  0.00129935  1
  Br  Br22  1  0.36428512  0.65627042  0.50129935  1
  Br  Br23  1  0.63571488  0.34372958  0.00129935  1
  O  O24  1  0.88034668  0.33918823  0.66099628  1
  O  O25  1  0.11965332  0.66081177  0.16099628  1
  O  O26  1  0.11965332  0.83918823  0.66099628  1
  O  O27  1  0.88034668  0.16081177  0.16099628  1
  O  O28  1  0.37468927  0.09570042  0.03962217  1
  O  O29  1  0.37468927  0.40429958  0.53962217  1
  O  O30  1  0.62531073  0.59570042  0.03962217  1
  O  O31  1  0.62531073  0.90429958  0.53962217  1
