# generated using pymatgen
data_HfZrSi(SO6)2
_symmetry_space_group_name_H-M   'P 1'
_cell_length_a   9.01541417
_cell_length_b   9.01194576
_cell_length_c   23.15957543
_cell_angle_alpha   90.04047368
_cell_angle_beta   89.98992563
_cell_angle_gamma   119.98977411
_symmetry_Int_Tables_number   1
_chemical_formula_structural   HfZrSi(SO6)2
_chemical_formula_sum   'Hf6 Zr6 Si6 S12 O72'
_cell_volume   1629.70914127
_cell_formula_units_Z   6
loop_
 _symmetry_equiv_pos_site_id
 _symmetry_equiv_pos_as_xyz
  1  'x, y, z'
loop_
 _atom_site_type_symbol
 _atom_site_label
 _atom_site_symmetry_multiplicity
 _atom_site_fract_x
 _atom_site_fract_y
 _atom_site_fract_z
 _atom_site_occupancy
  Hf  Hf0  1  0.01875873  0.00820545  0.85585453  1
  Hf  Hf1  1  0.66541462  0.33670375  0.18867136  1
  Hf  Hf2  1  0.64772573  0.32387252  0.97754656  1
  Hf  Hf3  1  0.32967435  0.66802741  0.02226504  1
  Hf  Hf4  1  0.33798937  0.66786158  0.52232411  1
  Hf  Hf5  1  0.33547070  0.67113591  0.81132846  1
  Zr  Zr6  1  0.98949253  0.00847211  0.35574887  1
  Zr  Zr7  1  0.00748193  0.01873430  0.64446613  1
  Zr  Zr8  1  0.01177826  0.01894875  0.14401164  1
  Zr  Zr9  1  0.67040586  0.33655809  0.68917814  1
  Zr  Zr10  1  0.67613236  0.32400572  0.47760853  1
  Zr  Zr11  1  0.33533959  0.67062189  0.31083935  1
  Si  Si12  1  0.99821898  0.29474129  0.24975481  1
  Si  Si13  1  0.29341298  0.29510669  0.75082489  1
  Si  Si14  1  0.96118227  0.33894825  0.58392739  1
  Si  Si15  1  0.38028954  0.33910841  0.08378929  1
  Si  Si16  1  0.33345861  0.95305960  0.91673786  1
  Si  Si17  1  0.61891846  0.95217830  0.41720985  1
  S  S18  1  0.29031805  0.00154643  0.25003695  1
  S  S19  1  0.71139585  0.71004715  0.24948611  1
  S  S20  1  0.00128804  0.71239667  0.75042574  1
  S  S21  1  0.71087851  0.99886390  0.75092910  1
  S  S22  1  0.37682043  0.04245468  0.58298255  1
  S  S23  1  0.66722378  0.62367353  0.58281295  1
  S  S24  1  0.95424744  0.62137171  0.08279941  1
  S  S25  1  0.66553934  0.04472117  0.08293883  1
  S  S26  1  0.62348028  0.66839253  0.91668210  1
  S  S27  1  0.04304598  0.37790593  0.91668571  1
  S  S28  1  0.33505658  0.37826588  0.41709708  1
  S  S29  1  0.04537966  0.66867248  0.41700388  1
  O  O30  1  0.21302835  0.02909104  0.30175261  1
  O  O31  1  0.81861789  0.78570114  0.30156065  1
  O  O32  1  0.96994511  0.17004574  0.30535774  1
  O  O33  1  0.19629664  0.16809024  0.80569846  1
  O  O34  1  0.96959952  0.79018073  0.80213613  1
  O  O35  1  0.81751469  0.02650867  0.80229256  1
  O  O36  1  0.78603848  0.96714910  0.69861124  1
  O  O37  1  0.16998558  0.19978730  0.69470076  1
  O  O38  1  0.02908186  0.81640107  0.69842326  1
  O  O39  1  0.78872302  0.81604427  0.19792426  1
  O  O40  1  0.02914006  0.19905166  0.19443998  1
  O  O41  1  0.18150658  0.96882380  0.19817009  1
  O  O42  1  0.86466290  0.36346023  0.63963171  1
  O  O43  1  0.48448832  0.12058927  0.63484844  1
  O  O44  1  0.63507776  0.51460735  0.63506337  1
  O  O45  1  0.87646376  0.51242637  0.13514194  1
  O  O46  1  0.63702017  0.12368023  0.13490918  1
  O  O47  1  0.50034977  0.36238238  0.13962829  1
  O  O48  1  0.47084228  0.30545328  0.02773022  1
  O  O49  1  0.84867168  0.54053154  0.03111802  1
  O  O50  1  0.69769639  0.15438323  0.03145104  1
  O  O51  1  0.45326820  0.15194263  0.53163028  1
  O  O52  1  0.69270025  0.54339310  0.53124444  1
  O  O53  1  0.83673128  0.30417267  0.52790717  1
  O  O54  1  0.54153914  0.69464241  0.96846594  1
  O  O55  1  0.15393779  0.45614684  0.96844483  1
  O  O56  1  0.30493951  0.83267643  0.97301676  1
  O  O57  1  0.52768711  0.83262256  0.47329098  1
  O  O58  1  0.30298227  0.45734905  0.46873725  1
  O  O59  1  0.15353056  0.69408852  0.46869869  1
  O  O60  1  0.12175760  0.63551290  0.36498621  1
  O  O61  1  0.50099264  0.86356633  0.36039205  1
  O  O62  1  0.36139636  0.48521430  0.36508711  1
  O  O63  1  0.12506024  0.48629400  0.86492209  1
  O  O64  1  0.36188478  0.86133818  0.86038768  1
  O  O65  1  0.51273326  0.63553836  0.86486909  1
  O  O66  1  0.02826278  0.82043094  0.40841775  1
  O  O67  1  0.80796774  0.97259182  0.40844084  1
  O  O68  1  0.18302124  0.20627968  0.40912086  1
  O  O69  1  0.02270230  0.20536620  0.90793744  1
  O  O70  1  0.16462234  0.97318811  0.90726819  1
  O  O71  1  0.79266737  0.82007005  0.90742473  1
  O  O72  1  0.97320121  0.16496323  0.59175955  1
  O  O73  1  0.20442697  0.02026392  0.59121431  1
  O  O74  1  0.81815654  0.79313083  0.59232445  1
  O  O75  1  0.97351126  0.79136653  0.09215424  1
  O  O76  1  0.81553404  0.02199590  0.09100612  1
  O  O77  1  0.19316951  0.16574478  0.09173188  1
  O  O78  1  0.69026137  0.15043717  0.74219213  1
  O  O79  1  0.47831663  0.31027876  0.73903171  1
  O  O80  1  0.84788337  0.54004082  0.74315482  1
  O  O81  1  0.69208082  0.53722086  0.24169831  1
  O  O82  1  0.82956909  0.31055297  0.23793254  1
  O  O83  1  0.46280549  0.15304686  0.24082250  1
  O  O84  1  0.64399472  0.51612914  0.92534449  1
  O  O85  1  0.87392843  0.36065534  0.92591356  1
  O  O86  1  0.50221065  0.14198364  0.92614468  1
  O  O87  1  0.63947328  0.14129909  0.42520086  1
  O  O88  1  0.48667572  0.36096516  0.42565672  1
  O  O89  1  0.87298115  0.51691754  0.42488739  1
  O  O90  1  0.35626985  0.50291274  0.07127346  1
  O  O91  1  0.12685187  0.63899712  0.07505686  1
  O  O92  1  0.51287388  0.87244804  0.07460585  1
  O  O93  1  0.35803636  0.87068183  0.57451271  1
  O  O94  1  0.51198267  0.64053761  0.57494324  1
  O  O95  1  0.14762592  0.50320567  0.57141601  1
  O  O96  1  0.30880217  0.84783827  0.25730988  1
  O  O97  1  0.53919034  0.68931233  0.25811144  1
  O  O98  1  0.16794671  0.47899592  0.26108687  1
  O  O99  1  0.31068896  0.48058876  0.76225060  1
  O  O100  1  0.15260385  0.69072240  0.75941299  1
  O  O101  1  0.53799276  0.84535102  0.75860226  1
