# generated using pymatgen
data_Tc2O7
_symmetry_space_group_name_H-M   'P 1'
_cell_length_a   5.51493846
_cell_length_b   7.27388761
_cell_length_c   13.75306598
_cell_angle_alpha   90.00000000
_cell_angle_beta   90.00000000
_cell_angle_gamma   90.00000000
_symmetry_Int_Tables_number   1
_chemical_formula_structural   Tc2O7
_chemical_formula_sum   'Tc8 O28'
_cell_volume   551.70482676
_cell_formula_units_Z   4
loop_
 _symmetry_equiv_pos_site_id
 _symmetry_equiv_pos_as_xyz
  1  'x, y, z'
loop_
 _atom_site_type_symbol
 _atom_site_label
 _atom_site_symmetry_multiplicity
 _atom_site_fract_x
 _atom_site_fract_y
 _atom_site_fract_z
 _atom_site_occupancy
  Tc  Tc0  1  0.79908946  0.48318245  0.60696313  1
  Tc  Tc1  1  0.29908946  0.51681755  0.89303687  1
  Tc  Tc2  1  0.70091054  0.98318245  0.39303687  1
  Tc  Tc3  1  0.20091054  0.01681755  0.10696313  1
  Tc  Tc4  1  0.20091054  0.51681755  0.39303687  1
  Tc  Tc5  1  0.70091054  0.48318245  0.10696313  1
  Tc  Tc6  1  0.29908946  0.01681755  0.60696313  1
  Tc  Tc7  1  0.79908946  0.98318245  0.89303687  1
  O  O8  1  0.56265194  0.62380459  0.58674422  1
  O  O9  1  0.06265194  0.37619541  0.91325578  1
  O  O10  1  0.93734806  0.12380459  0.41325578  1
  O  O11  1  0.43734806  0.87619541  0.08674422  1
  O  O12  1  0.43734806  0.37619541  0.41325578  1
  O  O13  1  0.93734806  0.62380459  0.08674422  1
  O  O14  1  0.06265194  0.87619541  0.58674422  1
  O  O15  1  0.56265194  0.12380459  0.91325578  1
  O  O16  1  0.00000000  -0.00000000  -0.00000000  1
  O  O17  1  0.50000000  -0.00000000  0.50000000  1
  O  O18  1  0.50000000  0.50000000  -0.00000000  1
  O  O19  1  0.00000000  0.50000000  0.50000000  1
  O  O20  1  0.69253280  0.76820186  0.88099781  1
  O  O21  1  0.19253280  0.23179814  0.61900219  1
  O  O22  1  0.80746720  0.26820186  0.11900319  1
  O  O23  1  0.30746720  0.73179814  0.38099781  1
  O  O24  1  0.30746720  0.23179814  0.11900319  1
  O  O25  1  0.80746720  0.76820186  0.38099781  1
  O  O26  1  0.19253280  0.73179814  0.88099781  1
  O  O27  1  0.69253280  0.26820186  0.61900219  1
  O  O28  1  0.93698297  0.04733113  0.79042509  1
  O  O29  1  0.43698297  0.95266887  0.70957491  1
  O  O30  1  0.56301703  0.54733113  0.20957491  1
  O  O31  1  0.06301703  0.45266887  0.29042509  1
  O  O32  1  0.06301703  0.95266887  0.20957491  1
  O  O33  1  0.56301703  0.04733113  0.29042509  1
  O  O34  1  0.43698297  0.45266887  0.79042509  1
  O  O35  1  0.93698297  0.54733113  0.70957491  1
