# generated using pymatgen
data_Na42Nb8Zn16Si21(S5O48)3
_symmetry_space_group_name_H-M   'P 1'
_cell_length_a   18.34687236
_cell_length_b   9.13891473
_cell_length_c   22.32302144
_cell_angle_alpha   89.98140095
_cell_angle_beta   90.12880910
_cell_angle_gamma   119.90708006
_symmetry_Int_Tables_number   1
_chemical_formula_structural   Na42Nb8Zn16Si21(S5O48)3
_chemical_formula_sum   'Na42 Nb8 Zn16 Si21 S15 O144'
_cell_volume   3244.47827976
_cell_formula_units_Z   1
loop_
 _symmetry_equiv_pos_site_id
 _symmetry_equiv_pos_as_xyz
  1  'x, y, z'
loop_
 _atom_site_type_symbol
 _atom_site_label
 _atom_site_symmetry_multiplicity
 _atom_site_fract_x
 _atom_site_fract_y
 _atom_site_fract_z
 _atom_site_occupancy
  Na  Na0  1  0.32040496  0.02736623  0.24567148  1
  Na  Na1  1  0.82449583  0.01722374  0.24738286  1
  Na  Na2  1  0.98841167  0.63461336  0.25193917  1
  Na  Na3  1  0.32393513  0.62698131  0.74303804  1
  Na  Na4  1  0.82200413  0.61770432  0.74171143  1
  Na  Na5  1  0.48726082  0.34568314  0.74829035  1
  Na  Na6  1  0.16017831  0.35555342  0.58024619  1
  Na  Na7  1  0.65958715  0.34936782  0.58789707  1
  Na  Na8  1  0.01644273  0.67244380  0.58310713  1
  Na  Na9  1  0.50960006  0.67945313  0.56835969  1
  Na  Na10  1  0.32067802  0.95495207  0.57896268  1
  Na  Na11  1  0.83056942  0.97272800  0.57023228  1
  Na  Na12  1  0.15916636  0.96852996  0.08623831  1
  Na  Na13  1  0.65748575  0.95646117  0.08500645  1
  Na  Na14  1  0.32837137  0.68190874  0.06903413  1
  Na  Na15  1  0.82661518  0.70201658  0.07405031  1
  Na  Na16  1  0.01226457  0.33904349  0.06881962  1
  Na  Na17  1  0.50560259  0.35007230  0.08168338  1
  Na  Na18  1  0.47409213  0.66673524  0.91413012  1
  Na  Na19  1  0.97321310  0.66002723  0.90597537  1
  Na  Na20  1  0.35437864  0.02826856  0.91686073  1
  Na  Na21  1  0.85787084  0.04191436  0.92316361  1
  Na  Na22  1  0.16837104  0.30749592  0.91715970  1
  Na  Na23  1  0.66905349  0.29042474  0.90699898  1
  Na  Na24  1  0.46963841  0.28682154  0.41036039  1
  Na  Na25  1  0.97472592  0.28198357  0.41736042  1
  Na  Na26  1  0.17165595  0.05313158  0.41767408  1
  Na  Na27  1  0.66794828  0.02531784  0.42101674  1
  Na  Na28  1  0.35627678  0.67046005  0.42848122  1
  Na  Na29  1  0.85408026  0.68025914  0.42057835  1
  Na  Na30  1  0.99451612  0.00714133  0.49217546  1
  Na  Na31  1  0.49266277  0.98144283  0.49434454  1
  Na  Na32  1  0.99556703  0.00496737  0.99251386  1
  Na  Na33  1  0.49057007  0.97701095  0.99062085  1
  Na  Na34  1  0.33155977  0.32840729  0.82654086  1
  Na  Na35  1  0.83895341  0.33783671  0.82560073  1
  Na  Na36  1  0.33795528  0.33555487  0.33013696  1
  Na  Na37  1  0.83183434  0.33461458  0.33078715  1
  Na  Na38  1  0.17132147  0.66708262  0.15973616  1
  Na  Na39  1  0.66112163  0.65998616  0.16418074  1
  Na  Na40  1  0.16265526  0.67549311  0.65958860  1
  Na  Na41  1  0.67127677  0.67554141  0.65740921  1
  Nb  Nb42  1  0.00207704  0.98761381  0.64160772  1
  Nb  Nb43  1  0.49515839  0.98633663  0.65613296  1
  Nb  Nb44  1  0.99587844  0.00563910  0.15572479  1
  Nb  Nb45  1  0.49605540  0.00466480  0.14583506  1
  Nb  Nb46  1  0.16802373  0.68026918  0.31063467  1
  Nb  Nb47  1  0.66451555  0.66687290  0.31342834  1
  Nb  Nb48  1  0.16497779  0.66049988  0.81156074  1
  Nb  Nb49  1  0.66981011  0.65762289  0.80963361  1
  Zn  Zn50  1  0.98943598  0.99119559  0.33963938  1
  Zn  Zn51  1  0.49215991  0.99243548  0.35532244  1
  Zn  Zn52  1  0.99139303  0.99199727  0.85332023  1
  Zn  Zn53  1  0.48958735  0.98373508  0.83843212  1
  Zn  Zn54  1  0.33007844  0.32382370  0.68073328  1
  Zn  Zn55  1  0.84402450  0.36760339  0.68309167  1
  Zn  Zn56  1  0.34385365  0.32149244  0.18400902  1
  Zn  Zn57  1  0.83680347  0.33384744  0.18561544  1
  Zn  Zn58  1  0.34279484  0.35825072  0.98949130  1
  Zn  Zn59  1  0.84547399  0.33677255  0.97619999  1
  Zn  Zn60  1  0.33218728  0.33786189  0.48360140  1
  Zn  Zn61  1  0.84224608  0.32895229  0.49316863  1
  Zn  Zn62  1  0.17488947  0.66591414  0.00607943  1
  Zn  Zn63  1  0.67266327  0.68673125  0.02098676  1
  Zn  Zn64  1  0.17310257  0.67381538  0.52549971  1
  Zn  Zn65  1  0.67464250  0.68355967  0.50777142  1
  Si  Si66  1  0.14880104  0.01762528  0.25447267  1
  Si  Si67  1  0.84590968  0.68903229  0.25343440  1
  Si  Si68  1  0.00149043  0.30504178  0.25553526  1
  Si  Si69  1  0.50244239  0.29570004  0.25634320  1
  Si  Si70  1  0.64873829  0.27830994  0.75426272  1
  Si  Si71  1  0.00118615  0.71001948  0.75641721  1
  Si  Si72  1  0.50003883  0.69556623  0.75549662  1
  Si  Si73  1  0.34720952  0.00408091  0.75569820  1
  Si  Si74  1  0.98054065  0.33329652  0.58359553  1
  Si  Si75  1  0.19108657  0.04625452  0.57880364  1
  Si  Si76  1  0.33733824  0.62820236  0.58629303  1
  Si  Si77  1  0.82663057  0.62136212  0.58037990  1
  Si  Si78  1  0.48249642  0.62866394  0.08306655  1
  Si  Si79  1  0.32682548  0.03248385  0.08036309  1
  Si  Si80  1  0.83548226  0.04670934  0.08537777  1
  Si  Si81  1  0.31827862  0.66510778  0.91650917  1
  Si  Si82  1  0.81233721  0.66162395  0.92340815  1
  Si  Si83  1  0.02124615  0.37085048  0.91877122  1
  Si  Si84  1  0.31433692  0.96198213  0.42150281  1
  Si  Si85  1  0.81898695  0.97114801  0.41644219  1
  Si  Si86  1  0.51880295  0.66802545  0.41979939  1
  S  S87  1  0.64449657  0.99698576  0.25267402  1
  S  S88  1  0.35145137  0.70435728  0.25046998  1
  S  S89  1  0.14334805  0.29125194  0.75307491  1
  S  S90  1  0.85160005  0.99932635  0.75107411  1
  S  S91  1  0.48477588  0.32727397  0.58414415  1
  S  S92  1  0.68260323  0.04019298  0.58544259  1
  S  S93  1  0.98241783  0.64030112  0.08385548  1
  S  S94  1  0.18285740  0.32482926  0.08543987  1
  S  S95  1  0.68316203  0.32518898  0.08357628  1
  S  S96  1  0.52325015  0.37856978  0.91800782  1
  S  S97  1  0.16859797  0.96015006  0.91775828  1
  S  S98  1  0.66574336  0.95558553  0.91725392  1
  S  S99  1  0.16551065  0.38035085  0.41615913  1
  S  S100  1  0.66839128  0.37611043  0.41715036  1
  S  S101  1  0.02166701  0.66716506  0.41657471  1
  O  O102  1  0.09932695  0.01204851  0.31410489  1
  O  O103  1  0.60283039  0.00495353  0.30703923  1
  O  O104  1  0.39712941  0.77788751  0.30627485  1
  O  O105  1  0.90401112  0.76057542  0.31245398  1
  O  O106  1  0.49221676  0.17908760  0.31294159  1
  O  O107  1  0.98373428  0.18831493  0.31271267  1
  O  O108  1  0.10195991  0.20046052  0.80795513  1
  O  O109  1  0.59981374  0.18538286  0.81430404  1
  O  O110  1  0.48473321  0.77615176  0.81401284  1
  O  O111  1  0.99087660  0.80189476  0.81465557  1
  O  O112  1  0.40390885  0.03986755  0.81500455  1
  O  O113  1  0.89570799  0.01625430  0.80813503  1
  O  O114  1  0.40290223  0.97180743  0.69886686  1
  O  O115  1  0.89301248  0.96791859  0.69933210  1
  O  O116  1  0.09409055  0.20684998  0.69821633  1
  O  O117  1  0.58520343  0.19848261  0.69388655  1
  O  O118  1  0.00987556  0.83004967  0.69564792  1
  O  O119  1  0.51367167  0.82667967  0.69683533  1
  O  O120  1  0.39798493  0.82218321  0.19775708  1
  O  O121  1  0.90249254  0.83434166  0.19702675  1
  O  O122  1  0.01295891  0.20096851  0.19587341  1
  O  O123  1  0.51099458  0.19026165  0.19445663  1
  O  O124  1  0.08415381  0.97347384  0.19384672  1
  O  O125  1  0.59455588  0.98312654  0.19721192  1
  O  O126  1  0.44656743  0.34789978  0.63913475  1
  O  O127  1  0.93361509  0.37512528  0.63544579  1
  O  O128  1  0.25278954  0.12938622  0.63449320  1
  O  O129  1  0.73607668  0.12846063  0.63661636  1
  O  O130  1  0.33018010  0.52626205  0.64720540  1
  O  O131  1  0.80773896  0.51404721  0.64153864  1
  O  O132  1  0.43445692  0.49894084  0.13631834  1
  O  O133  1  0.94191908  0.54263436  0.13836715  1
  O  O134  1  0.31087377  0.10352901  0.14201148  1
  O  O135  1  0.82312636  0.13248630  0.14530916  1
  O  O136  1  0.23566942  0.34253195  0.13676859  1
  O  O137  1  0.73565239  0.34686407  0.13569053  1
  O  O138  1  0.21783746  0.30463526  0.02764590  1
  O  O139  1  0.71581326  0.29617546  0.02727479  1
  O  O140  1  0.42737242  0.58223395  0.02089755  1
  O  O141  1  0.93127822  0.56423725  0.02929351  1
  O  O142  1  0.35456208  0.15995972  0.02264007  1
  O  O143  1  0.85514486  0.16074198  0.02444455  1
  O  O144  1  0.21942832  0.16075065  0.51801600  1
  O  O145  1  0.71752445  0.13031304  0.52743225  1
  O  O146  1  0.36122995  0.55981548  0.52577769  1
  O  O147  1  0.85074316  0.54592887  0.52158641  1
  O  O148  1  0.43380591  0.30147853  0.52957961  1
  O  O149  1  0.92515134  0.26998145  0.52102464  1
  O  O150  1  0.27908938  0.69634930  0.97692391  1
  O  O151  1  0.76615269  0.68517267  0.98097814  1
  O  O152  1  0.07465482  0.45808361  0.97964809  1
  O  O153  1  0.57012223  0.46862465  0.97209159  1
  O  O154  1  0.15583797  0.86235233  0.97386272  1
  O  O155  1  0.65585034  0.86502407  0.97445929  1
  O  O156  1  0.26823800  0.84103626  0.47742205  1
  O  O157  1  0.77863957  0.86045327  0.47625405  1
  O  O158  1  0.15745418  0.45578426  0.47216079  1
  O  O159  1  0.65622593  0.45004787  0.47258029  1
  O  O160  1  0.06840617  0.66729122  0.46957352  1
  O  O161  1  0.57602111  0.69386219  0.47906003  1
  O  O162  1  0.06873642  0.66025547  0.35949914  1
  O  O163  1  0.57661820  0.65140932  0.36206861  1
  O  O164  1  0.25337158  0.84802950  0.35921580  1
  O  O165  1  0.75369016  0.85471126  0.35840244  1
  O  O166  1  0.16529106  0.48707576  0.36316817  1
  O  O167  1  0.67511629  0.48696143  0.36392901  1
  O  O168  1  0.07805741  0.50157111  0.86235162  1
  O  O169  1  0.56992971  0.48072460  0.86202349  1
  O  O170  1  0.17568525  0.86379039  0.86516453  1
  O  O171  1  0.66914533  0.85189380  0.86575787  1
  O  O172  1  0.25272962  0.64893337  0.85944968  1
  O  O173  1  0.75105572  0.65079547  0.86233236  1
  O  O174  1  0.01582326  0.82246681  0.41567239  1
  O  O175  1  0.51452116  0.84177960  0.41127066  1
  O  O176  1  0.40726771  0.98006317  0.41663694  1
  O  O177  1  0.91103049  0.98314468  0.41084908  1
  O  O178  1  0.09275359  0.20745280  0.41227629  1
  O  O179  1  0.59511094  0.20449493  0.41150075  1
  O  O180  1  0.01383107  0.18529896  0.91185313  1
  O  O181  1  0.51682726  0.21101445  0.91707491  1
  O  O182  1  0.09530148  0.98580580  0.91243085  1
  O  O183  1  0.59257188  0.98159055  0.91282169  1
  O  O184  1  0.41063821  0.83575077  0.91102988  1
  O  O185  1  0.90494594  0.82984376  0.91797981  1
  O  O186  1  0.49316404  0.16898198  0.58854953  1
  O  O187  1  0.98913694  0.16111774  0.60020522  1
  O  O188  1  0.09357208  0.03002993  0.59219211  1
  O  O189  1  0.59651477  0.02942947  0.58936244  1
  O  O190  1  0.42537184  0.83113875  0.59150846  1
  O  O191  1  0.91591746  0.81690098  0.59049631  1
  O  O192  1  0.49682299  0.82493217  0.09850611  1
  O  O193  1  0.99114679  0.81569146  0.08767454  1
  O  O194  1  0.41692369  0.01167954  0.09112271  1
  O  O195  1  0.92419298  0.02520236  0.09097757  1
  O  O196  1  0.09618976  0.16317700  0.08898512  1
  O  O197  1  0.59598567  0.16015739  0.09053196  1
  O  O198  1  0.33938328  0.16735519  0.74314608  1
  O  O199  1  0.83377180  0.13537757  0.74254117  1
  O  O200  1  0.23042469  0.32386988  0.75051980  1
  O  O201  1  0.74408050  0.32171709  0.74804023  1
  O  O202  1  0.42201649  0.50904736  0.74522163  1
  O  O203  1  0.91912349  0.52617240  0.74992538  1
  O  O204  1  0.33535022  0.53545648  0.24015270  1
  O  O205  1  0.83590043  0.50942040  0.23700685  1
  O  O206  1  0.41955341  0.31175787  0.24923080  1
  O  O207  1  0.92261134  0.33496980  0.24607830  1
  O  O208  1  0.24353074  0.16742938  0.24711791  1
  O  O209  1  0.73084770  0.14101123  0.24917428  1
  O  O210  1  0.31868008  0.48447268  0.91637595  1
  O  O211  1  0.81521019  0.48490337  0.92130897  1
  O  O212  1  0.43938262  0.36491861  0.91376687  1
  O  O213  1  0.92975846  0.36015986  0.91361253  1
  O  O214  1  0.24779874  0.12486236  0.91785384  1
  O  O215  1  0.74560454  0.11976338  0.91499399  1
  O  O216  1  0.31675758  0.14213190  0.41615678  1
  O  O217  1  0.81867614  0.15099491  0.41477890  1
  O  O218  1  0.24623284  0.38087126  0.41101306  1
  O  O219  1  0.74755572  0.37066525  0.41625205  1
  O  O220  1  0.42748673  0.49623590  0.41670986  1
  O  O221  1  0.93795634  0.51348716  0.41119937  1
  O  O222  1  0.16773427  0.47085062  0.08439038  1
  O  O223  1  0.66430263  0.46485443  0.08116287  1
  O  O224  1  0.06806974  0.66178265  0.08043058  1
  O  O225  1  0.57771261  0.65498992  0.07749911  1
  O  O226  1  0.24825653  0.83806543  0.07542079  1
  O  O227  1  0.75520264  0.85371021  0.08452333  1
  O  O228  1  0.16331483  0.84734678  0.57664149  1
  O  O229  1  0.66732818  0.86402645  0.58423808  1
  O  O230  1  0.25632786  0.65598846  0.58434843  1
  O  O231  1  0.74797699  0.65899673  0.57515529  1
  O  O232  1  0.07674129  0.48860768  0.57678360  1
  O  O233  1  0.57086857  0.47645494  0.57966993  1
  O  O234  1  0.15515449  0.83152068  0.25640703  1
  O  O235  1  0.65183628  0.83657722  0.25164024  1
  O  O236  1  0.26822127  0.70758937  0.25029372  1
  O  O237  1  0.75910891  0.70145670  0.25399610  1
  O  O238  1  0.08942750  0.49219455  0.25558332  1
  O  O239  1  0.59048417  0.48242108  0.25719289  1
  O  O240  1  0.15036828  0.46707739  0.75266284  1
  O  O241  1  0.65545758  0.47866528  0.75792820  1
  O  O242  1  0.08949765  0.69908255  0.75951961  1
  O  O243  1  0.58881729  0.68537842  0.75834364  1
  O  O244  1  0.25944494  0.81825128  0.75572322  1
  O  O245  1  0.76538362  0.82938486  0.75410416  1
