# generated using pymatgen
data_MgV2Ni(TeO5)2
_symmetry_space_group_name_H-M   'P 1'
_cell_length_a   5.14664509
_cell_length_b   6.57110504
_cell_length_c   6.46614570
_cell_angle_alpha   88.45213792
_cell_angle_beta   66.05554748
_cell_angle_gamma   78.27035868
_symmetry_Int_Tables_number   1
_chemical_formula_structural   MgV2Ni(TeO5)2
_chemical_formula_sum   'Mg1 V2 Ni1 Te2 O10'
_cell_volume   195.30964094
_cell_formula_units_Z   1
loop_
 _symmetry_equiv_pos_site_id
 _symmetry_equiv_pos_as_xyz
  1  'x, y, z'
loop_
 _atom_site_type_symbol
 _atom_site_label
 _atom_site_symmetry_multiplicity
 _atom_site_fract_x
 _atom_site_fract_y
 _atom_site_fract_z
 _atom_site_occupancy
  Mg  Mg0  1  0.29361906  0.93304254  0.68960908  1
  V  V1  1  0.70536641  0.58853969  0.59817882  1
  V  V2  1  0.33393446  0.39371284  0.40042919  1
  Ni  Ni3  1  0.97825250  0.53750886  0.00467667  1
  Te  Te4  1  0.29959382  0.87093659  0.21639408  1
  Te  Te5  1  0.69212595  0.12949208  0.79018843  1
  O  O6  1  0.01381725  0.53144132  0.30564307  1
  O  O7  1  0.62352459  0.36875863  0.13569750  1
  O  O8  1  0.28450227  0.12761315  0.94601588  1
  O  O9  1  0.59170275  0.32148980  0.58264943  1
  O  O10  1  0.73718277  0.89729327  0.58742197  1
  O  O11  1  0.25339670  0.10155998  0.43175467  1
  O  O12  1  0.39235392  0.69107884  0.44261239  1
  O  O13  1  0.70965631  0.84980399  0.04188410  1
  O  O14  1  0.35313547  0.67122197  0.85379162  1
  O  O15  1  0.98783576  0.46567346  0.70305309  1
