# generated using pymatgen
data_Na5LaNb3Si5PO24
_symmetry_space_group_name_H-M   'P 1'
_cell_length_a   9.17376354
_cell_length_b   9.20393159
_cell_length_c   22.85159377
_cell_angle_alpha   90.01695553
_cell_angle_beta   90.02454103
_cell_angle_gamma   119.90545451
_symmetry_Int_Tables_number   1
_chemical_formula_structural   Na5LaNb3Si5PO24
_chemical_formula_sum   'Na15 La3 Nb9 Si15 P3 O72'
_cell_volume   1672.55690233
_cell_formula_units_Z   3
loop_
 _symmetry_equiv_pos_site_id
 _symmetry_equiv_pos_as_xyz
  1  'x, y, z'
loop_
 _atom_site_type_symbol
 _atom_site_label
 _atom_site_symmetry_multiplicity
 _atom_site_fract_x
 _atom_site_fract_y
 _atom_site_fract_z
 _atom_site_occupancy
  Na  Na0  1  0.99353001  0.63425592  0.24343821  1
  Na  Na1  1  0.62985272  0.62250297  0.74871466  1
  Na  Na2  1  0.99239177  0.36879084  0.74833037  1
  Na  Na3  1  0.37505332  0.00759028  0.75058430  1
  Na  Na4  1  0.31706309  0.97178908  0.08218989  1
  Na  Na5  1  0.65983166  0.68641139  0.08326167  1
  Na  Na6  1  0.96746068  0.29305845  0.41654435  1
  Na  Na7  1  0.32462886  0.03309821  0.41519653  1
  Na  Na8  1  0.70641660  0.67509655  0.41689251  1
  Na  Na9  1  0.00090659  0.99983843  0.50374138  1
  Na  Na10  1  0.99883299  0.00824692  0.99593381  1
  Na  Na11  1  0.66604936  0.33397011  0.83513938  1
  Na  Na12  1  0.64832462  0.31688746  0.32564900  1
  Na  Na13  1  0.33266511  0.65562497  0.16580338  1
  Na  Na14  1  0.33172109  0.66171302  0.66475537  1
  La  La15  1  0.00273159  0.00472475  0.34953160  1
  La  La16  1  0.66786189  0.33645076  0.67909396  1
  La  La17  1  0.65995650  0.32272582  0.17488585  1
  Nb  Nb18  1  0.00032221  0.99928555  0.85800241  1
  Nb  Nb19  1  0.99461215  0.99919118  0.64621013  1
  Nb  Nb20  1  0.00554151  0.00443599  0.14589017  1
  Nb  Nb21  1  0.66698458  0.33165026  0.97825264  1
  Nb  Nb22  1  0.67165532  0.33657716  0.48413211  1
  Nb  Nb23  1  0.32904780  0.66313026  0.01395382  1
  Nb  Nb24  1  0.33369333  0.66409688  0.52103371  1
  Nb  Nb25  1  0.33750878  0.67084942  0.31295442  1
  Nb  Nb26  1  0.33258677  0.66567625  0.81563386  1
  Si  Si27  1  0.30248697  0.99416433  0.25214386  1
  Si  Si28  1  0.27817767  0.28705739  0.75261361  1
  Si  Si29  1  0.00960175  0.72178781  0.75233958  1
  Si  Si30  1  0.71029013  0.99056022  0.75333233  1
  Si  Si31  1  0.97218767  0.33113813  0.58427178  1
  Si  Si32  1  0.66994183  0.64083790  0.58414692  1
  Si  Si33  1  0.96881953  0.63218860  0.08278452  1
  Si  Si34  1  0.66540242  0.02962737  0.07895771  1
  Si  Si35  1  0.36679109  0.33756547  0.07983025  1
  Si  Si36  1  0.62507047  0.66353262  0.91620566  1
  Si  Si37  1  0.03789789  0.37399708  0.91516846  1
  Si  Si38  1  0.33720697  0.96190272  0.91596535  1
  Si  Si39  1  0.61307198  0.95944922  0.41939106  1
  Si  Si40  1  0.34551273  0.38708653  0.41853904  1
  Si  Si41  1  0.04174688  0.65526156  0.41822557  1
  P  P42  1  0.69581541  0.70426944  0.24951550  1
  P  P43  1  0.01219530  0.30743591  0.25035466  1
  P  P44  1  0.36135969  0.02978624  0.58153670  1
  O  O45  1  0.22558841  0.00422747  0.31411896  1
  O  O46  1  0.78551513  0.77421009  0.30789016  1
  O  O47  1  0.98735553  0.22219436  0.30944246  1
  O  O48  1  0.17851731  0.16931498  0.80863513  1
  O  O49  1  0.99097054  0.82142077  0.80841241  1
  O  O50  1  0.83040621  0.01034189  0.80852186  1
  O  O51  1  0.80618834  0.96915312  0.69386082  1
  O  O52  1  0.16112222  0.19205526  0.69382702  1
  O  O53  1  0.03220570  0.83938479  0.69376205  1
  O  O54  1  0.79783933  0.82395588  0.19662816  1
  O  O55  1  0.01961876  0.19461255  0.19905470  1
  O  O56  1  0.16794302  0.97647590  0.19618013  1
  O  O57  1  0.91589176  0.37194566  0.64531697  1
  O  O58  1  0.45469914  0.08497409  0.63940196  1
  O  O59  1  0.62527105  0.54382591  0.64523357  1
  O  O60  1  0.92050585  0.54593342  0.14531049  1
  O  O61  1  0.59311658  0.07254375  0.13560952  1
  O  O62  1  0.47893142  0.40120822  0.13737459  1
  O  O63  1  0.46601243  0.29515401  0.02785512  1
  O  O64  1  0.82625772  0.52626052  0.03160529  1
  O  O65  1  0.69584976  0.16617461  0.02648691  1
  O  O66  1  0.46821527  0.15647254  0.53054647  1
  O  O67  1  0.68943693  0.52400617  0.52974838  1
  O  O68  1  0.83522105  0.30760632  0.52943276  1
  O  O69  1  0.52867283  0.68817028  0.97156540  1
  O  O70  1  0.16272635  0.47680874  0.96914709  1
  O  O71  1  0.31324848  0.84346621  0.97207113  1
  O  O72  1  0.51064998  0.83784577  0.47243355  1
  O  O73  1  0.32795678  0.48944768  0.47284049  1
  O  O74  1  0.16403985  0.67526291  0.47154862  1
  O  O75  1  0.13226823  0.63017332  0.35784061  1
  O  O76  1  0.49534412  0.86177793  0.35946862  1
  O  O77  1  0.36748730  0.50528105  0.35990167  1
  O  O78  1  0.13380197  0.49485518  0.85710712  1
  O  O79  1  0.36029281  0.86338816  0.85819374  1
  O  O80  1  0.50293029  0.63889839  0.85822314  1
  O  O81  1  0.01229191  0.81331321  0.41983256  1
  O  O82  1  0.79821529  0.98230206  0.42022759  1
  O  O83  1  0.18128623  0.20385854  0.42096908  1
  O  O84  1  0.02034981  0.18942601  0.91016019  1
  O  O85  1  0.16938774  0.98003863  0.90988475  1
  O  O86  1  0.81045080  0.83090408  0.90975161  1
  O  O87  1  0.98118090  0.15796722  0.58753075  1
  O  O88  1  0.19038363  0.02365212  0.58426541  1
  O  O89  1  0.84618832  0.82021233  0.58762482  1
  O  O90  1  0.97866665  0.82133898  0.09018414  1
  O  O91  1  0.83598436  0.01370668  0.09076069  1
  O  O92  1  0.18452847  0.15944914  0.09148503  1
  O  O93  1  0.68811307  0.15327414  0.75204568  1
  O  O94  1  0.46268435  0.30599971  0.75242860  1
  O  O95  1  0.84530687  0.53735722  0.75246679  1
  O  O96  1  0.68366599  0.53598117  0.24404717  1
  O  O97  1  0.87001290  0.34442652  0.24429841  1
  O  O98  1  0.48621810  0.14992627  0.24820596  1
  O  O99  1  0.64079007  0.49481721  0.92509597  1
  O  O100  1  0.85491671  0.36163892  0.92458802  1
  O  O101  1  0.50643048  0.14663767  0.92367676  1
  O  O102  1  0.62297916  0.14338208  0.42454922  1
  O  O103  1  0.51762367  0.37295740  0.42474865  1
  O  O104  1  0.85579159  0.48007011  0.42515258  1
  O  O105  1  0.33587533  0.49371911  0.06569862  1
  O  O106  1  0.16140617  0.67493118  0.06871526  1
  O  O107  1  0.51077839  0.83855677  0.06570748  1
  O  O108  1  0.33758484  0.85505746  0.56919075  1
  O  O109  1  0.51173360  0.66893909  0.56998782  1
  O  O110  1  0.15500864  0.49354150  0.57018425  1
  O  O111  1  0.29367515  0.80692053  0.25330813  1
  O  O112  1  0.52130069  0.69659260  0.25267603  1
  O  O113  1  0.18324684  0.47743160  0.25141639  1
  O  O114  1  0.29261922  0.47415501  0.75686187  1
  O  O115  1  0.18327493  0.70820255  0.75661508  1
  O  O116  1  0.52517637  0.81653687  0.75665576  1
