# generated using pymatgen
data_MgFe6(OF)6
_symmetry_space_group_name_H-M   'P 1'
_cell_length_a   5.48768299
_cell_length_b   5.22326219
_cell_length_c   8.67323130
_cell_angle_alpha   87.45201193
_cell_angle_beta   89.56220639
_cell_angle_gamma   90.07404587
_symmetry_Int_Tables_number   1
_chemical_formula_structural   MgFe6(OF)6
_chemical_formula_sum   'Mg1 Fe6 O6 F6'
_cell_volume   248.35272497
_cell_formula_units_Z   1
loop_
 _symmetry_equiv_pos_site_id
 _symmetry_equiv_pos_as_xyz
  1  'x, y, z'
loop_
 _atom_site_type_symbol
 _atom_site_label
 _atom_site_symmetry_multiplicity
 _atom_site_fract_x
 _atom_site_fract_y
 _atom_site_fract_z
 _atom_site_occupancy
  Mg  Mg0  1  0.96129600  0.53159400  0.65133800  1
  Fe  Fe1  1  0.90650000  0.91843200  0.99865800  1
  Fe  Fe2  1  0.06565300  0.05666400  0.32783000  1
  Fe  Fe3  1  0.16804800  0.03301100  0.67648100  1
  Fe  Fe4  1  0.41778100  0.56773300  0.84540300  1
  Fe  Fe5  1  0.57615200  0.39964300  0.16410000  1
  Fe  Fe6  1  0.42176400  0.54522100  0.47529200  1
  O  O7  1  0.13037800  0.80831100  0.49957100  1
  O  O8  1  0.11539000  0.75305400  0.84054700  1
  O  O9  1  0.30799800  0.37037700  0.67419600  1
  O  O10  1  0.34201600  0.27539400  0.31537100  1
  O  O11  1  0.64334500  0.67493600  0.99926900  1
  O  O12  1  0.83846600  0.16118500  0.15990900  1
  F  F13  1  0.14081000  0.79887000  0.16213700  1
  F  F14  1  0.36686000  0.27088700  0.99172000  1
  F  F15  1  0.64995800  0.71077200  0.67403100  1
  F  F16  1  0.65928300  0.66697300  0.31277000  1
  F  F17  1  0.87184800  0.19807000  0.82474600  1
  F  F18  1  0.88867400  0.27276700  0.49234600  1
