# generated using pymatgen
data_Na4Ca3SiGeS5O24
_symmetry_space_group_name_H-M   'P 1'
_cell_length_a   9.11114838
_cell_length_b   9.17326946
_cell_length_c   23.19840427
_cell_angle_alpha   90.69342898
_cell_angle_beta   89.32896180
_cell_angle_gamma   120.47754753
_symmetry_Int_Tables_number   1
_chemical_formula_structural   Na4Ca3SiGeS5O24
_chemical_formula_sum   'Na12 Ca9 Si3 Ge3 S15 O72'
_cell_volume   1670.84084984
_cell_formula_units_Z   3
loop_
 _symmetry_equiv_pos_site_id
 _symmetry_equiv_pos_as_xyz
  1  'x, y, z'
loop_
 _atom_site_type_symbol
 _atom_site_label
 _atom_site_symmetry_multiplicity
 _atom_site_fract_x
 _atom_site_fract_y
 _atom_site_fract_z
 _atom_site_occupancy
  Na  Na0  1  0.35853463  0.35729346  0.25277724  1
  Na  Na1  1  0.31730402  0.34722869  0.59013057  1
  Na  Na2  1  0.02235028  0.69313790  0.57884033  1
  Na  Na3  1  0.98921841  0.68277295  0.92355417  1
  Na  Na4  1  0.69179743  0.01860053  0.91038565  1
  Na  Na5  1  0.31488175  0.30227943  0.92192592  1
  Na  Na6  1  0.96210850  0.98030910  0.50128590  1
  Na  Na7  1  0.02066396  0.01931513  0.99810389  1
  Na  Na8  1  0.66269324  0.33037520  0.83132745  1
  Na  Na9  1  0.68206233  0.32815572  0.33565844  1
  Na  Na10  1  0.33077529  0.68425273  0.17018616  1
  Na  Na11  1  0.38699685  0.67885235  0.67036029  1
  Ca  Ca12  1  0.99218466  0.99258264  0.35373023  1
  Ca  Ca13  1  0.00331567  0.00474839  0.84535774  1
  Ca  Ca14  1  0.97671193  0.98920702  0.65195067  1
  Ca  Ca15  1  0.99792430  0.99247756  0.14455984  1
  Ca  Ca16  1  0.66150311  0.33188185  0.68854164  1
  Ca  Ca17  1  0.67845495  0.33360998  0.18666914  1
  Ca  Ca18  1  0.32881778  0.66000284  0.01891555  1
  Ca  Ca19  1  0.34624525  0.67153122  0.51368965  1
  Ca  Ca20  1  0.33776315  0.68071634  0.32312199  1
  Si  Si21  1  0.66842986  0.62253218  0.58164445  1
  Si  Si22  1  0.03550380  0.37602244  0.91688622  1
  Si  Si23  1  0.33716898  0.96808731  0.92019500  1
  Ge  Ge24  1  0.67378937  0.31275053  0.98098227  1
  Ge  Ge25  1  0.66993695  0.34385955  0.48390775  1
  Ge  Ge26  1  0.31020239  0.68300585  0.82265186  1
  S  S27  1  0.29807220  0.99735748  0.24980279  1
  S  S28  1  0.69004634  0.69539329  0.25015647  1
  S  S29  1  0.00862529  0.30202066  0.25150547  1
  S  S30  1  0.30712362  0.33165673  0.75470567  1
  S  S31  1  0.01593061  0.69217346  0.75444625  1
  S  S32  1  0.66539118  0.97724225  0.75918953  1
  S  S33  1  0.95026495  0.32765618  0.57742797  1
  S  S34  1  0.37606857  0.04961191  0.57887822  1
  S  S35  1  0.94418033  0.62053138  0.07620326  1
  S  S36  1  0.67931716  0.04749614  0.07741868  1
  S  S37  1  0.38692300  0.32583434  0.07797463  1
  S  S38  1  0.62046458  0.65495768  0.91434360  1
  S  S39  1  0.64443440  0.00218565  0.42291787  1
  S  S40  1  0.34989824  0.35521604  0.42018493  1
  S  S41  1  0.00901058  0.65003705  0.42379728  1
  O  O42  1  0.20733406  0.00467216  0.30169349  1
  O  O43  1  0.78241470  0.78231509  0.30262507  1
  O  O44  1  0.00001845  0.20606319  0.30305091  1
  O  O45  1  0.21759066  0.23079857  0.80565264  1
  O  O46  1  0.99802107  0.77320201  0.80662923  1
  O  O47  1  0.76224181  0.99404420  0.81120190  1
  O  O48  1  0.74854594  0.95960153  0.70653435  1
  O  O49  1  0.21494416  0.24761485  0.70032997  1
  O  O50  1  0.03204283  0.78697889  0.70151854  1
  O  O51  1  0.77808689  0.78734064  0.19755515  1
  O  O52  1  0.01822166  0.21582721  0.19839762  1
  O  O53  1  0.20460594  0.98633262  0.19683172  1
  O  O54  1  0.86600419  0.33578242  0.63012764  1
  O  O55  1  0.47684339  0.11587804  0.63099131  1
  O  O56  1  0.64161340  0.50634415  0.63609162  1
  O  O57  1  0.84968746  0.53222201  0.12728535  1
  O  O58  1  0.67516727  0.14380056  0.12636952  1
  O  O59  1  0.47092537  0.32379091  0.13079776  1
  O  O60  1  0.48151341  0.31334012  0.02259796  1
  O  O61  1  0.84558244  0.52629973  0.02083213  1
  O  O62  1  0.68977320  0.14083061  0.02011074  1
  O  O63  1  0.46822228  0.15490098  0.52606855  1
  O  O64  1  0.69989854  0.52180020  0.52251268  1
  O  O65  1  0.84313188  0.30078795  0.52432518  1
  O  O66  1  0.56019502  0.69334630  0.96785367  1
  O  O67  1  0.16782270  0.43676874  0.96811781  1
  O  O68  1  0.29357131  0.84271584  0.97184967  1
  O  O69  1  0.55990144  0.90109987  0.47386578  1
  O  O70  1  0.33313408  0.43913975  0.47202845  1
  O  O71  1  0.10194284  0.66737481  0.47709520  1
  O  O72  1  0.09850704  0.63728024  0.37269587  1
  O  O73  1  0.54812064  0.92636389  0.36967430  1
  O  O74  1  0.37053589  0.45369277  0.36741953  1
  O  O75  1  0.12505648  0.52310796  0.86180478  1
  O  O76  1  0.38338216  0.88260584  0.86085748  1
  O  O77  1  0.50651947  0.63004358  0.86441335  1
  O  O78  1  0.97448081  0.78961208  0.41955028  1
  O  O79  1  0.81904375  0.03225607  0.41909724  1
  O  O80  1  0.20356660  0.18227309  0.41654620  1
  O  O81  1  0.97811304  0.18354378  0.90262858  1
  O  O82  1  0.18735481  0.00753225  0.91040789  1
  O  O83  1  0.79768951  0.79708535  0.90505825  1
  O  O84  1  0.98610278  0.18689971  0.57876259  1
  O  O85  1  0.21474474  0.05436043  0.58331371  1
  O  O86  1  0.84750802  0.80452459  0.58086469  1
  O  O87  1  0.96267140  0.78983411  0.07201527  1
  O  O88  1  0.83414531  0.03533247  0.07530412  1
  O  O89  1  0.21462410  0.17494966  0.07408374  1
  O  O90  1  0.63857546  0.12217344  0.75500723  1
  O  O91  1  0.48059890  0.35578562  0.75420082  1
  O  O92  1  0.87658909  0.51545022  0.75165429  1
  O  O93  1  0.66491666  0.52082801  0.25005067  1
  O  O94  1  0.85953403  0.32567651  0.25161210  1
  O  O95  1  0.46652450  0.15931105  0.24978414  1
  O  O96  1  0.62578136  0.49384301  0.91796906  1
  O  O97  1  0.84857849  0.37766720  0.92715167  1
  O  O98  1  0.52510524  0.15906725  0.92663918  1
  O  O99  1  0.65189629  0.17267685  0.42781643  1
  O  O100  1  0.51282069  0.34599572  0.42396261  1
  O  O101  1  0.83981596  0.48085321  0.42427184  1
  O  O102  1  0.38230526  0.48274698  0.07594305  1
  O  O103  1  0.11044361  0.63117179  0.07681069  1
  O  O104  1  0.52498977  0.88084831  0.07700078  1
  O  O105  1  0.33043351  0.87196066  0.57063178  1
  O  O106  1  0.49640587  0.63462379  0.57712678  1
  O  O107  1  0.11577139  0.48970385  0.57281991  1
  O  O108  1  0.32370882  0.85023352  0.25138570  1
  O  O109  1  0.51477318  0.67245647  0.25113329  1
  O  O110  1  0.16985752  0.47145536  0.25316917  1
  O  O111  1  0.31388493  0.49923543  0.75860576  1
  O  O112  1  0.18604229  0.69506895  0.75803377  1
  O  O113  1  0.49502533  0.81116285  0.76215422  1
