# generated using pymatgen
data_Na6La4Zn4SiS11O48
_symmetry_space_group_name_H-M   'P 1'
_cell_length_a   18.38000807
_cell_length_b   9.18835595
_cell_length_c   24.06766101
_cell_angle_alpha   89.72831655
_cell_angle_beta   89.95441606
_cell_angle_gamma   119.91177977
_symmetry_Int_Tables_number   1
_chemical_formula_structural   Na6La4Zn4SiS11O48
_chemical_formula_sum   'Na18 La12 Zn12 Si3 S33 O144'
_cell_volume   3523.10546662
_cell_formula_units_Z   3
loop_
 _symmetry_equiv_pos_site_id
 _symmetry_equiv_pos_as_xyz
  1  'x, y, z'
loop_
 _atom_site_type_symbol
 _atom_site_label
 _atom_site_symmetry_multiplicity
 _atom_site_fract_x
 _atom_site_fract_y
 _atom_site_fract_z
 _atom_site_occupancy
  Na  Na0  1  0.81968926  0.00167673  0.24383497  1
  Na  Na1  1  0.99518154  0.63516990  0.25454402  1
  Na  Na2  1  0.31567429  0.65220822  0.75133377  1
  Na  Na3  1  0.81757687  0.64636087  0.74506828  1
  Na  Na4  1  0.99102375  0.35402683  0.75213033  1
  Na  Na5  1  0.68803587  0.00470297  0.74854659  1
  Na  Na6  1  0.99619051  0.99630319  0.49894910  1
  Na  Na7  1  0.50497220  0.00344563  0.49008345  1
  Na  Na8  1  0.00198759  0.00227488  0.00027429  1
  Na  Na9  1  0.50064649  0.00079893  -0.00000358  1
  Na  Na10  1  0.33490697  0.30559046  0.84065428  1
  Na  Na11  1  0.83456719  0.32169154  0.83846510  1
  Na  Na12  1  0.33447452  0.33633373  0.32270961  1
  Na  Na13  1  0.82622777  0.34854670  0.33603096  1
  Na  Na14  1  0.17735950  0.67041785  0.17553314  1
  Na  Na15  1  0.66694166  0.65249230  0.17222042  1
  Na  Na16  1  0.17201001  0.68896274  0.66412036  1
  Na  Na17  1  0.67194361  0.67344385  0.66053065  1
  La  La18  1  0.99623406  0.98508585  0.35242747  1
  La  La19  1  0.99432153  0.99981534  0.84957140  1
  La  La20  1  0.49851061  0.01238819  0.85166224  1
  La  La21  1  0.98931113  0.99290960  0.64691186  1
  La  La22  1  0.49602659  0.00198757  0.64909553  1
  La  La23  1  0.00160409  0.00262868  0.14831548  1
  La  La24  1  0.49540227  0.99121611  0.14951035  1
  La  La25  1  0.33365776  0.31144843  0.68023420  1
  La  La26  1  0.33103946  0.32821444  0.47697175  1
  La  La27  1  0.16725179  0.66651677  0.02059885  1
  La  La28  1  0.66730391  0.67021366  0.02155178  1
  La  La29  1  0.66844276  0.65263925  0.32079480  1
  Zn  Zn30  1  0.49473629  0.99422190  0.34870876  1
  Zn  Zn31  1  0.83379981  0.30663003  0.67153805  1
  Zn  Zn32  1  0.33356035  0.33338203  0.18188081  1
  Zn  Zn33  1  0.82843515  0.35416452  0.18178632  1
  Zn  Zn34  1  0.33319029  0.33424888  0.98493503  1
  Zn  Zn35  1  0.83346486  0.33328351  0.98515646  1
  Zn  Zn36  1  0.83101968  0.33096475  0.48720595  1
  Zn  Zn37  1  0.16509920  0.66469846  0.51114676  1
  Zn  Zn38  1  0.67075065  0.66744567  0.51315127  1
  Zn  Zn39  1  0.17449347  0.67260436  0.32379460  1
  Zn  Zn40  1  0.17776089  0.70266540  0.82158317  1
  Zn  Zn41  1  0.67420517  0.68140827  0.82161453  1
  Si  Si42  1  0.84770622  0.68714452  0.24613625  1
  Si  Si43  1  0.33853221  0.98470754  0.75308726  1
  Si  Si44  1  0.84094882  0.00018777  0.75032237  1
  S  S45  1  0.15907894  0.99878244  0.25033129  1
  S  S46  1  0.65137879  0.01024875  0.25275424  1
  S  S47  1  0.34676250  0.69332033  0.25522497  1
  S  S48  1  0.00191239  0.31547792  0.25033311  1
  S  S49  1  0.49096430  0.28873222  0.25146041  1
  S  S50  1  0.15173273  0.31590351  0.75164663  1
  S  S51  1  0.65907728  0.31728393  0.74969995  1
  S  S52  1  0.99909976  0.68504638  0.74932579  1
  S  S53  1  0.50534800  0.69601683  0.75297260  1
  S  S54  1  0.49668939  0.35557516  0.57772029  1
  S  S55  1  0.98137933  0.35004395  0.57999530  1
  S  S56  1  0.17796337  0.00733882  0.57864820  1
  S  S57  1  0.69113117  0.03489336  0.58111531  1
  S  S58  1  0.32451774  0.63419638  0.58130062  1
  S  S59  1  0.82569945  0.60779898  0.58097125  1
  S  S60  1  0.46968108  0.60720549  0.08344677  1
  S  S61  1  0.97166038  0.61054305  0.08259056  1
  S  S62  1  0.33396231  0.06030806  0.08306576  1
  S  S63  1  0.83418806  0.06133039  0.08461637  1
  S  S64  1  0.19712700  0.33349128  0.08308722  1
  S  S65  1  0.69268968  0.32832063  0.08193123  1
  S  S66  1  0.31299271  0.64679469  0.91563204  1
  S  S67  1  0.81179996  0.64582600  0.91597365  1
  S  S68  1  0.01354886  0.37774768  0.91493386  1
  S  S69  1  0.51544928  0.38411951  0.91635966  1
  S  S70  1  0.17411492  0.97589734  0.91666933  1
  S  S71  1  0.67519096  0.97693431  0.91543811  1
  S  S72  1  0.31400446  0.94550957  0.41359677  1
  S  S73  1  0.81294385  0.97410259  0.42364915  1
  S  S74  1  0.16474612  0.38815104  0.41666374  1
  S  S75  1  0.66669963  0.35572798  0.42322695  1
  S  S76  1  0.02079437  0.65252200  0.41893772  1
  S  S77  1  0.52174348  0.68647354  0.41796122  1
  O  O78  1  0.11961010  0.02898971  0.29974164  1
  O  O79  1  0.60654437  0.02496889  0.30135724  1
  O  O80  1  0.40300193  0.78284213  0.30236763  1
  O  O81  1  0.90656181  0.77382427  0.30162212  1
  O  O82  1  0.48578831  0.18906028  0.30137189  1
  O  O83  1  0.98868679  0.20429655  0.29909725  1
  O  O84  1  0.11516515  0.20564239  0.80089064  1
  O  O85  1  0.62124222  0.20264452  0.79844915  1
  O  O86  1  0.49282816  0.78082408  0.80114882  1
  O  O87  1  0.98443942  0.76553709  0.79871111  1
  O  O88  1  0.39873623  0.01082097  0.80601834  1
  O  O89  1  0.90719175  0.05156667  0.80226963  1
  O  O90  1  0.38426254  0.95703700  0.69785007  1
  O  O91  1  0.88173482  0.94697915  0.69859106  1
  O  O92  1  0.10181008  0.22912451  0.70129174  1
  O  O93  1  0.60504596  0.23683523  0.70036217  1
  O  O94  1  0.01620783  0.79680655  0.70015968  1
  O  O95  1  0.52062427  0.80248244  0.70215498  1
  O  O96  1  0.38263272  0.79288517  0.20250392  1
  O  O97  1  0.89527088  0.81774160  0.19443130  1
  O  O98  1  0.01889925  0.24230666  0.20038533  1
  O  O99  1  0.50218539  0.21078225  0.20029640  1
  O  O100  1  0.10356571  0.96786698  0.20111461  1
  O  O101  1  0.60306570  0.98997917  0.20078024  1
  O  O102  1  0.45931288  0.37128269  0.63096413  1
  O  O103  1  0.94478618  0.36181924  0.63477188  1
  O  O104  1  0.22466428  0.08354603  0.63116993  1
  O  O105  1  0.73453950  0.10865254  0.63545231  1
  O  O106  1  0.31878111  0.54751098  0.63541544  1
  O  O107  1  0.82092716  0.52112954  0.63483700  1
  O  O108  1  0.42825935  0.51820974  0.13517726  1
  O  O109  1  0.93210376  0.52328290  0.13497239  1
  O  O110  1  0.33082548  0.14386361  0.13404105  1
  O  O111  1  0.83107235  0.14117909  0.13713245  1
  O  O112  1  0.24112029  0.33804628  0.13469843  1
  O  O113  1  0.73712271  0.33433404  0.13320458  1
  O  O114  1  0.23906960  0.32865139  0.03164990  1
  O  O115  1  0.73481363  0.32308531  0.03069485  1
  O  O116  1  0.42528985  0.52487711  0.03216001  1
  O  O117  1  0.92500501  0.52319070  0.03227824  1
  O  O118  1  0.33746768  0.14954372  0.03125348  1
  O  O119  1  0.83549741  0.15228814  0.03369821  1
  O  O120  1  0.22351394  0.12048093  0.53155399  1
  O  O121  1  0.73589946  0.14373922  0.53375294  1
  O  O122  1  0.33281706  0.53649288  0.53546287  1
  O  O123  1  0.83460704  0.52087648  0.53267020  1
  O  O124  1  0.43935163  0.33266502  0.53143187  1
  O  O125  1  0.92678451  0.33059596  0.53294625  1
  O  O126  1  0.27066667  0.66900863  0.96494776  1
  O  O127  1  0.76905454  0.66701086  0.96494269  1
  O  O128  1  0.06497278  0.46284135  0.96471352  1
  O  O129  1  0.56447471  0.46579928  0.96714314  1
  O  O130  1  0.16330101  0.87398816  0.96721493  1
  O  O131  1  0.66530266  0.87128027  0.96487605  1
  O  O132  1  0.27452833  0.85250557  0.46545992  1
  O  O133  1  0.76372553  0.85568747  0.46879347  1
  O  O134  1  0.16236810  0.47205075  0.46802006  1
  O  O135  1  0.65467659  0.44832574  0.46934553  1
  O  O136  1  0.07411892  0.67055978  0.46712890  1
  O  O137  1  0.57163497  0.69685520  0.46729504  1
  O  O138  1  0.05932965  0.64403836  0.36514088  1
  O  O139  1  0.55869919  0.66263066  0.36636838  1
  O  O140  1  0.26270913  0.86684171  0.36383744  1
  O  O141  1  0.77230577  0.90669386  0.36837761  1
  O  O142  1  0.16835749  0.47890179  0.36523869  1
  O  O143  1  0.68228920  0.45342284  0.36990442  1
  O  O144  1  0.05571964  0.47103089  0.86347984  1
  O  O145  1  0.56028529  0.47964213  0.86584471  1
  O  O146  1  0.17974265  0.88913761  0.86635208  1
  O  O147  1  0.67998071  0.89363088  0.86372789  1
  O  O148  1  0.26602129  0.63632623  0.86413922  1
  O  O149  1  0.76620858  0.63752723  0.86384866  1
  O  O150  1  0.01333324  0.80988099  0.41837295  1
  O  O151  1  0.51339495  0.83877410  0.41296850  1
  O  O152  1  0.39928699  0.96427284  0.40814563  1
  O  O153  1  0.89790990  0.98764954  0.42251743  1
  O  O154  1  0.08943722  0.21683357  0.41586895  1
  O  O155  1  0.58896137  0.19031602  0.41631505  1
  O  O156  1  0.00497277  0.20621558  0.91497174  1
  O  O157  1  0.50673832  0.21280078  0.91644488  1
  O  O158  1  0.09833798  0.99509221  0.91312825  1
  O  O159  1  0.59933625  0.99602011  0.91439100  1
  O  O160  1  0.39907786  0.79808224  0.91432539  1
  O  O161  1  0.89776324  0.79777550  0.91475714  1
  O  O162  1  0.50461257  0.20222444  0.58059146  1
  O  O163  1  0.99013222  0.19451471  0.58248124  1
  O  O164  1  0.09403832  0.99314095  0.58180152  1
  O  O165  1  0.60541285  0.01705348  0.58447892  1
  O  O166  1  0.40237616  0.80287171  0.58112024  1
  O  O167  1  0.90297304  0.78122038  0.58186143  1
  O  O168  1  0.47968722  0.78000314  0.08360989  1
  O  O169  1  0.98236661  0.78333303  0.08169938  1
  O  O170  1  0.41007399  0.03912291  0.08341758  1
  O  O171  1  0.91065916  0.04255625  0.08286397  1
  O  O172  1  0.11117940  0.18226893  0.08253065  1
  O  O173  1  0.60657979  0.17656146  0.08317867  1
  O  O174  1  0.32779996  0.15111007  0.74878675  1
  O  O175  1  0.83294545  0.16831505  0.73810630  1
  O  O176  1  0.24056179  0.35362816  0.74559696  1
  O  O177  1  0.74391369  0.33890463  0.74141492  1
  O  O178  1  0.42567072  0.53333864  0.74624396  1
  O  O179  1  0.92077948  0.52120889  0.74136368  1
  O  O180  1  0.33981072  0.52535668  0.24859215  1
  O  O181  1  0.84581769  0.50884787  0.24115405  1
  O  O182  1  0.41424170  0.30291967  0.24642982  1
  O  O183  1  0.92264715  0.32037280  0.24311385  1
  O  O184  1  0.24295768  0.14728393  0.24146801  1
  O  O185  1  0.73746310  0.15801427  0.24805400  1
  O  O186  1  0.31906045  0.49270684  0.92155975  1
  O  O187  1  0.81828149  0.49237938  0.92136083  1
  O  O188  1  0.43091715  0.36668867  0.91984760  1
  O  O189  1  0.92922671  0.36139926  0.92002524  1
  O  O190  1  0.25144324  0.14173334  0.92077532  1
  O  O191  1  0.75229508  0.14295990  0.92022485  1
  O  O192  1  0.32343357  0.11828313  0.41625316  1
  O  O193  1  0.82162494  0.14107402  0.43041858  1
  O  O194  1  0.24140147  0.36970506  0.41668633  1
  O  O195  1  0.74201317  0.33732725  0.43063689  1
  O  O196  1  0.43575480  0.53442491  0.42181592  1
  O  O197  1  0.93583086  0.50343901  0.42396682  1
  O  O198  1  0.18746337  0.48645034  0.08325820  1
  O  O199  1  0.68353500  0.48192793  0.08199186  1
  O  O200  1  0.05748725  0.62903306  0.08174347  1
  O  O201  1  0.55593599  0.62789866  0.08338530  1
  O  O202  1  0.25792326  0.88789542  0.08312838  1
  O  O203  1  0.75820901  0.88837271  0.08372752  1
  O  O204  1  0.17224481  0.84254470  0.57244127  1
  O  O205  1  0.68321462  0.86594990  0.57646686  1
  O  O206  1  0.24902130  0.65059061  0.57496106  1
  O  O207  1  0.75028299  0.62805751  0.57631466  1
  O  O208  1  0.06585928  0.49994218  0.57518100  1
  O  O209  1  0.57933964  0.50832600  0.57107426  1
  O  O210  1  0.16222714  0.84043686  0.25831712  1
  O  O211  1  0.66231581  0.85871217  0.25649704  1
  O  O212  1  0.26171973  0.67459231  0.26183824  1
  O  O213  1  0.75755586  0.68415533  0.25019502  1
  O  O214  1  0.07313894  0.48898636  0.25807226  1
  O  O215  1  0.56634177  0.46057592  0.25421672  1
  O  O216  1  0.15122448  0.47428410  0.75816862  1
  O  O217  1  0.66635273  0.48355541  0.75879232  1
  O  O218  1  0.07042219  0.65613652  0.75807475  1
  O  O219  1  0.57867626  0.67462994  0.76021934  1
  O  O220  1  0.24941534  0.80816796  0.75814157  1
  O  O221  1  0.74876225  0.83231384  0.76155898  1
