# generated using pymatgen
data_Na12Ta2Zn4Si6(SO12)3
_symmetry_space_group_name_H-M   'P 1'
_cell_length_a   9.20247014
_cell_length_b   9.19919225
_cell_length_c   22.13683932
_cell_angle_alpha   89.98268646
_cell_angle_beta   90.00000000
_cell_angle_gamma   120.01178779
_symmetry_Int_Tables_number   1
_chemical_formula_structural   Na12Ta2Zn4Si6(SO12)3
_chemical_formula_sum   'Na24 Ta4 Zn8 Si12 S6 O72'
_cell_volume   1622.73921560
_cell_formula_units_Z   2
loop_
 _symmetry_equiv_pos_site_id
 _symmetry_equiv_pos_as_xyz
  1  'x, y, z'
loop_
 _atom_site_type_symbol
 _atom_site_label
 _atom_site_symmetry_multiplicity
 _atom_site_fract_x
 _atom_site_fract_y
 _atom_site_fract_z
 _atom_site_occupancy
  Na  Na0  1  0.64793244  0.02169046  0.25317629  1
  Na  Na1  1  0.35170492  0.33904087  0.24964321  1
  Na  Na2  1  0.99340521  0.63242630  0.23885424  1
  Na  Na3  1  0.63902109  0.63242630  0.73885424  1
  Na  Na4  1  0.98733595  0.33904087  0.74964321  1
  Na  Na5  1  0.37375802  0.02169046  0.75317629  1
  Na  Na6  1  0.30242949  0.34599778  0.58627031  1
  Na  Na7  1  0.03627808  0.71018624  0.57804258  1
  Na  Na8  1  0.66598272  0.94372145  0.58272094  1
  Na  Na9  1  0.27773973  0.94372145  0.08272094  1
  Na  Na10  1  0.67390916  0.71018624  0.07804258  1
  Na  Na11  1  0.04356928  0.34599778  0.08627031  1
  Na  Na12  1  0.98547273  0.69739326  0.91505755  1
  Na  Na13  1  0.71361729  0.02381611  0.90855470  1
  Na  Na14  1  0.30666853  0.27989662  0.90888718  1
  Na  Na15  1  0.97322710  0.27989662  0.40888718  1
  Na  Na16  1  0.31019782  0.02381611  0.40855470  1
  Na  Na17  1  0.71191953  0.69739326  0.41505755  1
  Na  Na18  1  0.99170000  0.99286315  0.49339500  1
  Na  Na19  1  0.00116315  0.99286315  0.99339500  1
  Na  Na20  1  0.65442577  0.31966736  0.82443553  1
  Na  Na21  1  0.66524259  0.31966736  0.32443553  1
  Na  Na22  1  0.31314969  0.66419702  0.16249363  1
  Na  Na23  1  0.35104633  0.66419702  0.66249363  1
  Ta  Ta24  1  0.67469432  0.34389788  0.97597965  1
  Ta  Ta25  1  0.66920456  0.34389788  0.47597965  1
  Ta  Ta26  1  0.32543925  0.66509746  0.31772013  1
  Ta  Ta27  1  0.33965720  0.66509746  0.81772013  1
  Zn  Zn28  1  0.01768169  0.01737714  0.34966379  1
  Zn  Zn29  1  0.99969545  0.01737714  0.84966379  1
  Zn  Zn30  1  0.98044373  0.00024183  0.65852370  1
  Zn  Zn31  1  0.01979810  0.00024183  0.15852370  1
  Zn  Zn32  1  0.64735259  0.32859099  0.68558381  1
  Zn  Zn33  1  0.68123940  0.32859099  0.18558381  1
  Zn  Zn34  1  0.31961442  0.66753283  0.00750575  1
  Zn  Zn35  1  0.34791741  0.66753283  0.50750575  1
  Si  Si36  1  0.30214910  0.99955278  0.24967781  1
  Si  Si37  1  0.00303197  0.29388102  0.24946822  1
  Si  Si38  1  0.29084904  0.29388102  0.74946822  1
  Si  Si39  1  0.69740368  0.99955278  0.74967781  1
  Si  Si40  1  0.67007367  0.63266144  0.58728076  1
  Si  Si41  1  0.96258876  0.63266144  0.08728076  1
  Si  Si42  1  0.62723472  0.66975999  0.92246266  1
  Si  Si43  1  0.04174880  0.37315021  0.92047050  1
  Si  Si44  1  0.33250880  0.96290278  0.92012045  1
  Si  Si45  1  0.63039298  0.96290278  0.42012045  1
  Si  Si46  1  0.33140042  0.37315021  0.42047050  1
  Si  Si47  1  0.04252427  0.66975999  0.42246266  1
  S  S48  1  0.69713404  0.70410110  0.25055961  1
  S  S49  1  0.00696706  0.70410110  0.75055961  1
  S  S50  1  0.95444887  0.33397658  0.58384544  1
  S  S51  1  0.37586896  0.04220262  0.58281544  1
  S  S52  1  0.66633466  0.04220262  0.08281544  1
  S  S53  1  0.37952871  0.33397658  0.08384544  1
  O  O54  1  0.21951925  0.02989466  0.30921468  1
  O  O55  1  0.80013482  0.78240162  0.30487352  1
  O  O56  1  0.96784828  0.17866506  0.30870497  1
  O  O57  1  0.21081678  0.17866506  0.80870497  1
  O  O58  1  0.98226680  0.78240162  0.80487352  1
  O  O59  1  0.81037541  0.02989466  0.80921468  1
  O  O60  1  0.76036599  0.94363769  0.68944915  1
  O  O61  1  0.17538086  0.21655689  0.68826600  1
  O  O62  1  0.03508197  0.80679478  0.69512695  1
  O  O63  1  0.77171281  0.80679478  0.19512695  1
  O  O64  1  0.04117603  0.21655689  0.18826600  1
  O  O65  1  0.18327169  0.94363769  0.18944915  1
  O  O66  1  0.87077284  0.34537728  0.63882638  1
  O  O67  1  0.47490489  0.11747957  0.63838800  1
  O  O68  1  0.64775584  0.51595579  0.64505835  1
  O  O69  1  0.86820095  0.51595579  0.14505835  1
  O  O70  1  0.64257568  0.11747957  0.13838800  1
  O  O71  1  0.47460544  0.34537728  0.13882638  1
  O  O72  1  0.47259361  0.31890088  0.02874874  1
  O  O73  1  0.83415162  0.51865144  0.02689352  1
  O  O74  1  0.67682182  0.15038918  0.02861199  1
  O  O75  1  0.47356836  0.15038918  0.52861199  1
  O  O76  1  0.68450082  0.51865144  0.52689352  1
  O  O77  1  0.84630827  0.31890088  0.52874874  1
  O  O78  1  0.54442813  0.69868570  0.98147263  1
  O  O79  1  0.14954509  0.44795370  0.98085032  1
  O  O80  1  0.30214870  0.85814341  0.98135202  1
  O  O81  1  0.55599371  0.85814341  0.48135202  1
  O  O82  1  0.29840761  0.44795370  0.48085032  1
  O  O83  1  0.15425657  0.69868570  0.48147263  1
  O  O84  1  0.13610214  0.63368971  0.36292811  1
  O  O85  1  0.49849457  0.86341630  0.36196891  1
  O  O86  1  0.36992218  0.50264834  0.36145103  1
  O  O87  1  0.13272516  0.50264834  0.86145103  1
  O  O88  1  0.36492073  0.86341630  0.86196891  1
  O  O89  1  0.49758657  0.63368971  0.86292811  1
  O  O90  1  0.00295757  0.81849698  0.41084815  1
  O  O91  1  0.81513814  0.98855687  0.41032657  1
  O  O92  1  0.17852538  0.18422795  0.41371271  1
  O  O93  1  0.00570258  0.18422795  0.91371271  1
  O  O94  1  0.17341873  0.98855687  0.91032657  1
  O  O95  1  0.81553942  0.81849698  0.91084815  1
  O  O96  1  0.96922364  0.18089466  0.58104733  1
  O  O97  1  0.21323865  0.03724001  0.58232179  1
  O  O98  1  0.84723383  0.81360233  0.58380464  1
  O  O99  1  0.96636850  0.81360233  0.08380464  1
  O  O100  1  0.82400136  0.03724001  0.08232179  1
  O  O101  1  0.21167101  0.18089466  0.08104733  1
  O  O102  1  0.67570726  0.16569332  0.74296497  1
  O  O103  1  0.48497145  0.33186012  0.74824532  1
  O  O104  1  0.86432127  0.53183341  0.74582465  1
  O  O105  1  0.66751314  0.53183341  0.24582465  1
  O  O106  1  0.84688966  0.33186012  0.24824532  1
  O  O107  1  0.48998707  0.16569332  0.24296497  1
  O  O108  1  0.62933563  0.48654819  0.92424098  1
  O  O109  1  0.85218170  0.36327858  0.92319827  1
  O  O110  1  0.51155159  0.14967810  0.92398544  1
  O  O111  1  0.63812752  0.14967810  0.42398544  1
  O  O112  1  0.51109788  0.36327858  0.42319827  1
  O  O113  1  0.85721356  0.48654819  0.42424098  1
  O  O114  1  0.36714771  0.48795004  0.08007443  1
  O  O115  1  0.14664522  0.64687151  0.08248283  1
  O  O116  1  0.51851206  0.87153424  0.07888740  1
  O  O117  1  0.35302119  0.87153424  0.57888740  1
  O  O118  1  0.50022529  0.64687151  0.58248283  1
  O  O119  1  0.12080132  0.48795004  0.58007443  1
  O  O120  1  0.32511067  0.82772710  0.25870495  1
  O  O121  1  0.52628908  0.69267355  0.25592106  1
  O  O122  1  0.18170030  0.48626777  0.25801437  1
  O  O123  1  0.30456647  0.48626777  0.75801437  1
  O  O124  1  0.16638347  0.69267355  0.75592106  1
  O  O125  1  0.50261543  0.82772710  0.75870495  1
