# generated using pymatgen
data_NaY4PS5O24
_symmetry_space_group_name_H-M   'P 1'
_cell_length_a   9.23708212
_cell_length_b   9.23676482
_cell_length_c   24.05284694
_cell_angle_alpha   90.00747572
_cell_angle_beta   89.99973966
_cell_angle_gamma   119.91662348
_symmetry_Int_Tables_number   1
_chemical_formula_structural   NaY4PS5O24
_chemical_formula_sum   'Na3 Y12 P3 S15 O72'
_cell_volume   1778.75473094
_cell_formula_units_Z   3
loop_
 _symmetry_equiv_pos_site_id
 _symmetry_equiv_pos_as_xyz
  1  'x, y, z'
loop_
 _atom_site_type_symbol
 _atom_site_label
 _atom_site_symmetry_multiplicity
 _atom_site_fract_x
 _atom_site_fract_y
 _atom_site_fract_z
 _atom_site_occupancy
  Na  Na0  1  0.99934633  0.99473612  0.99791689  1
  Na  Na1  1  0.66149524  0.33252293  0.83693507  1
  Na  Na2  1  0.67088148  0.33256536  0.33102359  1
  Y  Y3  1  0.99825075  0.00591654  0.35253510  1
  Y  Y4  1  0.99962447  0.99337644  0.85541081  1
  Y  Y5  1  0.00035281  0.00037117  0.64667109  1
  Y  Y6  1  0.00177595  0.00763180  0.14908438  1
  Y  Y7  1  0.66616763  0.33331135  0.68598147  1
  Y  Y8  1  0.67344652  0.33353234  0.18481006  1
  Y  Y9  1  0.65985709  0.33333739  0.97882692  1
  Y  Y10  1  0.66708401  0.33333950  0.48179176  1
  Y  Y11  1  0.33937988  0.67432514  0.01818227  1
  Y  Y12  1  0.33328337  0.66700024  0.52110276  1
  Y  Y13  1  0.32752160  0.66053340  0.30916501  1
  Y  Y14  1  0.34136873  0.67307826  0.81612291  1
  P  P15  1  0.99747929  0.29078022  0.25052347  1
  P  P16  1  0.62549539  0.66658144  0.91677738  1
  P  P17  1  0.33395035  0.95919187  0.91672562  1
  S  S18  1  0.29260045  0.00149648  0.25047273  1
  S  S19  1  0.70876818  0.70755042  0.25041919  1
  S  S20  1  0.29150377  0.29259013  0.75020033  1
  S  S21  1  0.00067660  0.70720681  0.74990050  1
  S  S22  1  0.70846421  0.00036894  0.75006774  1
  S  S23  1  0.95855558  0.33322958  0.58344960  1
  S  S24  1  0.37469729  0.04166339  0.58340384  1
  S  S25  1  0.66698787  0.62547131  0.58341545  1
  S  S26  1  0.96012146  0.62706013  0.08278740  1
  S  S27  1  0.66724972  0.04091622  0.08280054  1
  S  S28  1  0.37357475  0.33373154  0.08333962  1
  S  S29  1  0.04125443  0.37477743  0.91667201  1
  S  S30  1  0.62376026  0.95758817  0.41627540  1
  S  S31  1  0.33413678  0.37556225  0.41646283  1
  S  S32  1  0.04169720  0.66720129  0.41635125  1
  O  O33  1  0.21358326  0.02655519  0.30057137  1
  O  O34  1  0.81378690  0.78499763  0.30048283  1
  O  O35  1  0.97086746  0.18064919  0.30247684  1
  O  O36  1  0.21420009  0.18647186  0.79950997  1
  O  O37  1  0.97108815  0.78430367  0.79921441  1
  O  O38  1  0.81394038  0.02896367  0.79947627  1
  O  O39  1  0.78951419  0.97875389  0.69948845  1
  O  O40  1  0.18942192  0.21071421  0.69951489  1
  O  O41  1  0.02170015  0.81027402  0.69953306  1
  O  O42  1  0.78688639  0.80911627  0.20037614  1
  O  O43  1  0.02332397  0.20847659  0.19879269  1
  O  O44  1  0.18995629  0.97569510  0.20045577  1
  O  O45  1  0.87915712  0.35991095  0.63296684  1
  O  O46  1  0.48065180  0.12080726  0.63293733  1
  O  O47  1  0.64034820  0.51944781  0.63293454  1
  O  O48  1  0.87886953  0.52400844  0.13327448  1
  O  O49  1  0.64420810  0.12075138  0.13325136  1
  O  O50  1  0.47645507  0.35518071  0.13357093  1
  O  O51  1  0.45199097  0.30544986  0.03379455  1
  O  O52  1  0.85338924  0.54711455  0.03346923  1
  O  O53  1  0.69495237  0.14713063  0.03345689  1
  O  O54  1  0.45416220  0.14718980  0.53348531  1
  O  O55  1  0.69292675  0.54576118  0.53348695  1
  O  O56  1  0.85296178  0.30713225  0.53351345  1
  O  O57  1  0.54354583  0.69096022  0.96891458  1
  O  O58  1  0.14272564  0.45125581  0.96687640  1
  O  O59  1  0.30645338  0.85150603  0.96877629  1
  O  O60  1  0.54421940  0.85583963  0.46685895  1
  O  O61  1  0.31112352  0.45507881  0.46683273  1
  O  O62  1  0.14374608  0.68885137  0.46680603  1
  O  O63  1  0.11965152  0.63921465  0.36687862  1
  O  O64  1  0.51917568  0.88017231  0.36667684  1
  O  O65  1  0.36201006  0.48086225  0.36692908  1
  O  O66  1  0.11787167  0.47598192  0.86622490  1
  O  O67  1  0.35755246  0.87723691  0.86417504  1
  O  O68  1  0.51854903  0.63965732  0.86431033  1
  O  O69  1  0.02266607  0.81416680  0.40875383  1
  O  O70  1  0.78991319  0.97562503  0.40957054  1
  O  O71  1  0.18732099  0.20922365  0.40928513  1
  O  O72  1  0.02259187  0.20599130  0.91010662  1
  O  O73  1  0.17787325  0.98040928  0.91038241  1
  O  O74  1  0.80092077  0.82443425  0.91027697  1
  O  O75  1  0.97603762  0.18474841  0.59152133  1
  O  O76  1  0.20877811  0.02415954  0.59149926  1
  O  O77  1  0.81525098  0.79120031  0.59156266  1
  O  O78  1  0.97669530  0.79531541  0.09031046  1
  O  O79  1  0.81803711  0.02250593  0.08980311  1
  O  O80  1  0.20531754  0.18067124  0.08969885  1
  O  O81  1  0.69043354  0.15221124  0.74251342  1
  O  O82  1  0.46122718  0.30962295  0.74257563  1
  O  O83  1  0.84778154  0.53820944  0.74247458  1
  O  O84  1  0.68879955  0.53776840  0.24397600  1
  O  O85  1  0.84025239  0.31043071  0.24418491  1
  O  O86  1  0.46094981  0.15250611  0.24387490  1
  O  O87  1  0.64710984  0.51077836  0.92259161  1
  O  O88  1  0.87239524  0.35593094  0.92293861  1
  O  O89  1  0.49157873  0.13468743  0.92276068  1
  O  O90  1  0.64301274  0.12796767  0.42364927  1
  O  O91  1  0.48558489  0.35703627  0.42367548  1
  O  O92  1  0.87206448  0.51508114  0.42363377  1
  O  O93  1  0.35462156  0.47996587  0.07578060  1
  O  O94  1  0.12437024  0.64267992  0.07590726  1
  O  O95  1  0.51951532  0.87597175  0.07652836  1
  O  O96  1  0.35756651  0.87574244  0.57487095  1
  O  O97  1  0.51820215  0.64261387  0.57483608  1
  O  O98  1  0.12430323  0.48178506  0.57484534  1
  O  O99  1  0.31168514  0.85394929  0.25842021  1
  O  O100  1  0.54343324  0.69117701  0.25847831  1
  O  O101  1  0.15212058  0.46309450  0.25928397  1
  O  O102  1  0.30931298  0.45748134  0.75686147  1
  O  O103  1  0.14662006  0.68801392  0.75704555  1
  O  O104  1  0.54321430  0.85349031  0.75628853  1
