# generated using pymatgen
data_Ba2SmMgSbO6
_symmetry_space_group_name_H-M   'P 1'
_cell_length_a   6.25628007
_cell_length_b   7.15533770
_cell_length_c   7.36286317
_cell_angle_alpha   65.92334346
_cell_angle_beta   64.85859094
_cell_angle_gamma   64.07618293
_symmetry_Int_Tables_number   1
_chemical_formula_structural   Ba2SmMgSbO6
_chemical_formula_sum   'Ba2 Sm1 Mg1 Sb1 O6'
_cell_volume   258.16497228
_cell_formula_units_Z   1
loop_
 _symmetry_equiv_pos_site_id
 _symmetry_equiv_pos_as_xyz
  1  'x, y, z'
loop_
 _atom_site_type_symbol
 _atom_site_label
 _atom_site_symmetry_multiplicity
 _atom_site_fract_x
 _atom_site_fract_y
 _atom_site_fract_z
 _atom_site_occupancy
  Ba  Ba0  1  0.61232007  0.04263189  0.73272798  1
  Ba  Ba1  1  0.25294757  0.23384708  0.26025777  1
  Sm  Sm2  1  0.08671981  0.87401222  0.95254816  1
  Mg  Mg3  1  0.81603628  0.32208105  0.04584640  1
  Sb  Sb4  1  0.54759974  0.63119489  0.27360564  1
  O  O5  1  0.20394876  0.96844723  0.62365525  1
  O  O6  1  0.44341951  0.61017209  0.06422029  1
  O  O7  1  0.69943855  0.13057502  1.00054450  1
  O  O8  1  0.16944193  0.13057502  1.00054450  1
  O  O9  1  0.66093968  0.31087443  0.36724621  1
  O  O10  1  0.88218811  0.61017209  0.06422029  1
