# generated using pymatgen
data_Dy2MgV2O8
_symmetry_space_group_name_H-M   'P 1'
_cell_length_a   6.01751607
_cell_length_b   6.21354058
_cell_length_c   6.21354010
_cell_angle_alpha   108.95968202
_cell_angle_beta   105.01339964
_cell_angle_gamma   115.97915885
_symmetry_Int_Tables_number   1
_chemical_formula_structural   Dy2MgV2O8
_chemical_formula_sum   'Dy2 Mg1 V2 O8'
_cell_volume   174.12206594
_cell_formula_units_Z   1
loop_
 _symmetry_equiv_pos_site_id
 _symmetry_equiv_pos_as_xyz
  1  'x, y, z'
loop_
 _atom_site_type_symbol
 _atom_site_label
 _atom_site_symmetry_multiplicity
 _atom_site_fract_x
 _atom_site_fract_y
 _atom_site_fract_z
 _atom_site_occupancy
  Dy  Dy0  1  0.85568900  0.15399200  0.73449600  1
  Dy  Dy1  1  0.14431100  0.87880800  0.29830400  1
  Mg  Mg2  1  0.00000000  0.74018700  0.74018700  1
  V  V3  1  0.59646100  0.35314000  0.20868800  1
  V  V4  1  0.40353800  0.61222700  0.75667900  1
  O  O5  1  0.79395100  0.73876100  0.43708100  1
  O  O6  1  0.84052400  0.38570400  0.09220600  1
  O  O7  1  0.23052500  0.15897700  0.00232500  1
  O  O8  1  0.20605000  0.64312900  0.94481000  1
  O  O9  1  0.15947500  0.25168300  0.54517900  1
  O  O10  1  0.62924600  0.24866400  0.46300600  1
  O  O11  1  0.76947600  0.77180100  0.92845200  1
  O  O12  1  0.37075300  0.83375900  0.61941700  1
