# generated using pymatgen
data_Rb3BiO3
_symmetry_space_group_name_H-M   'P 1'
_cell_length_a   8.78894048
_cell_length_b   8.78894048
_cell_length_c   8.78894048
_cell_angle_alpha   90.00000000
_cell_angle_beta   90.00000000
_cell_angle_gamma   90.00000000
_symmetry_Int_Tables_number   1
_chemical_formula_structural   Rb3BiO3
_chemical_formula_sum   'Rb12 Bi4 O12'
_cell_volume   678.90588002
_cell_formula_units_Z   4
loop_
 _symmetry_equiv_pos_site_id
 _symmetry_equiv_pos_as_xyz
  1  'x, y, z'
loop_
 _atom_site_type_symbol
 _atom_site_label
 _atom_site_symmetry_multiplicity
 _atom_site_fract_x
 _atom_site_fract_y
 _atom_site_fract_z
 _atom_site_occupancy
  Rb  Rb0  1  0.28654037  0.28654037  0.28654037  1
  Rb  Rb1  1  0.21345963  0.71345963  0.78654037  1
  Rb  Rb2  1  0.78654037  0.21345963  0.71345963  1
  Rb  Rb3  1  0.71345963  0.78654037  0.21345963  1
  Rb  Rb4  1  0.70856525  0.20856525  0.29143475  1
  Rb  Rb5  1  0.79143475  0.79143475  0.79143475  1
  Rb  Rb6  1  0.97517106  0.52482894  0.47517106  1
  Rb  Rb7  1  0.52482894  0.47517106  0.97517106  1
  Rb  Rb8  1  0.47517106  0.97517106  0.52482894  1
  Rb  Rb9  1  0.02482894  0.02482894  0.02482894  1
  Rb  Rb10  1  0.20856525  0.29143475  0.70856525  1
  Rb  Rb11  1  0.29143475  0.70856525  0.20856525  1
  Bi  Bi12  1  0.48332624  0.01667376  0.98332624  1
  Bi  Bi13  1  0.01667376  0.98332624  0.48332624  1
  Bi  Bi14  1  0.98332624  0.48332624  0.01667376  1
  Bi  Bi15  1  0.51667376  0.51667376  0.51667376  1
  O  O16  1  0.43933120  0.00459799  0.21501111  1
  O  O17  1  0.93933120  0.49540201  0.78498889  1
  O  O18  1  0.56066880  0.50459799  0.28498889  1
  O  O19  1  0.49540201  0.78498889  0.93933120  1
  O  O20  1  0.00459799  0.21501111  0.43933120  1
  O  O21  1  0.21501111  0.43933120  0.00459799  1
  O  O22  1  0.50459799  0.28498889  0.56066880  1
  O  O23  1  0.99540201  0.71501111  0.06066880  1
  O  O24  1  0.71501111  0.06066880  0.99540201  1
  O  O25  1  0.06066880  0.99540201  0.71501111  1
  O  O26  1  0.28498889  0.56066880  0.50459799  1
  O  O27  1  0.78498889  0.93933120  0.49540201  1
