# generated using pymatgen
data_Sr8MgMn6O20
_symmetry_space_group_name_H-M   'P 1'
_cell_length_a   5.77656483
_cell_length_b   7.05123588
_cell_length_c   13.49761313
_cell_angle_alpha   90.75164572
_cell_angle_beta   92.43290571
_cell_angle_gamma   116.81405764
_symmetry_Int_Tables_number   1
_chemical_formula_structural   Sr8MgMn6O20
_chemical_formula_sum   'Sr8 Mg1 Mn6 O20'
_cell_volume   489.90494631
_cell_formula_units_Z   1
loop_
 _symmetry_equiv_pos_site_id
 _symmetry_equiv_pos_as_xyz
  1  'x, y, z'
loop_
 _atom_site_type_symbol
 _atom_site_label
 _atom_site_symmetry_multiplicity
 _atom_site_fract_x
 _atom_site_fract_y
 _atom_site_fract_z
 _atom_site_occupancy
  Sr  Sr0  1  0.30155000  0.48293000  0.10825200  1
  Sr  Sr1  1  0.76714700  0.52394000  0.90070500  1
  Sr  Sr2  1  0.65499800  0.46803000  0.46013500  1
  Sr  Sr3  1  0.19273000  0.51074700  0.65509300  1
  Sr  Sr4  1  0.90660600  0.92252200  0.64078900  1
  Sr  Sr5  1  0.98459400  0.20250500  0.39330400  1
  Sr  Sr6  1  0.58007400  0.09164400  0.12300000  1
  Sr  Sr7  1  0.47563500  0.93511700  0.86160900  1
  Mg  Mg8  1  0.12204400  0.85773400  0.33514800  1
  Mn  Mn9  1  0.55998600  0.23761600  0.66217900  1
  Mn  Mn10  1  0.48053700  0.74631000  0.33064100  1
  Mn  Mn11  1  0.94855400  0.76720700  0.14124200  1
  Mn  Mn12  1  0.11065600  0.25570800  0.84672300  1
  Mn  Mn13  1  0.43968800  0.95644500  0.50476500  1
  Mn  Mn14  1  0.03048000  0.00982700  0.99326400  1
  O  O15  1  0.27020100  0.21671200  0.73271700  1
  O  O16  1  0.24509100  0.76243200  0.21769800  1
  O  O17  1  0.82432200  0.85338300  0.26467500  1
  O  O18  1  0.82335100  0.25409100  0.77088600  1
  O  O19  1  0.12934300  0.70347400  0.45535700  1
  O  O20  1  0.26332200  0.13255100  0.51367100  1
  O  O21  1  0.35743700  0.21321400  0.94611600  1
  O  O22  1  0.14029000  0.79096600  0.01816400  1
  O  O23  1  0.77119600  0.20802900  0.55167700  1
  O  O24  1  0.63802500  0.80496000  0.47295800  1
  O  O25  1  0.70456300  0.80589300  0.04603100  1
  O  O26  1  0.91829300  0.22694700  0.97056400  1
  O  O27  1  0.69298000  0.53215200  0.64543900  1
  O  O28  1  0.36256000  0.45906100  0.31774900  1
  O  O29  1  0.13849500  0.08910500  0.12884400  1
  O  O30  1  0.92335700  0.92570300  0.85472800  1
  O  O31  1  0.40570600  0.90819900  0.64730300  1
  O  O32  1  0.75644900  0.47723400  0.13356500  1
  O  O33  1  0.28946900  0.55179200  0.84413100  1
  O  O34  1  0.50455400  0.04174500  0.36504800  1
