# generated using pymatgen
data_MgMn4O6
_symmetry_space_group_name_H-M   'P 1'
_cell_length_a   5.19498635
_cell_length_b   5.86704193
_cell_length_c   5.32035696
_cell_angle_alpha   112.63973140
_cell_angle_beta   62.75624025
_cell_angle_gamma   116.86713965
_symmetry_Int_Tables_number   1
_chemical_formula_structural   MgMn4O6
_chemical_formula_sum   'Mg1 Mn4 O6'
_cell_volume   125.32597244
_cell_formula_units_Z   1
loop_
 _symmetry_equiv_pos_site_id
 _symmetry_equiv_pos_as_xyz
  1  'x, y, z'
loop_
 _atom_site_type_symbol
 _atom_site_label
 _atom_site_symmetry_multiplicity
 _atom_site_fract_x
 _atom_site_fract_y
 _atom_site_fract_z
 _atom_site_occupancy
  Mg  Mg0  1  0.49998200  0.49997100  0.49999600  1
  Mn  Mn1  1  0.11364700  0.38373800  0.13053400  1
  Mn  Mn2  1  0.66636100  0.02753200  0.68471600  1
  Mn  Mn3  1  0.33375200  0.97257700  0.31525800  1
  Mn  Mn4  1  0.88636900  0.61625600  0.86946100  1
  O  O5  1  0.31158400  0.76641200  0.54689900  1
  O  O6  1  0.05789100  0.27385300  0.73148100  1
  O  O7  1  0.42255700  0.24276300  0.11606200  1
  O  O8  1  0.57740500  0.75718700  0.88394000  1
  O  O9  1  0.94204400  0.72615800  0.26856400  1
  O  O10  1  0.68840900  0.23355300  0.45308900  1
