# generated using pymatgen
data_RbBiF6
_symmetry_space_group_name_H-M   'P 1'
_cell_length_a   5.13508654
_cell_length_b   5.13508658
_cell_length_c   5.13508663
_cell_angle_alpha   96.82410194
_cell_angle_beta   96.82410419
_cell_angle_gamma   96.82411479
_symmetry_Int_Tables_number   1
_chemical_formula_structural   RbBiF6
_chemical_formula_sum   'Rb1 Bi1 F6'
_cell_volume   132.27667447
_cell_formula_units_Z   1
loop_
 _symmetry_equiv_pos_site_id
 _symmetry_equiv_pos_as_xyz
  1  'x, y, z'
loop_
 _atom_site_type_symbol
 _atom_site_label
 _atom_site_symmetry_multiplicity
 _atom_site_fract_x
 _atom_site_fract_y
 _atom_site_fract_z
 _atom_site_occupancy
  Rb  Rb0  1  0.50000000  0.50000000  0.50000000  1
  Bi  Bi1  1  0.00000000  -0.00000000  0.00000000  1
  F  F2  1  0.20822993  0.92507423  0.33684890  1
  F  F3  1  0.92507423  0.33684890  0.20822993  1
  F  F4  1  0.66315110  0.79177007  0.07492577  1
  F  F5  1  0.07492577  0.66315110  0.79177007  1
  F  F6  1  0.79177007  0.07492577  0.66315110  1
  F  F7  1  0.33684890  0.20822993  0.92507423  1
