# generated using pymatgen
data_Na10TaIn7Si6(SO8)6
_symmetry_space_group_name_H-M   'P 1'
_cell_length_a   18.19831810
_cell_length_b   9.15455816
_cell_length_c   22.96128837
_cell_angle_alpha   89.84680329
_cell_angle_beta   89.55275760
_cell_angle_gamma   119.93001012
_symmetry_Int_Tables_number   1
_chemical_formula_structural   Na10TaIn7Si6(SO8)6
_chemical_formula_sum   'Na30 Ta3 In21 Si18 S18 O144'
_cell_volume   3314.94005616
_cell_formula_units_Z   3
loop_
 _symmetry_equiv_pos_site_id
 _symmetry_equiv_pos_as_xyz
  1  'x, y, z'
loop_
 _atom_site_type_symbol
 _atom_site_label
 _atom_site_symmetry_multiplicity
 _atom_site_fract_x
 _atom_site_fract_y
 _atom_site_fract_z
 _atom_site_occupancy
  Na  Na0  1  0.31915261  0.00573572  0.24930264  1
  Na  Na1  1  0.82160099  0.00420884  0.25154767  1
  Na  Na2  1  0.18611299  0.36503347  0.25034065  1
  Na  Na3  1  0.68673271  0.37570243  0.23966414  1
  Na  Na4  1  0.99615948  0.62712548  0.24479538  1
  Na  Na5  1  0.49458483  0.61508196  0.25213587  1
  Na  Na6  1  0.31111860  0.62103384  0.74978594  1
  Na  Na7  1  0.80696054  0.61867400  0.74948603  1
  Na  Na8  1  0.99488208  0.35046970  0.74832682  1
  Na  Na9  1  0.68694902  0.01163544  0.75494900  1
  Na  Na10  1  0.16278420  0.34907623  0.58273197  1
  Na  Na11  1  0.01220139  0.69117043  0.58294258  1
  Na  Na12  1  0.32949032  0.96380616  0.58663962  1
  Na  Na13  1  0.83121556  0.96815640  0.57971789  1
  Na  Na14  1  0.83088184  0.68077547  0.07527691  1
  Na  Na15  1  0.16971532  0.30825112  0.90879265  1
  Na  Na16  1  0.67190725  0.31002638  0.91654368  1
  Na  Na17  1  0.35723384  0.66606074  0.41709112  1
  Na  Na18  1  0.99879925  0.99519809  0.49424003  1
  Na  Na19  1  0.50881974  0.98359793  0.49896569  1
  Na  Na20  1  0.98993977  0.97277628  0.99623687  1
  Na  Na21  1  0.49232049  0.96779306  0.99861407  1
  Na  Na22  1  0.33193303  0.33180328  0.83458083  1
  Na  Na23  1  0.82964057  0.33296173  0.83696942  1
  Na  Na24  1  0.34336902  0.33815818  0.33233143  1
  Na  Na25  1  0.83989031  0.34480459  0.33197198  1
  Na  Na26  1  0.15877347  0.66274912  0.16450246  1
  Na  Na27  1  0.65155428  0.63863922  0.15920900  1
  Na  Na28  1  0.16808027  0.66950193  0.66282843  1
  Na  Na29  1  0.66200054  0.63108842  0.66843304  1
  Ta  Ta30  1  0.00015273  0.00910848  0.64652206  1
  Ta  Ta31  1  0.99937744  0.99176415  0.15185977  1
  Ta  Ta32  1  0.49662881  0.00150658  0.14483127  1
  In  In33  1  0.99912840  0.00130244  0.34544986  1
  In  In34  1  0.49995649  0.99152845  0.35129971  1
  In  In35  1  0.99217158  0.99778967  0.85078867  1
  In  In36  1  0.49685700  0.99293740  0.85177283  1
  In  In37  1  0.50255020  0.00151685  0.64973375  1
  In  In38  1  0.32288264  0.32528901  0.68080789  1
  In  In39  1  0.82759876  0.33647770  0.68148509  1
  In  In40  1  0.34042142  0.34319352  0.18435500  1
  In  In41  1  0.84261193  0.35540278  0.17781314  1
  In  In42  1  0.34197772  0.36188887  0.98532478  1
  In  In43  1  0.83491018  0.35590303  0.98820973  1
  In  In44  1  0.33701144  0.34832329  0.48540665  1
  In  In45  1  0.83882060  0.34444983  0.48631642  1
  In  In46  1  0.17017417  0.67378675  0.01700232  1
  In  In47  1  0.66510601  0.65930484  0.01936193  1
  In  In48  1  0.16580848  0.66420081  0.51910540  1
  In  In49  1  0.66302245  0.65984407  0.51422570  1
  In  In50  1  0.16384616  0.66496236  0.30938001  1
  In  In51  1  0.66135221  0.65091490  0.31646342  1
  In  In52  1  0.16824694  0.66235106  0.81810518  1
  In  In53  1  0.67139862  0.66055978  0.81551102  1
  Si  Si54  1  0.14791485  0.00534341  0.25094814  1
  Si  Si55  1  0.35393486  0.70798670  0.25159813  1
  Si  Si56  1  0.85109776  0.70282629  0.25332735  1
  Si  Si57  1  0.99540131  0.28765380  0.24889337  1
  Si  Si58  1  0.50096921  0.28591776  0.25179632  1
  Si  Si59  1  0.14608573  0.29153842  0.75374587  1
  Si  Si60  1  0.64376168  0.28970099  0.75144639  1
  Si  Si61  1  0.85093500  0.00433315  0.74808080  1
  Si  Si62  1  0.97771938  0.33137991  0.58495629  1
  Si  Si63  1  0.18699896  0.03966370  0.58203057  1
  Si  Si64  1  0.33883198  0.64476677  0.58392673  1
  Si  Si65  1  0.83073111  0.63270936  0.58488189  1
  Si  Si66  1  0.48644590  0.63732240  0.08640492  1
  Si  Si67  1  0.99161235  0.64533500  0.08495330  1
  Si  Si68  1  0.68287892  0.32822874  0.08450169  1
  Si  Si69  1  0.31636537  0.66730241  0.91550132  1
  Si  Si70  1  0.81855397  0.66883188  0.91780271  1
  Si  Si71  1  0.51775422  0.66664653  0.41556083  1
  S  S72  1  0.64600707  0.00123841  0.24665434  1
  S  S73  1  0.00327703  0.71135964  0.74905427  1
  S  S74  1  0.49898790  0.69788402  0.75000745  1
  S  S75  1  0.34959719  0.00263457  0.74956549  1
  S  S76  1  0.48110356  0.33368097  0.58515231  1
  S  S77  1  0.68359872  0.03341060  0.58165330  1
  S  S78  1  0.33450241  0.03914228  0.08415365  1
  S  S79  1  0.83778731  0.04135837  0.08508809  1
  S  S80  1  0.18079620  0.32546291  0.08402111  1
  S  S81  1  0.01626960  0.37065079  0.91713625  1
  S  S82  1  0.51667484  0.36955559  0.91565603  1
  S  S83  1  0.16824695  0.96725271  0.91660328  1
  S  S84  1  0.66824519  0.96293215  0.91532852  1
  S  S85  1  0.31264611  0.96330810  0.41671020  1
  S  S86  1  0.81822405  0.97205260  0.41666880  1
  S  S87  1  0.16353802  0.36727065  0.41604274  1
  S  S88  1  0.67035303  0.36318266  0.41690545  1
  S  S89  1  0.01737696  0.66785187  0.41647460  1
  O  O90  1  0.11334419  0.05575969  0.30797354  1
  O  O91  1  0.61246743  0.03374766  0.30120597  1
  O  O92  1  0.40750251  0.77310165  0.31139455  1
  O  O93  1  0.91483919  0.77781480  0.30753931  1
  O  O94  1  0.48791345  0.17407169  0.30962320  1
  O  O95  1  0.97343308  0.17339765  0.30721357  1
  O  O96  1  0.10489535  0.18753550  0.81357347  1
  O  O97  1  0.60405989  0.17161670  0.81043711  1
  O  O98  1  0.47944779  0.77254456  0.80108989  1
  O  O99  1  0.99151812  0.79096046  0.80115138  1
  O  O100  1  0.40081606  0.01797142  0.80117421  1
  O  O101  1  0.91261470  0.04652344  0.80296633  1
  O  O102  1  0.38596829  0.97140975  0.69542813  1
  O  O103  1  0.90252822  0.97608772  0.69166642  1
  O  O104  1  0.08510220  0.18317987  0.69674528  1
  O  O105  1  0.58913067  0.19775563  0.69386967  1
  O  O106  1  0.01171552  0.81123981  0.69473031  1
  O  O107  1  0.51334011  0.80191575  0.69678754  1
  O  O108  1  0.40744176  0.83935863  0.19720607  1
  O  O109  1  0.90121266  0.82669633  0.19399514  1
  O  O110  1  0.00925842  0.18498224  0.19349154  1
  O  O111  1  0.51105080  0.18503049  0.19502654  1
  O  O112  1  0.08128065  0.97440541  0.19552390  1
  O  O113  1  0.58965486  0.97918876  0.19644083  1
  O  O114  1  0.44113876  0.35596361  0.63828103  1
  O  O115  1  0.94109859  0.37412888  0.64309164  1
  O  O116  1  0.25085943  0.10477003  0.63739082  1
  O  O117  1  0.73312131  0.10689115  0.63583074  1
  O  O118  1  0.32014985  0.52886139  0.64298298  1
  O  O119  1  0.81400141  0.53056822  0.64609313  1
  O  O120  1  0.44941130  0.52702491  0.14636520  1
  O  O121  1  0.95756293  0.54711971  0.14731294  1
  O  O122  1  0.32317871  0.11366698  0.13835726  1
  O  O123  1  0.82647170  0.11541231  0.13954174  1
  O  O124  1  0.23205463  0.34465139  0.13644045  1
  O  O125  1  0.74008508  0.35593577  0.14255699  1
  O  O126  1  0.21753221  0.29517712  0.03046093  1
  O  O127  1  0.71715701  0.28541180  0.02469954  1
  O  O128  1  0.42681494  0.56400931  0.02964491  1
  O  O129  1  0.92400446  0.56380013  0.03226523  1
  O  O130  1  0.34572158  0.14380292  0.03204402  1
  O  O131  1  0.85050161  0.14785939  0.03341006  1
  O  O132  1  0.22494308  0.17046316  0.52715877  1
  O  O133  1  0.72554986  0.13979927  0.52993736  1
  O  O134  1  0.35125805  0.56684222  0.52366274  1
  O  O135  1  0.85936223  0.55777165  0.53038944  1
  O  O136  1  0.42858170  0.30575760  0.53258138  1
  O  O137  1  0.91315963  0.26905542  0.53042936  1
  O  O138  1  0.26857002  0.69030798  0.97162643  1
  O  O139  1  0.77336734  0.68969455  0.97687842  1
  O  O140  1  0.07175696  0.46249801  0.96640931  1
  O  O141  1  0.56740900  0.44986292  0.96777519  1
  O  O142  1  0.15434878  0.86199285  0.96886590  1
  O  O143  1  0.65717909  0.85486066  0.96602457  1
  O  O144  1  0.27031634  0.85621928  0.46948532  1
  O  O145  1  0.77706059  0.87242649  0.47073740  1
  O  O146  1  0.15557395  0.44930749  0.47001748  1
  O  O147  1  0.66106123  0.44913681  0.46877030  1
  O  O148  1  0.06529762  0.67901532  0.47016626  1
  O  O149  1  0.57582386  0.69075206  0.47213862  1
  O  O150  1  0.06043143  0.65354886  0.36314490  1
  O  O151  1  0.55854037  0.64870096  0.35329479  1
  O  O152  1  0.26326033  0.88082046  0.36316062  1
  O  O153  1  0.76892652  0.88660250  0.36353836  1
  O  O154  1  0.17294641  0.47264199  0.36330581  1
  O  O155  1  0.68438259  0.46407857  0.36225439  1
  O  O156  1  0.05067835  0.46788383  0.86086592  1
  O  O157  1  0.55427801  0.47458955  0.86241821  1
  O  O158  1  0.17635352  0.88469726  0.86262660  1
  O  O159  1  0.67158312  0.88271649  0.85913403  1
  O  O160  1  0.26202324  0.63135363  0.85407181  1
  O  O161  1  0.76256008  0.63627551  0.85822238  1
  O  O162  1  0.00971275  0.82182851  0.41503612  1
  O  O163  1  0.50448182  0.83384650  0.41575446  1
  O  O164  1  0.39670540  0.97391537  0.41498733  1
  O  O165  1  0.90433443  0.98910480  0.41500734  1
  O  O166  1  0.08680876  0.19849082  0.41416810  1
  O  O167  1  0.59326682  0.19648523  0.41368964  1
  O  O168  1  0.01745743  0.20877540  0.91466256  1
  O  O169  1  0.51551149  0.20519508  0.91102293  1
  O  O170  1  0.09448566  0.99571164  0.91324483  1
  O  O171  1  0.59350387  0.99110875  0.91515593  1
  O  O172  1  0.41119642  0.83519145  0.91256587  1
  O  O173  1  0.91364199  0.83535886  0.91478700  1
  O  O174  1  0.48710816  0.17715348  0.58894463  1
  O  O175  1  0.99165870  0.16452511  0.59435976  1
  O  O176  1  0.09250743  0.02244127  0.59540417  1
  O  O177  1  0.59753343  0.01200307  0.58533135  1
  O  O178  1  0.41807866  0.83950916  0.58941906  1
  O  O179  1  0.92034863  0.82195601  0.59428700  1
  O  O180  1  0.49086113  0.82307704  0.09709460  1
  O  O181  1  0.99266360  0.83149158  0.09217743  1
  O  O182  1  0.41432733  0.02609982  0.08875818  1
  O  O183  1  0.91595986  0.02179314  0.08953564  1
  O  O184  1  0.09406359  0.17112170  0.09117594  1
  O  O185  1  0.58737681  0.16338693  0.09551472  1
  O  O186  1  0.34409757  0.15795692  0.74573083  1
  O  O187  1  0.84259300  0.17242002  0.74048334  1
  O  O188  1  0.24393419  0.32902349  0.74865928  1
  O  O189  1  0.74016153  0.31147766  0.74893857  1
  O  O190  1  0.42448123  0.52591430  0.74420195  1
  O  O191  1  0.92708749  0.54121269  0.74583771  1
  O  O192  1  0.33767783  0.51696259  0.24471320  1
  O  O193  1  0.83424073  0.51149117  0.24631045  1
  O  O194  1  0.41570316  0.30186745  0.24748485  1
  O  O195  1  0.91032335  0.30413277  0.24186827  1
  O  O196  1  0.24089448  0.16444147  0.23820017  1
  O  O197  1  0.73208348  0.14809489  0.23919253  1
  O  O198  1  0.31643614  0.48552420  0.91917231  1
  O  O199  1  0.82053476  0.48894437  0.91897180  1
  O  O200  1  0.42826512  0.33711453  0.92068658  1
  O  O201  1  0.92920730  0.34005577  0.92372928  1
  O  O202  1  0.24665847  0.13548507  0.92131990  1
  O  O203  1  0.74658144  0.13028353  0.91822768  1
  O  O204  1  0.32031729  0.13075780  0.42182710  1
  O  O205  1  0.82429584  0.14068548  0.41919924  1
  O  O206  1  0.24278003  0.35863808  0.41754219  1
  O  O207  1  0.74717860  0.34386027  0.42197670  1
  O  O208  1  0.42087917  0.49750062  0.41846220  1
  O  O209  1  0.93246411  0.51155650  0.41801825  1
  O  O210  1  0.17097619  0.47534529  0.07938206  1
  O  O211  1  0.68063248  0.50446954  0.08163026  1
  O  O212  1  0.08586290  0.67081795  0.07677883  1
  O  O213  1  0.58268200  0.67243288  0.07851146  1
  O  O214  1  0.26205327  0.86703185  0.08033524  1
  O  O215  1  0.76486397  0.86886957  0.08080300  1
  O  O216  1  0.16592027  0.84572025  0.57456679  1
  O  O217  1  0.67876970  0.86654797  0.57725362  1
  O  O218  1  0.25109613  0.65851555  0.58037297  1
  O  O219  1  0.75346358  0.67355488  0.57461185  1
  O  O220  1  0.07279563  0.49034365  0.57645572  1
  O  O221  1  0.56726966  0.48312397  0.58006905  1
  O  O222  1  0.14868389  0.82787577  0.25201141  1
  O  O223  1  0.65159502  0.84518154  0.24983758  1
  O  O224  1  0.26254059  0.70399094  0.25178978  1
  O  O225  1  0.76210986  0.70780851  0.25624846  1
  O  O226  1  0.08280965  0.47132461  0.25051617  1
  O  O227  1  0.58761349  0.47275107  0.25009575  1
  O  O228  1  0.14711240  0.47567371  0.75055926  1
  O  O229  1  0.65549208  0.47909812  0.75294019  1
  O  O230  1  0.08033584  0.69412912  0.75218353  1
  O  O231  1  0.57898547  0.69420141  0.75781340  1
  O  O232  1  0.26341704  0.84797097  0.75416458  1
  O  O233  1  0.75708832  0.83487219  0.74946261  1
