# generated using pymatgen
data_Na14Al8Si7S5O48
_symmetry_space_group_name_H-M   'P 1'
_cell_length_a   17.50653432
_cell_length_b   8.74883696
_cell_length_c   21.57747206
_cell_angle_alpha   89.72649986
_cell_angle_beta   89.65765180
_cell_angle_gamma   120.00134979
_symmetry_Int_Tables_number   1
_chemical_formula_structural   Na14Al8Si7S5O48
_chemical_formula_sum   'Na42 Al24 Si21 S15 O144'
_cell_volume   2861.87457222
_cell_formula_units_Z   3
loop_
 _symmetry_equiv_pos_site_id
 _symmetry_equiv_pos_as_xyz
  1  'x, y, z'
loop_
 _atom_site_type_symbol
 _atom_site_label
 _atom_site_symmetry_multiplicity
 _atom_site_fract_x
 _atom_site_fract_y
 _atom_site_fract_z
 _atom_site_occupancy
  Na  Na0  1  0.81333929  0.99223970  0.24120884  1
  Na  Na1  1  0.18560238  0.36562079  0.25604582  1
  Na  Na2  1  0.68628449  0.36628208  0.25429467  1
  Na  Na3  1  0.99857640  0.64267093  0.24191538  1
  Na  Na4  1  0.49997599  0.64465828  0.24381291  1
  Na  Na5  1  0.31256931  0.63421899  0.75249137  1
  Na  Na6  1  0.99871410  0.35322697  0.74865222  1
  Na  Na7  1  0.50064760  0.35637148  0.74927226  1
  Na  Na8  1  0.18393515  0.00458596  0.75880790  1
  Na  Na9  1  0.68710774  0.00766952  0.75999102  1
  Na  Na10  1  0.14447885  0.33491002  0.58266481  1
  Na  Na11  1  0.64617173  0.33594063  0.58442382  1
  Na  Na12  1  0.33704600  0.97403945  0.58028467  1
  Na  Na13  1  0.83691088  0.97441189  0.58291856  1
  Na  Na14  1  0.14378738  0.95352200  0.08542644  1
  Na  Na15  1  0.65295130  0.96199759  0.08554364  1
  Na  Na16  1  0.33732508  0.69998951  0.08297801  1
  Na  Na17  1  0.83707492  0.70840243  0.08003662  1
  Na  Na18  1  0.48674084  0.67786934  0.92525695  1
  Na  Na19  1  0.98156273  0.67703864  0.92605167  1
  Na  Na20  1  0.34537804  0.02298304  0.91406499  1
  Na  Na21  1  0.84328596  0.02120837  0.92024341  1
  Na  Na22  1  0.16959884  0.29857140  0.91011794  1
  Na  Na23  1  0.67241702  0.30428288  0.91022969  1
  Na  Na24  1  0.48368444  0.28918978  0.42034277  1
  Na  Na25  1  0.98402437  0.28954630  0.42048512  1
  Na  Na26  1  0.17043386  0.03834032  0.40470034  1
  Na  Na27  1  0.67026196  0.04037403  0.40612418  1
  Na  Na28  1  0.34385018  0.66655861  0.40839115  1
  Na  Na29  1  0.84488316  0.66805827  0.41009835  1
  Na  Na30  1  0.99864623  0.00577625  0.49826750  1
  Na  Na31  1  0.49968885  0.00676276  0.49835308  1
  Na  Na32  1  0.99275118  0.99194803  0.00249304  1
  Na  Na33  1  0.50199287  0.99437899  0.99963702  1
  Na  Na34  1  0.32666758  0.32575964  0.83487813  1
  Na  Na35  1  0.82343790  0.33552907  0.83368511  1
  Na  Na36  1  0.32342270  0.31095355  0.32890792  1
  Na  Na37  1  0.82611743  0.32655137  0.33045785  1
  Na  Na38  1  0.16567399  0.67561974  0.16909589  1
  Na  Na39  1  0.66559842  0.67277687  0.16397687  1
  Na  Na40  1  0.15864942  0.65756829  0.66789691  1
  Na  Na41  1  0.66866362  0.65822089  0.67068321  1
  Al  Al42  1  0.00237194  0.00193580  0.35045193  1
  Al  Al43  1  0.49978645  0.00287436  0.35078356  1
  Al  Al44  1  0.00015589  0.99828590  0.85190015  1
  Al  Al45  1  0.50308823  0.00667433  0.85256024  1
  Al  Al46  1  0.99767649  0.02637048  0.65053697  1
  Al  Al47  1  0.49899069  0.02953608  0.65125410  1
  Al  Al48  1  0.99189070  0.97042083  0.14454374  1
  Al  Al49  1  0.49978778  0.96955845  0.14920138  1
  Al  Al50  1  0.33649837  0.32966365  0.68904876  1
  Al  Al51  1  0.83738912  0.33435563  0.69098968  1
  Al  Al52  1  0.33575983  0.34036246  0.18974103  1
  Al  Al53  1  0.83428023  0.33226080  0.18569080  1
  Al  Al54  1  0.33233363  0.34181742  0.97925002  1
  Al  Al55  1  0.83343744  0.33201268  0.98215792  1
  Al  Al56  1  0.33170976  0.32151076  0.47849529  1
  Al  Al57  1  0.83147756  0.32131435  0.47896092  1
  Al  Al58  1  0.16193432  0.67200865  0.01546030  1
  Al  Al59  1  0.67374363  0.70078703  0.02196438  1
  Al  Al60  1  0.16099243  0.64827120  0.51430021  1
  Al  Al61  1  0.66220971  0.64940996  0.51551052  1
  Al  Al62  1  0.18624509  0.69656411  0.31051203  1
  Al  Al63  1  0.68146186  0.68455588  0.31364967  1
  Al  Al64  1  0.17919494  0.67572519  0.81491284  1
  Al  Al65  1  0.68827445  0.67675632  0.81304921  1
  Si  Si66  1  0.14530282  0.99907412  0.24776981  1
  Si  Si67  1  0.64578282  0.99750558  0.25181001  1
  Si  Si68  1  0.35597426  0.71380700  0.24971574  1
  Si  Si69  1  0.85568780  0.70691602  0.25121764  1
  Si  Si70  1  0.14658127  0.29414557  0.74942590  1
  Si  Si71  1  0.64914967  0.29995888  0.74966943  1
  Si  Si72  1  0.35509584  0.99972814  0.75045425  1
  Si  Si73  1  0.85567470  0.99821028  0.74987550  1
  Si  Si74  1  0.47970614  0.34622763  0.58314322  1
  Si  Si75  1  0.97928354  0.34619013  0.58320323  1
  Si  Si76  1  0.47897147  0.61246410  0.08287022  1
  Si  Si77  1  0.98038879  0.61117147  0.08289347  1
  Si  Si78  1  0.84093520  0.05578477  0.08416032  1
  Si  Si79  1  0.31201318  0.66750504  0.91855865  1
  Si  Si80  1  0.81225329  0.66354391  0.92005124  1
  Si  Si81  1  0.16608842  0.95878014  0.91585221  1
  Si  Si82  1  0.66564936  0.95626817  0.91383378  1
  Si  Si83  1  0.31079422  0.95455714  0.42012119  1
  Si  Si84  1  0.81159171  0.95571412  0.41913848  1
  Si  Si85  1  0.16688640  0.37488801  0.41550888  1
  Si  Si86  1  0.66617190  0.37325774  0.41655127  1
  S  S87  1  0.00029006  0.28550610  0.25018539  1
  S  S88  1  0.49722450  0.28038202  0.24887804  1
  S  S89  1  0.99708354  0.71542048  0.74839442  1
  S  S90  1  0.49779564  0.71652516  0.74734527  1
  S  S91  1  0.18549435  0.03946332  0.58432733  1
  S  S92  1  0.68524946  0.03845118  0.58394161  1
  S  S93  1  0.33786936  0.62208025  0.58373545  1
  S  S94  1  0.83771946  0.62081296  0.58343499  1
  S  S95  1  0.33770484  0.05498003  0.08355730  1
  S  S96  1  0.18781888  0.33429474  0.08310215  1
  S  S97  1  0.68344174  0.33040395  0.08452521  1
  S  S98  1  0.02525498  0.38373987  0.91517319  1
  S  S99  1  0.52362417  0.38171926  0.91791580  1
  S  S100  1  0.02250286  0.66412824  0.41769233  1
  S  S101  1  0.52285204  0.66423570  0.41798498  1
  O  O102  1  0.10393545  0.04355253  0.30968235  1
  O  O103  1  0.60054589  0.03767200  0.31146565  1
  O  O104  1  0.41824358  0.80292768  0.31065032  1
  O  O105  1  0.91830456  0.79628291  0.31233893  1
  O  O106  1  0.48489162  0.18071973  0.30810080  1
  O  O107  1  0.98522190  0.17818606  0.30843348  1
  O  O108  1  0.10393642  0.16259030  0.80907189  1
  O  O109  1  0.60381186  0.16511663  0.80890131  1
  O  O110  1  0.48211658  0.78965196  0.80509245  1
  O  O111  1  0.98603058  0.79071228  0.80661821  1
  O  O112  1  0.41942014  0.03625577  0.80961770  1
  O  O113  1  0.92109553  0.03756156  0.80880792  1
  O  O114  1  0.39579966  0.95610906  0.68882475  1
  O  O115  1  0.89652013  0.96474826  0.68648545  1
  O  O116  1  0.08771461  0.20723188  0.68733510  1
  O  O117  1  0.58706070  0.21255074  0.68784848  1
  O  O118  1  0.01288799  0.83209126  0.69412030  1
  O  O119  1  0.51178063  0.83169687  0.69316153  1
  O  O120  1  0.39879043  0.83152578  0.18729035  1
  O  O121  1  0.89705482  0.83384759  0.19110812  1
  O  O122  1  0.01570115  0.20452482  0.19665742  1
  O  O123  1  0.51275072  0.19573763  0.19556105  1
  O  O124  1  0.08252049  0.96968919  0.18793811  1
  O  O125  1  0.58629536  0.96496339  0.18997318  1
  O  O126  1  0.43141975  0.36316126  0.64531238  1
  O  O127  1  0.93191794  0.36543573  0.64525626  1
  O  O128  1  0.24121376  0.12430388  0.63971359  1
  O  O129  1  0.74113496  0.12197452  0.63858808  1
  O  O130  1  0.32303285  0.50919197  0.63949292  1
  O  O131  1  0.82181663  0.50432458  0.63741027  1
  O  O132  1  0.43009101  0.49871444  0.14531183  1
  O  O133  1  0.93311133  0.50111904  0.14609362  1
  O  O134  1  0.32141325  0.13866371  0.13733678  1
  O  O135  1  0.81691822  0.13838068  0.14427384  1
  O  O136  1  0.24470924  0.36557856  0.13816702  1
  O  O137  1  0.73908574  0.35913121  0.14038159  1
  O  O138  1  0.22813037  0.30105331  0.02658496  1
  O  O139  1  0.72283411  0.29479973  0.02848286  1
  O  O140  1  0.41322608  0.52552325  0.02342375  1
  O  O141  1  0.91732734  0.52695694  0.02277959  1
  O  O142  1  0.34436956  0.15307610  0.02502813  1
  O  O143  1  0.84775506  0.16432704  0.02061446  1
  O  O144  1  0.22565314  0.15417435  0.52811732  1
  O  O145  1  0.72467523  0.15325758  0.52726219  1
  O  O146  1  0.34410769  0.53458212  0.52676638  1
  O  O147  1  0.84455177  0.53713627  0.52524896  1
  O  O148  1  0.41500631  0.30644413  0.52362082  1
  O  O149  1  0.91503632  0.30593352  0.52337598  1
  O  O150  1  0.26305485  0.69769579  0.97858472  1
  O  O151  1  0.76578902  0.69868251  0.98005477  1
  O  O152  1  0.08089058  0.46618489  0.96986636  1
  O  O153  1  0.57882436  0.46361757  0.97096734  1
  O  O154  1  0.14591020  0.83442947  0.97696416  1
  O  O155  1  0.64364887  0.83408663  0.97595295  1
  O  O156  1  0.26435565  0.82977425  0.48227048  1
  O  O157  1  0.76333773  0.82871107  0.48022353  1
  O  O158  1  0.14536530  0.45287525  0.47805070  1
  O  O159  1  0.64493439  0.45321793  0.47837940  1
  O  O160  1  0.07937079  0.69326024  0.47225404  1
  O  O161  1  0.57971332  0.69261886  0.47209365  1
  O  O162  1  0.05821050  0.62908948  0.36158137  1
  O  O163  1  0.55958137  0.63017709  0.36138684  1
  O  O164  1  0.24442330  0.87170373  0.36232459  1
  O  O165  1  0.74856269  0.87498379  0.35897537  1
  O  O166  1  0.18395882  0.50554631  0.35622628  1
  O  O167  1  0.68233644  0.50139223  0.35662316  1
  O  O168  1  0.06643741  0.49341451  0.85832984  1
  O  O169  1  0.55775896  0.48563475  0.85963709  1
  O  O170  1  0.18384293  0.86715419  0.85506784  1
  O  O171  1  0.68014283  0.85688089  0.85406705  1
  O  O172  1  0.25014243  0.62259213  0.85713366  1
  O  O173  1  0.74752084  0.61161545  0.86059219  1
  O  O174  1  0.01463606  0.82602440  0.41476719  1
  O  O175  1  0.51424053  0.82454590  0.41475145  1
  O  O176  1  0.40857991  0.97212722  0.41177973  1
  O  O177  1  0.90947222  0.97373449  0.41146682  1
  O  O178  1  0.08066800  0.17516745  0.40961964  1
  O  O179  1  0.57954763  0.17471973  0.41018145  1
  O  O180  1  0.01647026  0.20596345  0.91182691  1
  O  O181  1  0.51336483  0.20037191  0.91295450  1
  O  O182  1  0.07968899  0.98426079  0.90947980  1
  O  O183  1  0.57834525  0.98204447  0.90824788  1
  O  O184  1  0.40933120  0.84603918  0.91090199  1
  O  O185  1  0.90968173  0.84436052  0.91022444  1
  O  O186  1  0.48895040  0.16234349  0.58719011  1
  O  O187  1  0.99018307  0.16417660  0.58666460  1
  O  O188  1  0.09626415  0.01793003  0.58989052  1
  O  O189  1  0.59586225  0.01770298  0.58972040  1
  O  O190  1  0.41808711  0.79816090  0.58685635  1
  O  O191  1  0.91816862  0.79744765  0.58710286  1
  O  O192  1  0.48985194  0.81624686  0.08650379  1
  O  O193  1  0.99243076  0.81353033  0.08615583  1
  O  O194  1  0.41829335  0.04050638  0.08728262  1
  O  O195  1  0.92758071  0.03118594  0.09021823  1
  O  O196  1  0.10062703  0.17902045  0.08906678  1
  O  O197  1  0.59423893  0.16876007  0.09160974  1
  O  O198  1  0.34474793  0.17713482  0.74485103  1
  O  O199  1  0.84662168  0.17907842  0.74515166  1
  O  O200  1  0.24713131  0.32376279  0.73978793  1
  O  O201  1  0.74573651  0.31698037  0.73884784  1
  O  O202  1  0.41574729  0.53778400  0.74275528  1
  O  O203  1  0.91734472  0.53728249  0.74352712  1
  O  O204  1  0.34662946  0.51451633  0.24604262  1
  O  O205  1  0.84445240  0.50911373  0.24428191  1
  O  O206  1  0.41693297  0.29809974  0.24436761  1
  O  O207  1  0.91881580  0.30078175  0.24722141  1
  O  O208  1  0.24377843  0.17384246  0.23805157  1
  O  O209  1  0.74467248  0.17149353  0.24545018  1
  O  O210  1  0.32408249  0.49254060  0.92301262  1
  O  O211  1  0.82582094  0.49062747  0.92647455  1
  O  O212  1  0.43108121  0.35302677  0.92432084  1
  O  O213  1  0.93667824  0.36471295  0.91904758  1
  O  O214  1  0.25655378  0.15358434  0.92491070  1
  O  O215  1  0.75444089  0.15251745  0.92098810  1
  O  O216  1  0.32470154  0.15542009  0.42434388  1
  O  O217  1  0.82408177  0.15531423  0.42390473  1
  O  O218  1  0.25740432  0.36072560  0.42554108  1
  O  O219  1  0.75696836  0.36052314  0.42555257  1
  O  O220  1  0.43231312  0.50825098  0.42528440  1
  O  O221  1  0.93164614  0.50902828  0.42588808  1
  O  O222  1  0.18288449  0.49875682  0.07605054  1
  O  O223  1  0.67608580  0.48851875  0.07762509  1
  O  O224  1  0.08167041  0.63937899  0.07732918  1
  O  O225  1  0.57795480  0.63982032  0.07713399  1
  O  O226  1  0.25831020  0.87199848  0.08128389  1
  O  O227  1  0.75147361  0.85362193  0.08055853  1
  O  O228  1  0.18068832  0.86656887  0.57846941  1
  O  O229  1  0.67968182  0.86454221  0.57706987  1
  O  O230  1  0.25780747  0.64345193  0.58248424  1
  O  O231  1  0.75800905  0.64425783  0.58140947  1
  O  O232  1  0.08045560  0.51840014  0.57712696  1
  O  O233  1  0.58057182  0.51755679  0.57758682  1
  O  O234  1  0.14709632  0.81360820  0.25764923  1
  O  O235  1  0.65030661  0.81389409  0.25929214  1
  O  O236  1  0.25518388  0.67975012  0.25226558  1
  O  O237  1  0.75579535  0.68191190  0.25511454  1
  O  O238  1  0.07730161  0.46618097  0.25653932  1
  O  O239  1  0.57540998  0.46112388  0.25365955  1
  O  O240  1  0.15106185  0.48601351  0.75704652  1
  O  O241  1  0.64928545  0.48614838  0.75864419  1
  O  O242  1  0.07543022  0.69030298  0.75212434  1
  O  O243  1  0.57388229  0.68907136  0.75139338  1
  O  O244  1  0.25529155  0.82668459  0.75425446  1
  O  O245  1  0.75516934  0.83126450  0.75300049  1
