# generated using pymatgen
data_Y2Mo2O7
_symmetry_space_group_name_H-M   'P 1'
_cell_length_a   7.26250960
_cell_length_b   7.25130503
_cell_length_c   7.26945475
_cell_angle_alpha   59.95482480
_cell_angle_beta   59.89137638
_cell_angle_gamma   60.10799420
_symmetry_Int_Tables_number   1
_chemical_formula_structural   Y2Mo2O7
_chemical_formula_sum   'Y4 Mo4 O14'
_cell_volume   270.60515680
_cell_formula_units_Z   2
loop_
 _symmetry_equiv_pos_site_id
 _symmetry_equiv_pos_as_xyz
  1  'x, y, z'
loop_
 _atom_site_type_symbol
 _atom_site_label
 _atom_site_symmetry_multiplicity
 _atom_site_fract_x
 _atom_site_fract_y
 _atom_site_fract_z
 _atom_site_occupancy
  Y  Y0  1  0.12500000  0.12500000  0.12500000  1
  Y  Y1  1  0.62500000  0.12500000  0.12500000  1
  Y  Y2  1  0.12500000  0.62500000  0.12500000  1
  Y  Y3  1  0.12500000  0.12500000  0.62500000  1
  Mo  Mo4  1  0.62500000  0.62500000  0.62500000  1
  Mo  Mo5  1  0.12500000  0.62500000  0.62500000  1
  Mo  Mo6  1  0.62500000  0.12500000  0.62500000  1
  Mo  Mo7  1  0.62500000  0.62500000  0.12500000  1
  O  O8  1  0.24919659  0.25066623  0.25103348  1
  O  O9  1  0.00080341  -0.00066623  -0.00103348  1
  O  O10  1  0.54448955  0.95828879  0.52709690  1
  O  O11  1  0.27984360  0.72281894  0.29179778  1
  O  O12  1  0.52820589  0.55034168  0.96401596  1
  O  O13  1  0.96141195  0.53867866  0.53856663  1
  O  O14  1  0.53359678  0.96636417  0.96648231  1
  O  O15  1  0.95719015  0.96384824  0.55027253  1
  O  O16  1  0.97015640  0.52718106  0.95820222  1
  O  O17  1  0.71640322  0.28363583  0.28351769  1
  O  O18  1  0.28858805  0.71132134  0.71143337  1
  O  O19  1  0.72179411  0.69965832  0.28598404  1
  O  O20  1  0.29280985  0.28615176  0.69972747  1
  O  O21  1  0.70551045  0.29171121  0.72290310  1
