# generated using pymatgen
data_BaZnCl4
_symmetry_space_group_name_H-M   'P 1'
_cell_length_a   7.27433115
_cell_length_b   9.62909052
_cell_length_c   9.97589578
_cell_angle_alpha   90.00000000
_cell_angle_beta   90.00000000
_cell_angle_gamma   90.00000000
_symmetry_Int_Tables_number   1
_chemical_formula_structural   BaZnCl4
_chemical_formula_sum   'Ba4 Zn4 Cl16'
_cell_volume   698.76354641
_cell_formula_units_Z   4
loop_
 _symmetry_equiv_pos_site_id
 _symmetry_equiv_pos_as_xyz
  1  'x, y, z'
loop_
 _atom_site_type_symbol
 _atom_site_label
 _atom_site_symmetry_multiplicity
 _atom_site_fract_x
 _atom_site_fract_y
 _atom_site_fract_z
 _atom_site_occupancy
  Ba  Ba0  1  0.31870965  0.75000000  0.75000000  1
  Ba  Ba1  1  0.18129035  0.75000000  0.25000000  1
  Ba  Ba2  1  0.68129035  0.25000000  0.25000000  1
  Ba  Ba3  1  0.81870965  0.25000000  0.75000000  1
  Zn  Zn4  1  0.25000000  0.17518674  0.00000000  1
  Zn  Zn5  1  0.25000000  0.32481326  0.50000000  1
  Zn  Zn6  1  0.75000000  0.82481326  0.00000000  1
  Zn  Zn7  1  0.75000000  0.67518674  0.50000000  1
  Cl  Cl8  1  0.50375972  0.19083626  0.53659235  1
  Cl  Cl9  1  0.50375972  0.30916374  0.96340765  1
  Cl  Cl10  1  0.99624028  0.19083626  0.46340765  1
  Cl  Cl11  1  0.99624028  0.30916374  0.03659235  1
  Cl  Cl12  1  0.49624028  0.80916374  0.46340765  1
  Cl  Cl13  1  0.49624028  0.69083626  0.03659235  1
  Cl  Cl14  1  0.00375972  0.80916374  0.53659235  1
  Cl  Cl15  1  0.00375972  0.69083626  0.96340765  1
  Cl  Cl16  1  0.83474677  0.55184000  0.31638291  1
  Cl  Cl17  1  0.83474677  0.94816000  0.18361709  1
  Cl  Cl18  1  0.66525323  0.55184000  0.68361709  1
  Cl  Cl19  1  0.66525323  0.94816000  0.81638291  1
  Cl  Cl20  1  0.16525323  0.44816000  0.68361709  1
  Cl  Cl21  1  0.16525323  0.05184000  0.81638291  1
  Cl  Cl22  1  0.33474677  0.44816000  0.31638291  1
  Cl  Cl23  1  0.33474677  0.05184000  0.18361709  1
