# generated using pymatgen
data_Na3Mg5Nb(SO4)9
_symmetry_space_group_name_H-M   'P 1'
_cell_length_a   8.67257362
_cell_length_b   8.67257334
_cell_length_c   22.78837095
_cell_angle_alpha   90.00000000
_cell_angle_beta   90.00000000
_cell_angle_gamma   120.00000106
_symmetry_Int_Tables_number   1
_chemical_formula_structural   Na3Mg5Nb(SO4)9
_chemical_formula_sum   'Na6 Mg10 Nb2 S18 O72'
_cell_volume   1484.36219145
_cell_formula_units_Z   2
loop_
 _symmetry_equiv_pos_site_id
 _symmetry_equiv_pos_as_xyz
  1  'x, y, z'
loop_
 _atom_site_type_symbol
 _atom_site_label
 _atom_site_symmetry_multiplicity
 _atom_site_fract_x
 _atom_site_fract_y
 _atom_site_fract_z
 _atom_site_occupancy
  Na  Na0  1  -0.00000000  -0.00000000  0.50495539  1
  Na  Na1  1  -0.00000000  -0.00000000  0.00495539  1
  Na  Na2  1  0.66666700  0.33333300  0.83334100  1
  Na  Na3  1  0.66666700  0.33333300  0.33334100  1
  Na  Na4  1  0.33333300  0.66666700  0.15759608  1
  Na  Na5  1  0.33333300  0.66666700  0.65759608  1
  Mg  Mg6  1  -0.00000000  -0.00000000  0.35158023  1
  Mg  Mg7  1  -0.00000000  -0.00000000  0.85158023  1
  Mg  Mg8  1  -0.00000000  -0.00000000  0.64461690  1
  Mg  Mg9  1  -0.00000000  -0.00000000  0.14461690  1
  Mg  Mg10  1  0.66666700  0.33333300  0.67945239  1
  Mg  Mg11  1  0.66666700  0.33333300  0.17945239  1
  Mg  Mg12  1  0.66666700  0.33333300  0.98655693  1
  Mg  Mg13  1  0.66666700  0.33333300  0.48655693  1
  Mg  Mg14  1  0.33333300  0.66666700  0.02237624  1
  Mg  Mg15  1  0.33333300  0.66666700  0.52237624  1
  Nb  Nb16  1  0.33333300  0.66666700  0.31363234  1
  Nb  Nb17  1  0.33333300  0.66666700  0.81363234  1
  S  S18  1  0.29201958  0.00659342  0.25054048  1
  S  S19  1  0.71457384  0.70798042  0.25054048  1
  S  S20  1  0.99340658  0.28542616  0.25054048  1
  S  S21  1  0.29201958  0.28542616  0.75054048  1
  S  S22  1  0.99340658  0.70798042  0.75054048  1
  S  S23  1  0.71457384  0.00659342  0.75054048  1
  S  S24  1  0.95922061  0.33296324  0.58332973  1
  S  S25  1  0.37374363  0.04077939  0.58332973  1
  S  S26  1  0.66703676  0.62625637  0.58332973  1
  S  S27  1  0.95922061  0.62625637  0.08332973  1
  S  S28  1  0.66703676  0.04077939  0.08332973  1
  S  S29  1  0.37374363  0.33296324  0.08332973  1
  S  S30  1  0.62703010  0.66742306  0.91840142  1
  S  S31  1  0.04039196  0.37296990  0.91840142  1
  S  S32  1  0.33257694  0.95960804  0.91840142  1
  S  S33  1  0.62703010  0.95960804  0.41840142  1
  S  S34  1  0.33257694  0.37296990  0.41840142  1
  S  S35  1  0.04039196  0.66742306  0.41840142  1
  O  O36  1  0.21075342  0.02577590  0.30402044  1
  O  O37  1  0.81502248  0.78924658  0.30402044  1
  O  O38  1  0.97422410  0.18497752  0.30402044  1
  O  O39  1  0.21075342  0.18497752  0.80402044  1
  O  O40  1  0.97422410  0.78924658  0.80402044  1
  O  O41  1  0.81502248  0.02577590  0.80402044  1
  O  O42  1  0.78430750  0.96677316  0.69818860  1
  O  O43  1  0.18246566  0.21569250  0.69818860  1
  O  O44  1  0.03322684  0.81753434  0.69818860  1
  O  O45  1  0.78430750  0.81753434  0.19818860  1
  O  O46  1  0.03322684  0.21569250  0.19818860  1
  O  O47  1  0.18246566  0.96677316  0.19818860  1
  O  O48  1  0.87940442  0.35982781  0.63650534  1
  O  O49  1  0.48042439  0.12059558  0.63650534  1
  O  O50  1  0.64017219  0.51957561  0.63650534  1
  O  O51  1  0.87940442  0.51957561  0.13650534  1
  O  O52  1  0.64017219  0.12059558  0.13650534  1
  O  O53  1  0.48042439  0.35982781  0.13650534  1
  O  O54  1  0.45386788  0.30632069  0.03001371  1
  O  O55  1  0.85245381  0.54613212  0.03001371  1
  O  O56  1  0.69367931  0.14754619  0.03001371  1
  O  O57  1  0.45386788  0.14754619  0.53001371  1
  O  O58  1  0.69367931  0.54613212  0.53001371  1
  O  O59  1  0.85245381  0.30632069  0.53001371  1
  O  O60  1  0.54051518  0.69315872  0.96894935  1
  O  O61  1  0.15264254  0.45948482  0.96894935  1
  O  O62  1  0.30684128  0.84735746  0.96894935  1
  O  O63  1  0.54051518  0.84735746  0.46894935  1
  O  O64  1  0.30684128  0.45948482  0.46894935  1
  O  O65  1  0.15264254  0.69315872  0.46894935  1
  O  O66  1  0.13489449  0.64511114  0.36309152  1
  O  O67  1  0.51021565  0.86510551  0.36309152  1
  O  O68  1  0.35488886  0.48978435  0.36309152  1
  O  O69  1  0.13489449  0.48978435  0.86309152  1
  O  O70  1  0.35488886  0.86510551  0.86309152  1
  O  O71  1  0.51021565  0.64511114  0.86309152  1
  O  O72  1  0.02613033  0.82685865  0.40828984  1
  O  O73  1  0.80072832  0.97386967  0.40828984  1
  O  O74  1  0.17314135  0.19927168  0.40828984  1
  O  O75  1  0.02613033  0.19927168  0.90828984  1
  O  O76  1  0.17314135  0.97386967  0.90828984  1
  O  O77  1  0.80072832  0.82685865  0.90828984  1
  O  O78  1  0.97768318  0.17200556  0.58934113  1
  O  O79  1  0.19432237  0.02231682  0.58934113  1
  O  O80  1  0.82799444  0.80567763  0.58934113  1
  O  O81  1  0.97768318  0.80567763  0.08934113  1
  O  O82  1  0.82799444  0.02231682  0.08934113  1
  O  O83  1  0.19432237  0.17200556  0.08934113  1
  O  O84  1  0.68320705  0.15693453  0.74451915  1
  O  O85  1  0.47372848  0.31679295  0.74451915  1
  O  O86  1  0.84306547  0.52627152  0.74451915  1
  O  O87  1  0.68320705  0.52627152  0.24451915  1
  O  O88  1  0.84306547  0.31679295  0.24451915  1
  O  O89  1  0.47372848  0.15693453  0.24451915  1
  O  O90  1  0.63712797  0.50378509  0.91981825  1
  O  O91  1  0.86665813  0.36287203  0.91981825  1
  O  O92  1  0.49621491  0.13334187  0.91981825  1
  O  O93  1  0.63712797  0.13334187  0.41981825  1
  O  O94  1  0.49621491  0.36287203  0.41981825  1
  O  O95  1  0.86665813  0.50378509  0.41981825  1
  O  O96  1  0.35524697  0.49396696  0.07737900  1
  O  O97  1  0.13871899  0.64475303  0.07737900  1
  O  O98  1  0.50603304  0.86128101  0.07737900  1
  O  O99  1  0.35524697  0.86128101  0.57737900  1
  O  O100  1  0.50603304  0.64475303  0.57737900  1
  O  O101  1  0.13871899  0.49396696  0.57737900  1
  O  O102  1  0.31127075  0.83738817  0.25957621  1
  O  O103  1  0.52611642  0.68872925  0.25957621  1
  O  O104  1  0.16261183  0.47388358  0.25957621  1
  O  O105  1  0.31127075  0.47388358  0.75957621  1
  O  O106  1  0.16261183  0.68872925  0.75957621  1
  O  O107  1  0.52611642  0.83738817  0.75957621  1
