# generated using pymatgen
data_PbBrCl
_symmetry_space_group_name_H-M   'P 1'
_cell_length_a   4.62273075
_cell_length_b   7.83092851
_cell_length_c   9.29621097
_cell_angle_alpha   90.00000000
_cell_angle_beta   90.00000000
_cell_angle_gamma   90.00000000
_symmetry_Int_Tables_number   1
_chemical_formula_structural   PbBrCl
_chemical_formula_sum   'Pb4 Br4 Cl4'
_cell_volume   336.52538450
_cell_formula_units_Z   4
loop_
 _symmetry_equiv_pos_site_id
 _symmetry_equiv_pos_as_xyz
  1  'x, y, z'
loop_
 _atom_site_type_symbol
 _atom_site_label
 _atom_site_symmetry_multiplicity
 _atom_site_fract_x
 _atom_site_fract_y
 _atom_site_fract_z
 _atom_site_occupancy
  Pb  Pb0  1  0.25000000  0.75053208  0.90328012  1
  Pb  Pb1  1  0.75000000  0.24946792  0.09671988  1
  Pb  Pb2  1  0.25000000  0.25053208  0.59671988  1
  Pb  Pb3  1  0.75000000  0.74946792  0.40328012  1
  Br  Br4  1  0.75000000  0.47493849  0.83373306  1
  Br  Br5  1  0.25000000  0.02506151  0.33373306  1
  Br  Br6  1  0.75000000  0.97493849  0.66626694  1
  Br  Br7  1  0.25000000  0.52506151  0.16626694  1
  Cl  Cl8  1  0.75000000  0.35849867  0.43000834  1
  Cl  Cl9  1  0.25000000  0.14150133  0.93000834  1
  Cl  Cl10  1  0.75000000  0.85849867  0.06999166  1
  Cl  Cl11  1  0.25000000  0.64150133  0.56999166  1
