# generated using pymatgen
data_MgHg8(W2O7)4
_symmetry_space_group_name_H-M   'P 1'
_cell_length_a   7.52506264
_cell_length_b   7.47426052
_cell_length_c   14.82061517
_cell_angle_alpha   77.24423073
_cell_angle_beta   102.37410795
_cell_angle_gamma   117.51436785
_symmetry_Int_Tables_number   1
_chemical_formula_structural   MgHg8(W2O7)4
_chemical_formula_sum   'Mg1 Hg8 W8 O28'
_cell_volume   714.94610152
_cell_formula_units_Z   1
loop_
 _symmetry_equiv_pos_site_id
 _symmetry_equiv_pos_as_xyz
  1  'x, y, z'
loop_
 _atom_site_type_symbol
 _atom_site_label
 _atom_site_symmetry_multiplicity
 _atom_site_fract_x
 _atom_site_fract_y
 _atom_site_fract_z
 _atom_site_occupancy
  Mg  Mg0  1  0.29106300  0.28691200  0.81363300  1
  Hg  Hg1  1  0.05717800  0.22620400  0.96037800  1
  Hg  Hg2  1  0.61307200  0.74564100  0.93630300  1
  Hg  Hg3  1  0.26709800  0.41248300  0.44794900  1
  Hg  Hg4  1  0.24688700  0.09136300  0.56766100  1
  Hg  Hg5  1  0.76021500  0.91754200  0.44199100  1
  Hg  Hg6  1  0.75472300  0.60694400  0.56208300  1
  Hg  Hg7  1  0.39185200  0.24239600  0.06580800  1
  Hg  Hg8  1  0.91776400  0.75188100  0.05914300  1
  W  W9  1  0.18631700  0.85523700  0.81617100  1
  W  W10  1  0.13541200  0.83131500  0.30919300  1
  W  W11  1  0.37205200  0.68711400  0.68056700  1
  W  W12  1  0.33302600  0.63789500  0.19134700  1
  W  W13  1  0.68317800  0.36658100  0.80331100  1
  W  W14  1  0.63781200  0.33165900  0.31108100  1
  W  W15  1  0.87578500  0.17415900  0.69207000  1
  W  W16  1  0.82858600  0.14064200  0.18935500  1
  O  O17  1  0.22963100  0.89907700  0.93373600  1
  O  O18  1  0.18349300  0.81492900  0.67057600  1
  O  O19  1  0.10872900  0.83035100  0.42458100  1
  O  O20  1  0.14306500  0.42047400  0.71965500  1
  O  O21  1  0.35930600  0.71214700  0.83073000  1
  O  O22  1  0.17040200  0.79467000  0.16782800  1
  O  O23  1  0.34500400  0.67140500  0.56045900  1
  O  O24  1  0.06947000  0.38379100  0.20061900  1
  O  O25  1  0.27921300  0.65768200  0.33207900  1
  O  O26  1  0.60270900  0.93450100  0.68878400  1
  O  O27  1  0.97653700  0.97983700  0.24271000  1
  O  O28  1  0.40972500  0.11868300  0.77647900  1
  O  O29  1  0.52939700  0.53602800  0.73160600  1
  O  O30  1  0.56922900  0.36196400  0.90358000  1
  O  O31  1  0.33637500  0.61846300  0.07505500  1
  O  O32  1  0.46823800  0.47067200  0.25607800  1
  O  O33  1  0.57680300  0.87963200  0.20435600  1
  O  O34  1  0.03058400  0.01938000  0.77147900  1
  O  O35  1  0.38040700  0.07366200  0.29917100  1
  O  O36  1  0.73223200  0.35949500  0.67241600  1
  O  O37  1  0.94576300  0.60974200  0.82224000  1
  O  O38  1  0.63684600  0.32736900  0.43046400  1
  O  O39  1  0.82545300  0.18769400  0.83765300  1
  O  O40  1  0.65627700  0.28887200  0.16879000  1
  O  O41  1  0.87495900  0.57774200  0.29205600  1
  O  O42  1  0.90571900  0.16836000  0.57719400  1
  O  O43  1  0.78964600  0.16388900  0.32866000  1
  O  O44  1  0.81633900  0.13709200  0.06774000  1
