# generated using pymatgen
data_La3TaSiS5O24
_symmetry_space_group_name_H-M   'P 1'
_cell_length_a   9.47925169
_cell_length_b   9.49381274
_cell_length_c   24.28295603
_cell_angle_alpha   90.13139116
_cell_angle_beta   90.24489935
_cell_angle_gamma   119.98417586
_symmetry_Int_Tables_number   1
_chemical_formula_structural   La3TaSiS5O24
_chemical_formula_sum   'La9 Ta3 Si3 S15 O72'
_cell_volume   1892.80765356
_cell_formula_units_Z   3
loop_
 _symmetry_equiv_pos_site_id
 _symmetry_equiv_pos_as_xyz
  1  'x, y, z'
loop_
 _atom_site_type_symbol
 _atom_site_label
 _atom_site_symmetry_multiplicity
 _atom_site_fract_x
 _atom_site_fract_y
 _atom_site_fract_z
 _atom_site_occupancy
  La  La0  1  0.01105426  0.00256480  0.35289629  1
  La  La1  1  0.99197729  0.99738369  0.86196315  1
  La  La2  1  0.99798868  0.99835177  0.65197400  1
  La  La3  1  0.01456967  0.99619479  0.14225834  1
  La  La4  1  0.66833482  0.33357508  0.69289642  1
  La  La5  1  0.65716256  0.32284655  0.19351369  1
  La  La6  1  0.66582374  0.33152654  0.47308075  1
  La  La7  1  0.33669390  0.66278692  0.02239634  1
  La  La8  1  0.33377189  0.66675598  0.52533688  1
  Ta  Ta9  1  0.67452148  0.33848464  0.97470316  1
  Ta  Ta10  1  0.33362657  0.67280533  0.31187010  1
  Ta  Ta11  1  0.33171089  0.65580315  0.82319616  1
  Si  Si12  1  0.28929885  0.98586672  0.25154997  1
  Si  Si13  1  0.61470755  0.64716011  0.91851754  1
  Si  Si14  1  0.03600810  0.38610061  0.91794576  1
  S  S15  1  0.68479415  0.70696486  0.25400795  1
  S  S16  1  0.02187099  0.31543576  0.25414746  1
  S  S17  1  0.29377083  0.31628961  0.75483321  1
  S  S18  1  0.02425201  0.70798563  0.75397063  1
  S  S19  1  0.68261810  0.97745688  0.75365567  1
  S  S20  1  0.95468029  0.32816181  0.58348497  1
  S  S21  1  0.37374951  0.04615520  0.58339912  1
  S  S22  1  0.67147362  0.62457197  0.58349357  1
  S  S23  1  0.93536210  0.60790583  0.07837599  1
  S  S24  1  0.67517275  0.06282610  0.07853058  1
  S  S25  1  0.38930505  0.32726678  0.07870067  1
  S  S26  1  0.35615396  0.96625430  0.91590611  1
  S  S27  1  0.60821597  0.94264685  0.41189055  1
  S  S28  1  0.33759117  0.39319214  0.41309845  1
  S  S29  1  0.05533610  0.66026728  0.41208160  1
  O  O30  1  0.20376469  0.00964145  0.30535328  1
  O  O31  1  0.78800312  0.78435983  0.30245637  1
  O  O32  1  0.99026968  0.20991969  0.30208340  1
  O  O33  1  0.21993511  0.20897929  0.80085305  1
  O  O34  1  0.99064973  0.78379372  0.80038663  1
  O  O35  1  0.79484396  0.01392013  0.79992518  1
  O  O36  1  0.75304029  0.94717408  0.70286722  1
  O  O37  1  0.19398567  0.24911981  0.70363276  1
  O  O38  1  0.05085045  0.80727481  0.70293111  1
  O  O39  1  0.74583520  0.80807422  0.20474734  1
  O  O40  1  0.05850535  0.25185636  0.20467803  1
  O  O41  1  0.17207230  0.94926146  0.19771818  1
  O  O42  1  0.87625992  0.35077315  0.63251979  1
  O  O43  1  0.47499684  0.12505837  0.63271117  1
  O  O44  1  0.65066938  0.52480948  0.63270123  1
  O  O45  1  0.86176394  0.51663941  0.12907371  1
  O  O46  1  0.65765638  0.13702671  0.12978922  1
  O  O47  1  0.48020467  0.34655199  0.13034687  1
  O  O48  1  0.48120772  0.31421767  0.03043989  1
  O  O49  1  0.82756778  0.51042900  0.02928099  1
  O  O50  1  0.68435615  0.16766640  0.02974600  1
  O  O51  1  0.45419784  0.14399650  0.53327967  1
  O  O52  1  0.68877074  0.54403075  0.53322683  1
  O  O53  1  0.85559677  0.30924018  0.53313694  1
  O  O54  1  0.53487590  0.68014333  0.97053626  1
  O  O55  1  0.14331693  0.47318466  0.97055644  1
  O  O56  1  0.32391600  0.86821213  0.96582450  1
  O  O57  1  0.53534818  0.85051360  0.46273482  1
  O  O58  1  0.32068204  0.46745643  0.46415511  1
  O  O59  1  0.14907888  0.68281228  0.46304759  1
  O  O60  1  0.15142504  0.64821996  0.36413900  1
  O  O61  1  0.49798323  0.84495948  0.36372051  1
  O  O62  1  0.34981715  0.49781184  0.36477435  1
  O  O63  1  0.14687175  0.51648279  0.86363915  1
  O  O64  1  0.37963642  0.87602050  0.86720276  1
  O  O65  1  0.48419874  0.63097525  0.86422835  1
  O  O66  1  0.03328151  0.80116925  0.40488780  1
  O  O67  1  0.76866335  0.96206980  0.40337074  1
  O  O68  1  0.19298248  0.23169235  0.40703920  1
  O  O69  1  0.00142180  0.21152419  0.90003655  1
  O  O70  1  0.22456772  0.99506804  0.90302012  1
  O  O71  1  0.79125373  0.78199229  0.89998530  1
  O  O72  1  0.97263370  0.18271283  0.59004614  1
  O  O73  1  0.21023683  0.02801306  0.58989663  1
  O  O74  1  0.81723190  0.78822754  0.58993332  1
  O  O75  1  0.93971790  0.76630761  0.07932591  1
  O  O76  1  0.82468564  0.05139035  0.08193022  1
  O  O77  1  0.22736422  0.17623576  0.08116764  1
  O  O78  1  0.65883358  0.11892945  0.74343855  1
  O  O79  1  0.46137596  0.34731864  0.74474521  1
  O  O80  1  0.88319225  0.54158115  0.74367642  1
  O  O81  1  0.65659590  0.54185893  0.24629581  1
  O  O82  1  0.88940543  0.35099874  0.24642932  1
  O  O83  1  0.47348971  0.13020054  0.24376403  1
  O  O84  1  0.62728359  0.47710054  0.93337285  1
  O  O85  1  0.85010199  0.36746825  0.93179868  1
  O  O86  1  0.51033168  0.12939317  0.92528466  1
  O  O87  1  0.61403454  0.10107103  0.41374710  1
  O  O88  1  0.48703356  0.38139400  0.41567474  1
  O  O89  1  0.89707365  0.50879407  0.41380177  1
  O  O90  1  0.36767628  0.46863910  0.07376131  1
  O  O91  1  0.09681785  0.63063144  0.07128859  1
  O  O92  1  0.52998335  0.90256785  0.07198939  1
  O  O93  1  0.35647261  0.88259330  0.57726302  1
  O  O94  1  0.52550570  0.64256120  0.57769820  1
  O  O95  1  0.11833416  0.47416112  0.57750385  1
  O  O96  1  0.31031470  0.82067241  0.26991319  1
  O  O97  1  0.51536115  0.68498096  0.26831623  1
  O  O98  1  0.17333554  0.48090062  0.26900676  1
  O  O99  1  0.30836076  0.48270261  0.76679574  1
  O  O100  1  0.17240429  0.69308480  0.76568455  1
  O  O101  1  0.51889017  0.83179863  0.76599167  1
