# generated using pymatgen
data_Na10Ca4Y4Si3(S3O16)3
_symmetry_space_group_name_H-M   'P 1'
_cell_length_a   18.74881625
_cell_length_b   9.34978313
_cell_length_c   23.78716124
_cell_angle_alpha   89.91285002
_cell_angle_beta   89.75071507
_cell_angle_gamma   120.09030200
_symmetry_Int_Tables_number   1
_chemical_formula_structural   Na10Ca4Y4Si3(S3O16)3
_chemical_formula_sum   'Na30 Ca12 Y12 Si9 S27 O144'
_cell_volume   3607.81823071
_cell_formula_units_Z   3
loop_
 _symmetry_equiv_pos_site_id
 _symmetry_equiv_pos_as_xyz
  1  'x, y, z'
loop_
 _atom_site_type_symbol
 _atom_site_label
 _atom_site_symmetry_multiplicity
 _atom_site_fract_x
 _atom_site_fract_y
 _atom_site_fract_z
 _atom_site_occupancy
  Na  Na0  1  0.19572710  0.37336977  0.23981478  1
  Na  Na1  1  0.69575468  0.37799172  0.23957107  1
  Na  Na2  1  0.98499028  0.64454457  0.25643829  1
  Na  Na3  1  0.48764858  0.63736808  0.26490112  1
  Na  Na4  1  0.32722928  0.66656988  0.74371607  1
  Na  Na5  1  0.82290965  0.65955405  0.74299221  1
  Na  Na6  1  0.98599688  0.33040190  0.75343476  1
  Na  Na7  1  0.19222211  0.00629755  0.73544640  1
  Na  Na8  1  0.69479639  0.01013533  0.73700045  1
  Na  Na9  1  0.52723436  0.71021712  0.56774606  1
  Na  Na10  1  0.32174086  0.97478327  0.59200474  1
  Na  Na11  1  0.82090139  0.96662436  0.59116480  1
  Na  Na12  1  0.15566032  0.99155842  0.07830040  1
  Na  Na13  1  0.65568366  0.99104255  0.07798156  1
  Na  Na14  1  0.32363865  0.67149763  0.09497887  1
  Na  Na15  1  0.82330651  0.67224341  0.09597429  1
  Na  Na16  1  0.65335457  0.99856183  0.42753291  1
  Na  Na17  1  0.36197930  0.67719813  0.40530390  1
  Na  Na18  1  0.02365205  0.00223261  0.50013031  1
  Na  Na19  1  0.51570968  0.00623908  0.49563164  1
  Na  Na20  1  0.01295432  0.04082880  0.99904595  1
  Na  Na21  1  0.51333684  0.04193848  0.99795577  1
  Na  Na22  1  0.34804436  0.30575943  0.82887699  1
  Na  Na23  1  0.83400692  0.30367496  0.83257863  1
  Na  Na24  1  0.34577835  0.35176075  0.33457374  1
  Na  Na25  1  0.84106581  0.36262257  0.32955651  1
  Na  Na26  1  0.17641416  0.64434412  0.16350019  1
  Na  Na27  1  0.67793823  0.64577694  0.16633596  1
  Na  Na28  1  0.17033056  0.69514010  0.65622188  1
  Na  Na29  1  0.66934462  0.67834205  0.65793573  1
  Ca  Ca30  1  0.99337952  0.98887597  0.35054313  1
  Ca  Ca31  1  0.49633017  0.99660914  0.34857520  1
  Ca  Ca32  1  0.99694776  0.00272459  0.85164705  1
  Ca  Ca33  1  0.49610331  0.00604916  0.85089271  1
  Ca  Ca34  1  0.33242157  0.31967737  0.68174417  1
  Ca  Ca35  1  0.83039907  0.32544476  0.67797036  1
  Ca  Ca36  1  0.33337060  0.33451134  0.18171805  1
  Ca  Ca37  1  0.83293820  0.33423873  0.18112282  1
  Ca  Ca38  1  0.16326748  0.65073635  0.01561329  1
  Ca  Ca39  1  0.66325196  0.65084677  0.01591525  1
  Ca  Ca40  1  0.16118650  0.66752941  0.51714172  1
  Ca  Ca41  1  0.66468284  0.66312153  0.51220947  1
  Y  Y42  1  0.00330739  0.00037135  0.64790718  1
  Y  Y43  1  0.50195886  0.01005596  0.65075724  1
  Y  Y44  1  0.99489966  0.00422767  0.15250237  1
  Y  Y45  1  0.49559852  0.00401509  0.15169261  1
  Y  Y46  1  0.32884306  0.33210418  0.98334148  1
  Y  Y47  1  0.82852301  0.33235408  0.98325893  1
  Y  Y48  1  0.32835252  0.32473323  0.48274911  1
  Y  Y49  1  0.82953892  0.33144288  0.48687024  1
  Y  Y50  1  0.17352232  0.67497512  0.31611402  1
  Y  Y51  1  0.67000809  0.67217411  0.31982612  1
  Y  Y52  1  0.17295955  0.67648439  0.82064660  1
  Y  Y53  1  0.66695819  0.66857934  0.81909208  1
  Si  Si54  1  0.34692422  0.69108402  0.24992321  1
  Si  Si55  1  0.84730143  0.69340650  0.24757754  1
  Si  Si56  1  0.34719640  0.99657519  0.74935939  1
  Si  Si57  1  0.84941584  0.99932101  0.74823036  1
  Si  Si58  1  0.18025909  0.02546019  0.58657622  1
  Si  Si59  1  0.67816206  0.02164680  0.58497681  1
  Si  Si60  1  0.18021450  0.32867715  0.08737326  1
  Si  Si61  1  0.68025167  0.32901253  0.08712340  1
  Si  Si62  1  0.51302731  0.66673156  0.41669773  1
  S  S63  1  0.14595156  0.99556691  0.24953756  1
  S  S64  1  0.64807433  0.99667409  0.24962572  1
  S  S65  1  0.00253802  0.30618958  0.25307988  1
  S  S66  1  0.50308019  0.30729685  0.25155167  1
  S  S67  1  0.14867560  0.30220342  0.75184679  1
  S  S68  1  0.65195483  0.30407066  0.75189726  1
  S  S69  1  0.00118009  0.70187749  0.75268504  1
  S  S70  1  0.50134486  0.70690400  0.75103364  1
  S  S71  1  0.48215505  0.33284393  0.58258531  1
  S  S72  1  0.98229007  0.32976856  0.58522843  1
  S  S73  1  0.33544277  0.63682823  0.58498624  1
  S  S74  1  0.83424981  0.63987054  0.58553520  1
  S  S75  1  0.48393166  0.63817395  0.08387847  1
  S  S76  1  0.98432033  0.63861994  0.08385145  1
  S  S77  1  0.33249748  0.03247511  0.08182146  1
  S  S78  1  0.83291786  0.03337379  0.08160139  1
  S  S79  1  0.31873174  0.66444663  0.91796062  1
  S  S80  1  0.81725225  0.66378892  0.91690872  1
  S  S81  1  0.01371679  0.36576312  0.91467645  1
  S  S82  1  0.51394914  0.36545882  0.91736768  1
  S  S83  1  0.16696667  0.97049031  0.91844966  1
  S  S84  1  0.66707176  0.96939029  0.91776744  1
  S  S85  1  0.31569547  0.96442227  0.41909891  1
  S  S86  1  0.81868044  0.97582424  0.41975256  1
  S  S87  1  0.16623079  0.36966285  0.41628791  1
  S  S88  1  0.67028619  0.36370158  0.41557452  1
  S  S89  1  0.01463222  0.66232933  0.41456952  1
  O  O90  1  0.10650260  0.02469759  0.29790400  1
  O  O91  1  0.60948734  0.02155102  0.30003241  1
  O  O92  1  0.39999138  0.78255325  0.30553891  1
  O  O93  1  0.91151347  0.79503441  0.29699922  1
  O  O94  1  0.49531785  0.21210051  0.30206812  1
  O  O95  1  0.99520156  0.20986810  0.30278365  1
  O  O96  1  0.11318348  0.19466558  0.80110148  1
  O  O97  1  0.61333904  0.19964546  0.80111177  1
  O  O98  1  0.49399617  0.79200392  0.80024125  1
  O  O99  1  0.99208924  0.78237954  0.80256954  1
  O  O100  1  0.40074128  0.99596631  0.80151762  1
  O  O101  1  0.91198143  0.02716486  0.79883792  1
  O  O102  1  0.38707933  0.97073704  0.68974203  1
  O  O103  1  0.88721842  0.96586496  0.68956330  1
  O  O104  1  0.09720025  0.22122488  0.70127607  1
  O  O105  1  0.60322756  0.22563558  0.70039467  1
  O  O106  1  0.01627810  0.80783420  0.70196285  1
  O  O107  1  0.51513070  0.80937407  0.69902390  1
  O  O108  1  0.39079106  0.79513954  0.19119072  1
  O  O109  1  0.88707404  0.78859544  0.18625197  1
  O  O110  1  0.01521474  0.22821392  0.20166715  1
  O  O111  1  0.51274962  0.22390764  0.20080203  1
  O  O112  1  0.09687807  0.97506781  0.19713959  1
  O  O113  1  0.59686414  0.97954331  0.19889369  1
  O  O114  1  0.44519707  0.35952383  0.63340766  1
  O  O115  1  0.94821832  0.35175610  0.63885229  1
  O  O116  1  0.22771410  0.10297928  0.64606952  1
  O  O117  1  0.72946910  0.10711597  0.64214158  1
  O  O118  1  0.32875423  0.54659522  0.63753062  1
  O  O119  1  0.82998927  0.55572723  0.63951330  1
  O  O120  1  0.44998588  0.54360038  0.13617899  1
  O  O121  1  0.95058043  0.54472716  0.13646788  1
  O  O122  1  0.32662893  0.11377477  0.13286923  1
  O  O123  1  0.82707879  0.11436142  0.13275749  1
  O  O124  1  0.22940768  0.34768572  0.14579156  1
  O  O125  1  0.72950955  0.34745310  0.14535168  1
  O  O126  1  0.23283860  0.30399399  0.03507837  1
  O  O127  1  0.73254448  0.30357150  0.03464187  1
  O  O128  1  0.43138285  0.54509791  0.03522821  1
  O  O129  1  0.93140200  0.54415447  0.03541516  1
  O  O130  1  0.34404788  0.13585790  0.03132354  1
  O  O131  1  0.84423669  0.13711852  0.03115629  1
  O  O132  1  0.23488195  0.14558781  0.53372271  1
  O  O133  1  0.72790571  0.13357135  0.52835884  1
  O  O134  1  0.34499129  0.55065511  0.53535502  1
  O  O135  1  0.84131979  0.54612946  0.53758755  1
  O  O136  1  0.43112173  0.31477150  0.53272300  1
  O  O137  1  0.92810563  0.31890650  0.53767270  1
  O  O138  1  0.27568719  0.67690786  0.96790046  1
  O  O139  1  0.77507558  0.67549064  0.96739070  1
  O  O140  1  0.06340941  0.45932267  0.96299186  1
  O  O141  1  0.56039137  0.45156232  0.96769178  1
  O  O142  1  0.16173668  0.87656925  0.96967282  1
  O  O143  1  0.66254792  0.87741651  0.96927256  1
  O  O144  1  0.27618432  0.86784385  0.47009914  1
  O  O145  1  0.78115054  0.88200313  0.47194778  1
  O  O146  1  0.15958074  0.45595874  0.46573040  1
  O  O147  1  0.66562786  0.44925232  0.46554019  1
  O  O148  1  0.06444520  0.66937647  0.46308006  1
  O  O149  1  0.56699676  0.68603688  0.47277478  1
  O  O150  1  0.05418099  0.65054566  0.36087910  1
  O  O151  1  0.56141814  0.65741976  0.35892504  1
  O  O152  1  0.26432562  0.87728852  0.36891149  1
  O  O153  1  0.76466453  0.88522827  0.37080811  1
  O  O154  1  0.17397257  0.46819016  0.36403678  1
  O  O155  1  0.67716193  0.45875430  0.36346247  1
  O  O156  1  0.05360802  0.45571009  0.86096612  1
  O  O157  1  0.55729848  0.46297907  0.86586241  1
  O  O158  1  0.17176241  0.88095240  0.86737380  1
  O  O159  1  0.67202050  0.87921779  0.86689823  1
  O  O160  1  0.26926322  0.64825380  0.86616676  1
  O  O161  1  0.76772908  0.64933935  0.86532705  1
  O  O162  1  0.00746809  0.81307215  0.41424106  1
  O  O163  1  0.50738558  0.83862529  0.41596174  1
  O  O164  1  0.39763446  0.97856064  0.41350344  1
  O  O165  1  0.90200846  0.00345232  0.41308521  1
  O  O166  1  0.09545687  0.20137297  0.41255702  1
  O  O167  1  0.59757834  0.19440839  0.41324213  1
  O  O168  1  0.00637675  0.20036597  0.91526463  1
  O  O169  1  0.50638044  0.20016920  0.91580855  1
  O  O170  1  0.09431908  0.99169762  0.91488649  1
  O  O171  1  0.59470823  0.99093601  0.91405008  1
  O  O172  1  0.40188473  0.81046734  0.91448208  1
  O  O173  1  0.90032102  0.80952574  0.91322286  1
  O  O174  1  0.48385024  0.17453049  0.58724974  1
  O  O175  1  0.98022057  0.16729263  0.58634019  1
  O  O176  1  0.08728749  0.00442335  0.58599444  1
  O  O177  1  0.58346130  0.99361945  0.58567521  1
  O  O178  1  0.41248857  0.80476968  0.58645142  1
  O  O179  1  0.90823377  0.80921366  0.58457779  1
  O  O180  1  0.48389951  0.79959838  0.08631743  1
  O  O181  1  0.98473868  0.80025525  0.08587941  1
  O  O182  1  0.40339494  0.00131215  0.08446264  1
  O  O183  1  0.90418480  0.00344011  0.08406623  1
  O  O184  1  0.08954804  0.15369346  0.08688564  1
  O  O185  1  0.58983587  0.15368050  0.08656093  1
  O  O186  1  0.33041536  0.15202319  0.75072973  1
  O  O187  1  0.83820703  0.16402916  0.74733743  1
  O  O188  1  0.23517159  0.34146793  0.74405684  1
  O  O189  1  0.73751653  0.33196340  0.74602783  1
  O  O190  1  0.42479411  0.54485472  0.74531890  1
  O  O191  1  0.92512137  0.53755480  0.74575171  1
  O  O192  1  0.34019555  0.50755487  0.25006757  1
  O  O193  1  0.83943618  0.50789116  0.24886907  1
  O  O194  1  0.43149994  0.33232770  0.24611149  1
  O  O195  1  0.93020085  0.32912732  0.24688984  1
  O  O196  1  0.23094677  0.13511566  0.24390144  1
  O  O197  1  0.73192778  0.13976981  0.24406638  1
  O  O198  1  0.32507061  0.51126763  0.92044764  1
  O  O199  1  0.82370395  0.51003106  0.91890710  1
  O  O200  1  0.43031833  0.34883151  0.91850382  1
  O  O201  1  0.93012898  0.34931343  0.91747600  1
  O  O202  1  0.24463902  0.13555433  0.91851017  1
  O  O203  1  0.74517044  0.13520458  0.91734991  1
  O  O204  1  0.32413307  0.13134736  0.42033821  1
  O  O205  1  0.81997116  0.13854491  0.42145918  1
  O  O206  1  0.24578939  0.36667838  0.41879241  1
  O  O207  1  0.74574303  0.34468453  0.41780745  1
  O  O208  1  0.41768864  0.50714193  0.41817540  1
  O  O209  1  0.93070176  0.51075998  0.41823572  1
  O  O210  1  0.17851753  0.50141307  0.08073382  1
  O  O211  1  0.67869742  0.50172827  0.08073904  1
  O  O212  1  0.07067397  0.67793809  0.07650876  1
  O  O213  1  0.57057014  0.67907543  0.07651590  1
  O  O214  1  0.25481629  0.86963297  0.07715426  1
  O  O215  1  0.75533380  0.87068025  0.07687563  1
  O  O216  1  0.17839244  0.84815033  0.58145495  1
  O  O217  1  0.67194062  0.83896510  0.58230351  1
  O  O218  1  0.26357653  0.66092050  0.57935243  1
  O  O219  1  0.75995806  0.65632751  0.58044859  1
  O  O220  1  0.06680787  0.46658553  0.57815762  1
  O  O221  1  0.56667107  0.47469883  0.57679401  1
  O  O222  1  0.14583295  0.83543054  0.25580802  1
  O  O223  1  0.65002863  0.83896573  0.25362403  1
  O  O224  1  0.25086834  0.66055289  0.25180651  1
  O  O225  1  0.75232104  0.66363551  0.25344686  1
  O  O226  1  0.07792993  0.47628279  0.25600182  1
  O  O227  1  0.58010105  0.47457239  0.25353813  1
  O  O228  1  0.14872072  0.46230395  0.75874159  1
  O  O229  1  0.66045628  0.47206765  0.75713784  1
  O  O230  1  0.07374810  0.67583439  0.75760819  1
  O  O231  1  0.57588372  0.68718651  0.75583416  1
  O  O232  1  0.25235805  0.82097131  0.75298963  1
  O  O233  1  0.75533132  0.83038604  0.75617867  1
