# generated using pymatgen
data_Na10Sc6Nb2Si7S5O48
_symmetry_space_group_name_H-M   'P 1'
_cell_length_a   18.14731088
_cell_length_b   9.07010724
_cell_length_c   22.72290005
_cell_angle_alpha   90.02977102
_cell_angle_beta   90.04225194
_cell_angle_gamma   119.99946022
_symmetry_Int_Tables_number   1
_chemical_formula_structural   Na10Sc6Nb2Si7S5O48
_chemical_formula_sum   'Na30 Sc18 Nb6 Si21 S15 O144'
_cell_volume   3239.07576358
_cell_formula_units_Z   3
loop_
 _symmetry_equiv_pos_site_id
 _symmetry_equiv_pos_as_xyz
  1  'x, y, z'
loop_
 _atom_site_type_symbol
 _atom_site_label
 _atom_site_symmetry_multiplicity
 _atom_site_fract_x
 _atom_site_fract_y
 _atom_site_fract_z
 _atom_site_occupancy
  Na  Na0  1  0.31674844  0.00121778  0.24475210  1
  Na  Na1  1  0.81571962  0.01171034  0.24584754  1
  Na  Na2  1  0.18725845  0.36817495  0.24689886  1
  Na  Na3  1  0.31835590  0.62252048  0.74703188  1
  Na  Na4  1  0.81596889  0.63167807  0.74487031  1
  Na  Na5  1  0.68678196  0.00569404  0.74754715  1
  Na  Na6  1  0.16299166  0.33852214  0.58461817  1
  Na  Na7  1  0.65716646  0.33624891  0.57816745  1
  Na  Na8  1  0.01599533  0.69882022  0.57336900  1
  Na  Na9  1  0.15927922  0.98214694  0.08143605  1
  Na  Na10  1  0.66200896  0.98577417  0.08430149  1
  Na  Na11  1  0.51517362  0.33184096  0.07244655  1
  Na  Na12  1  0.85044060  0.02267520  0.92090457  1
  Na  Na13  1  0.66466798  0.31029504  0.91948313  1
  Na  Na14  1  0.48450594  0.29109041  0.42088897  1
  Na  Na15  1  0.16678236  0.02143242  0.42089839  1
  Na  Na16  1  0.66656552  0.05179642  0.41568156  1
  Na  Na17  1  0.84925432  0.65593160  0.41612322  1
  Na  Na18  1  0.99665380  0.99215407  0.49813070  1
  Na  Na19  1  0.48508820  0.97940747  0.49502117  1
  Na  Na20  1  0.99513598  0.99061513  0.99596448  1
  Na  Na21  1  0.48699457  -0.00022635  0.99489004  1
  Na  Na22  1  0.33725495  0.33117564  0.83226688  1
  Na  Na23  1  0.84083962  0.34344970  0.83193039  1
  Na  Na24  1  0.33542466  0.35069045  0.33212205  1
  Na  Na25  1  0.83779237  0.34389659  0.33015667  1
  Na  Na26  1  0.16691721  0.65194776  0.16186988  1
  Na  Na27  1  0.67624714  0.66987091  0.16295912  1
  Na  Na28  1  0.17779772  0.68764095  0.66232325  1
  Na  Na29  1  0.66695348  0.68336508  0.66112183  1
  Sc  Sc30  1  0.00395897  0.00518558  0.35017324  1
  Sc  Sc31  1  0.50030856  0.99345576  0.35206702  1
  Sc  Sc32  1  0.00262775  0.00793460  0.85145553  1
  Sc  Sc33  1  0.49933016  0.00307824  0.85116135  1
  Sc  Sc34  1  0.32744654  0.33246281  0.68637732  1
  Sc  Sc35  1  0.82580635  0.31934142  0.68433277  1
  Sc  Sc36  1  0.32584294  0.33125015  0.18403370  1
  Sc  Sc37  1  0.82717798  0.32250773  0.18594051  1
  Sc  Sc38  1  0.33259512  0.31601265  0.98007001  1
  Sc  Sc39  1  0.83007566  0.33520100  0.98612516  1
  Sc  Sc40  1  0.32712277  0.33259933  0.48632795  1
  Sc  Sc41  1  0.83231632  0.34654230  0.48091838  1
  Sc  Sc42  1  0.17156496  0.66407932  0.02188254  1
  Sc  Sc43  1  0.67579023  0.65851060  0.01841487  1
  Sc  Sc44  1  0.17735124  0.69398835  0.51846168  1
  Sc  Sc45  1  0.66911331  0.66561975  0.52212391  1
  Sc  Sc46  1  0.66517193  0.66074131  0.31277401  1
  Sc  Sc47  1  0.16448542  0.65701761  0.81302794  1
  Nb  Nb48  1  0.99897185  0.00694884  0.64954153  1
  Nb  Nb49  1  0.50476498  0.98709664  0.64554996  1
  Nb  Nb50  1  0.00464702  0.02238291  0.14521456  1
  Nb  Nb51  1  0.49829177  0.98913989  0.14900376  1
  Nb  Nb52  1  0.16346905  0.67880251  0.31069736  1
  Nb  Nb53  1  0.66232246  0.64524531  0.81083523  1
  Si  Si54  1  0.14507037  0.00116496  0.24947237  1
  Si  Si55  1  0.64792609  0.99609397  0.25382035  1
  Si  Si56  1  0.35406460  0.70205425  0.25314328  1
  Si  Si57  1  0.99822750  0.29574337  0.25375593  1
  Si  Si58  1  0.14782360  0.29702681  0.75257601  1
  Si  Si59  1  0.64411145  0.28629867  0.75012823  1
  Si  Si60  1  0.49846241  0.70193571  0.75440519  1
  Si  Si61  1  0.85438476  0.00632365  0.75499866  1
  Si  Si62  1  0.18525868  0.03613916  0.58496133  1
  Si  Si63  1  0.68737998  0.03457301  0.58159837  1
  Si  Si64  1  0.33190569  0.62728975  0.58481690  1
  Si  Si65  1  0.83442456  0.63043895  0.58589271  1
  Si  Si66  1  0.33406611  0.03984588  0.08616349  1
  Si  Si67  1  0.83202213  0.03741973  0.08228996  1
  Si  Si68  1  0.18878341  0.33786577  0.08221800  1
  Si  Si69  1  0.68532289  0.33408474  0.08506274  1
  Si  Si70  1  0.81871967  0.66677217  0.91494250  1
  Si  Si71  1  0.51546672  0.36958733  0.91920043  1
  Si  Si72  1  0.31693683  0.96970147  0.41482515  1
  Si  Si73  1  0.66548005  0.37371526  0.41774556  1
  Si  Si74  1  0.01765507  0.66341762  0.41885631  1
  S  S75  1  0.85613937  0.71188490  0.25038156  1
  S  S76  1  0.50167348  0.29335372  0.24881446  1
  S  S77  1  0.00236689  0.71197082  0.74932505  1
  S  S78  1  0.35503782  0.99929169  0.74995377  1
  S  S79  1  0.47882474  0.32940248  0.58377901  1
  S  S80  1  0.97801249  0.32882761  0.58339578  1
  S  S81  1  0.47763830  0.62597747  0.08298349  1
  S  S82  1  0.98026447  0.63011993  0.08418923  1
  S  S83  1  0.31253328  0.66547663  0.91604476  1
  S  S84  1  0.02048656  0.37720859  0.91723354  1
  S  S85  1  0.16524031  0.95336994  0.91699085  1
  S  S86  1  0.66582694  0.95554410  0.91668639  1
  S  S87  1  0.81268426  0.95785676  0.41603417  1
  S  S88  1  0.16633351  0.37697785  0.41646229  1
  S  S89  1  0.52111232  0.66303785  0.41721627  1
  O  O90  1  0.10347865  0.03020795  0.30782338  1
  O  O91  1  0.60418656  0.01665608  0.31251786  1
  O  O92  1  0.41105045  0.80220089  0.30824620  1
  O  O93  1  0.90287086  0.78757681  0.30599063  1
  O  O94  1  0.48928572  0.19031196  0.30193648  1
  O  O95  1  0.98084368  0.16481904  0.30672345  1
  O  O96  1  0.09896906  0.17730225  0.80723601  1
  O  O97  1  0.60232535  0.17293784  0.80788256  1
  O  O98  1  0.48119249  0.79873714  0.80698077  1
  O  O99  1  0.98768061  0.79227333  0.80054625  1
  O  O100  1  0.40446194  0.02045159  0.80360182  1
  O  O101  1  0.90802569  0.02215312  0.81298891  1
  O  O102  1  0.39643978  0.96997818  0.69787221  1
  O  O103  1  0.90451055  0.97346361  0.69783558  1
  O  O104  1  0.08580016  0.19649895  0.69289273  1
  O  O105  1  0.58505673  0.19440540  0.69134201  1
  O  O106  1  0.01401623  0.81676226  0.69470437  1
  O  O107  1  0.51490563  0.83218898  0.69459663  1
  O  O108  1  0.40150918  0.83052872  0.19464963  1
  O  O109  1  0.90098245  0.82595080  0.19955865  1
  O  O110  1  0.01442227  0.19725646  0.19441066  1
  O  O111  1  0.51166405  0.20651096  0.19541835  1
  O  O112  1  0.08592620  0.97669227  0.19104306  1
  O  O113  1  0.58349218  0.97734430  0.19568047  1
  O  O114  1  0.43669867  0.34894198  0.63516155  1
  O  O115  1  0.93876163  0.35336170  0.63633712  1
  O  O116  1  0.24619349  0.13433228  0.63917287  1
  O  O117  1  0.73831292  0.11931157  0.64248681  1
  O  O118  1  0.31961085  0.51746989  0.64408515  1
  O  O119  1  0.82357495  0.51662288  0.64374478  1
  O  O120  1  0.43845665  0.52269990  0.13608142  1
  O  O121  1  0.94247809  0.52934692  0.13696461  1
  O  O122  1  0.31956567  0.12151930  0.14569921  1
  O  O123  1  0.82084342  0.12811586  0.14055351  1
  O  O124  1  0.23675029  0.35842183  0.14470353  1
  O  O125  1  0.74664651  0.36008681  0.13932945  1
  O  O126  1  0.23184413  0.29152398  0.02870186  1
  O  O127  1  0.72218694  0.29200421  0.02468790  1
  O  O128  1  0.42617185  0.55186876  0.03026787  1
  O  O129  1  0.92805751  0.55070366  0.03087972  1
  O  O130  1  0.35910278  0.17060812  0.03078301  1
  O  O131  1  0.84992062  0.15142872  0.02238225  1
  O  O132  1  0.22016863  0.15048812  0.52420473  1
  O  O133  1  0.72816613  0.15854320  0.52493802  1
  O  O134  1  0.35016565  0.54143719  0.52766043  1
  O  O135  1  0.85745105  0.55665358  0.52696287  1
  O  O136  1  0.43043979  0.30790281  0.52828414  1
  O  O137  1  0.92657535  0.30096387  0.53054859  1
  O  O138  1  0.26805317  0.68581738  0.96742330  1
  O  O139  1  0.77216904  0.70173947  0.96981645  1
  O  O140  1  0.07058369  0.46550519  0.96949728  1
  O  O141  1  0.57492385  0.45977070  0.97645491  1
  O  O142  1  0.15730496  0.85731988  0.97169198  1
  O  O143  1  0.65625674  0.85803950  0.97045223  1
  O  O144  1  0.27087719  0.85439452  0.47172863  1
  O  O145  1  0.76912538  0.84715970  0.46705027  1
  O  O146  1  0.15659962  0.45521525  0.47017887  1
  O  O147  1  0.65139720  0.46040751  0.47664964  1
  O  O148  1  0.07617835  0.69502017  0.47635526  1
  O  O149  1  0.57425655  0.68698594  0.46922518  1
  O  O150  1  0.07391111  0.65268046  0.36057094  1
  O  O151  1  0.56231783  0.64330123  0.36355242  1
  O  O152  1  0.25270522  0.86236941  0.35670165  1
  O  O153  1  0.76234600  0.88267813  0.36118820  1
  O  O154  1  0.17414906  0.47685107  0.36266682  1
  O  O155  1  0.67955095  0.50173075  0.36223311  1
  O  O156  1  0.06278294  0.47705045  0.86332600  1
  O  O157  1  0.57361011  0.49533835  0.86080006  1
  O  O158  1  0.17238774  0.86121878  0.86511698  1
  O  O159  1  0.67601648  0.87121071  0.86344114  1
  O  O160  1  0.26299433  0.65028854  0.86118682  1
  O  O161  1  0.75422728  0.64514682  0.85627297  1
  O  O162  1  0.00826624  0.83507042  0.41151944  1
  O  O163  1  0.51244946  0.81668016  0.41350342  1
  O  O164  1  0.41211318  0.00069824  0.40915626  1
  O  O165  1  0.89670854  0.96720045  0.41238296  1
  O  O166  1  0.09047384  0.20127456  0.41272058  1
  O  O167  1  0.58213246  0.18344722  0.41321971  1
  O  O168  1  0.01205886  0.20508988  0.91500452  1
  O  O169  1  0.51348201  0.18754217  0.91153991  1
  O  O170  1  0.08869355  0.97036841  0.91265051  1
  O  O171  1  0.59213458  0.98281243  0.91222837  1
  O  O172  1  0.39732451  0.82065307  0.91340374  1
  O  O173  1  0.91104486  0.83762737  0.91015051  1
  O  O174  1  0.48937409  0.17541608  0.58848034  1
  O  O175  1  0.98774345  0.17195829  0.58955851  1
  O  O176  1  0.08905159  0.02410691  0.59384911  1
  O  O177  1  0.59155883  0.02796401  0.58974334  1
  O  O178  1  0.41521988  0.82420338  0.59441237  1
  O  O179  1  0.92140176  0.82161455  0.59460938  1
  O  O180  1  0.48812529  0.80285729  0.08966432  1
  O  O181  1  0.99030230  0.80513330  0.08893850  1
  O  O182  1  0.42064307  0.02129643  0.09437052  1
  O  O183  1  0.91536265  0.00715142  0.09408759  1
  O  O184  1  0.09157940  0.15571662  0.08954792  1
  O  O185  1  0.58940909  0.15368407  0.09387155  1
  O  O186  1  0.34522475  0.14851961  0.74313584  1
  O  O187  1  0.84051342  0.16707803  0.74651680  1
  O  O188  1  0.24252598  0.32341963  0.74714186  1
  O  O189  1  0.74100723  0.32078701  0.74581082  1
  O  O190  1  0.41872168  0.51634362  0.74435599  1
  O  O191  1  0.92642093  0.54258115  0.74268196  1
  O  O192  1  0.33971503  0.51283087  0.24604809  1
  O  O193  1  0.84674578  0.54389198  0.24396141  1
  O  O194  1  0.42512456  0.30874295  0.24237961  1
  O  O195  1  0.91804431  0.32020732  0.24422503  1
  O  O196  1  0.24132948  0.16152564  0.24588191  1
  O  O197  1  0.74203144  0.16288182  0.24675201  1
  O  O198  1  0.31913234  0.51144680  0.92106016  1
  O  O199  1  0.81695929  0.48493128  0.91823093  1
  O  O200  1  0.42392133  0.35881896  0.91802089  1
  O  O201  1  0.93344540  0.35411683  0.91914105  1
  O  O202  1  0.24322438  0.12344280  0.91882294  1
  O  O203  1  0.74575964  0.12668797  0.91867444  1
  O  O204  1  0.32037649  0.15506718  0.41692250  1
  O  O205  1  0.82120639  0.12686962  0.42263402  1
  O  O206  1  0.24322373  0.35738581  0.41831749  1
  O  O207  1  0.75171031  0.35665134  0.42029033  1
  O  O208  1  0.43702009  0.50541038  0.42158205  1
  O  O209  1  0.92428879  0.49534204  0.41774013  1
  O  O210  1  0.16955242  0.49291429  0.07558706  1
  O  O211  1  0.66298243  0.48624144  0.08162422  1
  O  O212  1  0.06807961  0.65903104  0.07674519  1
  O  O213  1  0.56459711  0.65367931  0.07791799  1
  O  O214  1  0.24699599  0.85736520  0.07645723  1
  O  O215  1  0.74351175  0.85530273  0.07758996  1
  O  O216  1  0.16258745  0.83899992  0.58208122  1
  O  O217  1  0.66791869  0.84203671  0.57615847  1
  O  O218  1  0.24354776  0.63226434  0.57820305  1
  O  O219  1  0.74775687  0.63997894  0.57966087  1
  O  O220  1  0.06481774  0.47505877  0.57802386  1
  O  O221  1  0.56603777  0.47937965  0.57996217  1
  O  O222  1  0.15410476  0.82695614  0.25320655  1
  O  O223  1  0.65955412  0.82736432  0.25263468  1
  O  O224  1  0.25900124  0.68895460  0.25645986  1
  O  O225  1  0.77174537  0.70395113  0.25293685  1
  O  O226  1  0.09097474  0.47259380  0.25868170  1
  O  O227  1  0.57881836  0.46262096  0.25199503  1
  O  O228  1  0.15799666  0.48921960  0.75458960  1
  O  O229  1  0.65365659  0.47939529  0.75358126  1
  O  O230  1  0.08003511  0.69885727  0.75460632  1
  O  O231  1  0.59126228  0.70977437  0.75923508  1
  O  O232  1  0.26962500  0.83979661  0.75483367  1
  O  O233  1  0.75961349  0.82911561  0.75670804  1
