# generated using pymatgen
data_VF5
_symmetry_space_group_name_H-M   'P 1'
_cell_length_a   5.39836063
_cell_length_b   7.40280800
_cell_length_c   16.08718786
_cell_angle_alpha   90.00000000
_cell_angle_beta   90.00000000
_cell_angle_gamma   90.00000000
_symmetry_Int_Tables_number   1
_chemical_formula_structural   VF5
_chemical_formula_sum   'V8 F40'
_cell_volume   642.89272696
_cell_formula_units_Z   8
loop_
 _symmetry_equiv_pos_site_id
 _symmetry_equiv_pos_as_xyz
  1  'x, y, z'
loop_
 _atom_site_type_symbol
 _atom_site_label
 _atom_site_symmetry_multiplicity
 _atom_site_fract_x
 _atom_site_fract_y
 _atom_site_fract_z
 _atom_site_occupancy
  V  V0  1  0.75000000  0.95750128  0.35868115  1
  V  V1  1  0.25000000  0.04249872  0.64131885  1
  V  V2  1  0.75000000  0.45750128  0.14131885  1
  V  V3  1  0.25000000  0.54249872  0.85868115  1
  V  V4  1  0.25000000  0.60550164  0.38020731  1
  V  V5  1  0.75000000  0.39449836  0.61979269  1
  V  V6  1  0.25000000  0.10550164  0.11979269  1
  V  V7  1  0.75000000  0.89449836  0.88020731  1
  F  F8  1  0.48619494  0.89337949  0.62286279  1
  F  F9  1  0.98619494  0.10662051  0.37713721  1
  F  F10  1  0.01380506  0.39337949  0.87713721  1
  F  F11  1  0.51380506  0.60662051  0.12286279  1
  F  F12  1  0.51380506  0.10662051  0.37713721  1
  F  F13  1  0.01380506  0.89337949  0.62286279  1
  F  F14  1  0.98619494  0.60662051  0.12286279  1
  F  F15  1  0.48619494  0.39337949  0.87713721  1
  F  F16  1  0.75000000  0.74173201  0.96293103  1
  F  F17  1  0.25000000  0.25826799  0.03706897  1
  F  F18  1  0.75000000  0.24173201  0.53706897  1
  F  F19  1  0.25000000  0.75826799  0.46293103  1
  F  F20  1  0.75000000  0.97938381  0.77939538  1
  F  F21  1  0.25000000  0.02061619  0.22060462  1
  F  F22  1  0.75000000  0.47938381  0.72060462  1
  F  F23  1  0.25000000  0.52061619  0.27939538  1
  F  F24  1  0.51358767  0.02757181  0.91658601  1
  F  F25  1  0.01358767  0.97242819  0.08341399  1
  F  F26  1  0.98641233  0.52757181  0.58341399  1
  F  F27  1  0.48641233  0.47242819  0.41658601  1
  F  F28  1  0.48641233  0.97242819  0.08341399  1
  F  F29  1  0.98641233  0.02757181  0.91658601  1
  F  F30  1  0.01358767  0.47242819  0.41658601  1
  F  F31  1  0.51358767  0.52757181  0.58341399  1
  F  F32  1  0.50075022  0.72946437  0.83387903  1
  F  F33  1  0.00075022  0.27053563  0.16612097  1
  F  F34  1  -0.00075022  0.22946437  0.66612097  1
  F  F35  1  0.49924978  0.77053563  0.33387903  1
  F  F36  1  0.49924978  0.27053563  0.16612097  1
  F  F37  1  -0.00075022  0.72946437  0.83387903  1
  F  F38  1  0.00075022  0.77053563  0.33387903  1
  F  F39  1  0.50075022  0.22946437  0.66612097  1
  F  F40  1  0.25000000  0.64392178  0.95644606  1
  F  F41  1  0.75000000  0.35607822  0.04355394  1
  F  F42  1  0.25000000  0.14392178  0.54355394  1
  F  F43  1  0.75000000  0.85607822  0.45644606  1
  F  F44  1  0.25000000  0.52386509  0.75088010  1
  F  F45  1  0.75000000  0.47613491  0.24911990  1
  F  F46  1  0.25000000  0.02386509  0.74911990  1
  F  F47  1  0.75000000  0.97613491  0.25088010  1
