# generated using pymatgen
data_MgCo4(NiO6)2
_symmetry_space_group_name_H-M   'P 1'
_cell_length_a   4.90243081
_cell_length_b   4.96350950
_cell_length_c   9.93114556
_cell_angle_alpha   81.98625614
_cell_angle_beta   85.60921207
_cell_angle_gamma   59.60892708
_symmetry_Int_Tables_number   1
_chemical_formula_structural   MgCo4(NiO6)2
_chemical_formula_sum   'Mg1 Co4 Ni2 O12'
_cell_volume   206.41091209
_cell_formula_units_Z   1
loop_
 _symmetry_equiv_pos_site_id
 _symmetry_equiv_pos_as_xyz
  1  'x, y, z'
loop_
 _atom_site_type_symbol
 _atom_site_label
 _atom_site_symmetry_multiplicity
 _atom_site_fract_x
 _atom_site_fract_y
 _atom_site_fract_z
 _atom_site_occupancy
  Mg  Mg0  1  0.00734400  0.39826700  0.75366100  1
  Co  Co1  1  0.33146800  0.34718200  0.00573300  1
  Co  Co2  1  0.33654300  0.82536200  0.49605700  1
  Co  Co3  1  0.66126100  0.15152100  0.50194400  1
  Co  Co4  1  0.66952600  0.67787000  0.00557100  1
  Ni  Ni5  1  0.00042800  0.00968700  0.00578200  1
  Ni  Ni6  1  0.00191300  0.48853400  0.48958900  1
  O  O7  1  0.99933200  0.14032000  0.59873700  1
  O  O8  1  0.99837200  0.34739800  0.10432700  1
  O  O9  1  0.00238700  0.67671900  0.89424700  1
  O  O10  1  0.32546000  0.05011200  0.90300100  1
  O  O11  1  0.00094100  0.85140400  0.40289200  1
  O  O12  1  0.33760300  0.19209500  0.39540800  1
  O  O13  1  0.31233100  0.44403900  0.60421300  1
  O  O14  1  0.33554500  0.64690100  0.09792300  1
  O  O15  1  0.66247900  0.98352000  0.09790700  1
  O  O16  1  0.67886200  0.37392700  0.90247100  1
  O  O17  1  0.65848400  0.51079800  0.40366900  1
  O  O18  1  0.67972100  0.77323400  0.60075700  1
