# generated using pymatgen
data_Zn3Mo2O9
_symmetry_space_group_name_H-M   'P 1'
_cell_length_a   7.10299985
_cell_length_b   7.75846075
_cell_length_c   8.40562321
_cell_angle_alpha   62.24655411
_cell_angle_beta   90.00000000
_cell_angle_gamma   90.00000000
_symmetry_Int_Tables_number   1
_chemical_formula_structural   Zn3Mo2O9
_chemical_formula_sum   'Zn6 Mo4 O18'
_cell_volume   409.93099081
_cell_formula_units_Z   2
loop_
 _symmetry_equiv_pos_site_id
 _symmetry_equiv_pos_as_xyz
  1  'x, y, z'
loop_
 _atom_site_type_symbol
 _atom_site_label
 _atom_site_symmetry_multiplicity
 _atom_site_fract_x
 _atom_site_fract_y
 _atom_site_fract_z
 _atom_site_occupancy
  Zn  Zn0  1  0.00000000  0.50000000  0.50000000  1
  Zn  Zn1  1  0.50000000  0.50000000  0.50000000  1
  Zn  Zn2  1  0.25000000  0.64741452  0.70473224  1
  Zn  Zn3  1  0.75000000  0.35258548  0.29526776  1
  Zn  Zn4  1  0.25000000  0.84263105  0.26307611  1
  Zn  Zn5  1  0.75000000  0.15736895  0.73692389  1
  Mo  Mo6  1  0.25000000  0.34789337  0.19892195  1
  Mo  Mo7  1  0.75000000  0.65210663  0.80107805  1
  Mo  Mo8  1  0.25000000  0.05327179  0.78091004  1
  Mo  Mo9  1  0.75000000  0.94672821  0.21908996  1
  O  O10  1  0.25000000  0.10619801  0.23471611  1
  O  O11  1  0.75000000  0.89380199  0.76528389  1
  O  O12  1  0.25000000  0.50202490  0.96662719  1
  O  O13  1  0.75000000  0.49797510  0.03337281  1
  O  O14  1  0.04834633  0.20605029  0.72060393  1
  O  O15  1  0.54834633  0.79394971  0.27939607  1
  O  O16  1  0.95165367  0.79394971  0.27939607  1
  O  O17  1  0.45165367  0.20605029  0.72060393  1
  O  O18  1  0.25000000  0.91816529  0.66124864  1
  O  O19  1  0.75000000  0.08183471  0.33875136  1
  O  O20  1  0.25000000  0.89280369  0.01185482  1
  O  O21  1  0.75000000  0.10719631  0.98814518  1
  O  O22  1  0.04878095  0.39228911  0.29980325  1
  O  O23  1  0.54878095  0.60771089  0.70019675  1
  O  O24  1  0.95121905  0.60771089  0.70019675  1
  O  O25  1  0.45121905  0.39228911  0.29980325  1
  O  O26  1  0.25000000  0.60390937  0.49329394  1
  O  O27  1  0.75000000  0.39609063  0.50670606  1
