# generated using pymatgen
data_Na7Hf2In2Si3(PO8)3
_symmetry_space_group_name_H-M   'P 1'
_cell_length_a   9.19524328
_cell_length_b   9.18881308
_cell_length_c   22.59435615
_cell_angle_alpha   89.91282562
_cell_angle_beta   90.22855791
_cell_angle_gamma   120.07839635
_symmetry_Int_Tables_number   1
_chemical_formula_structural   Na7Hf2In2Si3(PO8)3
_chemical_formula_sum   'Na21 Hf6 In6 Si9 P9 O72'
_cell_volume   1651.98499207
_cell_formula_units_Z   3
loop_
 _symmetry_equiv_pos_site_id
 _symmetry_equiv_pos_as_xyz
  1  'x, y, z'
loop_
 _atom_site_type_symbol
 _atom_site_label
 _atom_site_symmetry_multiplicity
 _atom_site_fract_x
 _atom_site_fract_y
 _atom_site_fract_z
 _atom_site_occupancy
  Na  Na0  1  0.63190768  0.00396443  0.25338439  1
  Na  Na1  1  0.36768814  0.37210104  0.24724413  1
  Na  Na2  1  0.00012036  0.62153897  0.24999303  1
  Na  Na3  1  0.63122874  0.63446246  0.75034153  1
  Na  Na4  1  0.99032537  0.36228208  0.74861568  1
  Na  Na5  1  0.37674802  0.00225953  0.74655445  1
  Na  Na6  1  0.03298977  0.69313741  0.58322609  1
  Na  Na7  1  0.66093344  0.97290416  0.58302954  1
  Na  Na8  1  0.66735561  0.68726276  0.08179127  1
  Na  Na9  1  0.03036145  0.33884154  0.08692828  1
  Na  Na10  1  0.95683113  0.66336578  0.92023762  1
  Na  Na11  1  0.70289018  0.03194209  0.91535564  1
  Na  Na12  1  0.34273888  0.30513712  0.91868383  1
  Na  Na13  1  0.96706017  0.30752011  0.41532682  1
  Na  Na14  1  0.33660064  0.02618364  0.41847768  1
  Na  Na15  1  0.00080041  0.99898892  0.50013733  1
  Na  Na16  1  0.01009850  0.99371803  0.00053556  1
  Na  Na17  1  0.66663094  0.33349385  0.83327621  1
  Na  Na18  1  0.67589811  0.34342644  0.33422709  1
  Na  Na19  1  0.32327266  0.66649680  0.16683442  1
  Na  Na20  1  0.33352140  0.66102697  0.66528560  1
  Hf  Hf21  1  0.99185318  0.99653747  0.35465511  1
  Hf  Hf22  1  0.00158741  0.00497761  0.64652782  1
  Hf  Hf23  1  0.00737642  0.00437735  0.14680137  1
  Hf  Hf24  1  0.66569650  0.33193703  0.48298566  1
  Hf  Hf25  1  0.33585774  0.66992836  0.01884789  1
  Hf  Hf26  1  0.33368631  0.66647037  0.51683501  1
  In  In27  1  0.99525547  0.99899580  0.85054990  1
  In  In28  1  0.66720061  0.32885744  0.67954545  1
  In  In29  1  0.67002418  0.33562571  0.18105783  1
  In  In30  1  0.66309347  0.33646733  0.98707593  1
  In  In31  1  0.32924861  0.66405282  0.31882471  1
  In  In32  1  0.33847666  0.66858886  0.81595125  1
  Si  Si33  1  0.99954538  0.29626669  0.25032301  1
  Si  Si34  1  0.70248565  0.00196724  0.75014873  1
  Si  Si35  1  0.96674457  0.33556068  0.58406365  1
  Si  Si36  1  0.36636469  0.03323861  0.58318800  1
  Si  Si37  1  0.96849179  0.63407903  0.08355413  1
  Si  Si38  1  0.36722562  0.33240894  0.08290579  1
  Si  Si39  1  0.63190450  0.66436354  0.91581382  1
  Si  Si40  1  0.62905363  0.96342379  0.41599577  1
  Si  Si41  1  0.03383480  0.66536383  0.41579787  1
  P  P42  1  0.29159599  0.00118135  0.25146135  1
  P  P43  1  0.70823218  0.70932656  0.24934976  1
  P  P44  1  0.29300711  0.29245113  0.75132714  1
  P  P45  1  0.99850407  0.70434149  0.75027276  1
  P  P46  1  0.66479783  0.62626195  0.58552075  1
  P  P47  1  0.66577415  0.03474389  0.08393863  1
  P  P48  1  0.03974307  0.37347738  0.91616848  1
  P  P49  1  0.33500560  0.96244823  0.91517797  1
  P  P50  1  0.33611113  0.37203090  0.41469377  1
  O  O51  1  0.20532736  0.02002921  0.30754898  1
  O  O52  1  0.82333258  0.80283494  0.30328557  1
  O  O53  1  0.98009354  0.17859309  0.30825323  1
  O  O54  1  0.22370914  0.18980895  0.80901869  1
  O  O55  1  0.97591080  0.78187696  0.80766309  1
  O  O56  1  0.81474127  0.03824889  0.81049496  1
  O  O57  1  0.80150290  0.97637715  0.69359007  1
  O  O58  1  0.17611109  0.19226877  0.69851980  1
  O  O59  1  0.02291673  0.81881207  0.69596368  1
  O  O60  1  0.79395247  0.81399254  0.19325009  1
  O  O61  1  0.01908888  0.19950849  0.19252519  1
  O  O62  1  0.17716009  0.97959307  0.19756257  1
  O  O63  1  0.89949967  0.38403055  0.64342807  1
  O  O64  1  0.47877486  0.10472384  0.64320942  1
  O  O65  1  0.63634327  0.53040719  0.64403628  1
  O  O66  1  0.89673732  0.51425795  0.14240053  1
  O  O67  1  0.63436101  0.10755786  0.14023580  1
  O  O68  1  0.48597616  0.37583271  0.14196549  1
  O  O69  1  0.43843633  0.29515133  0.02301648  1
  O  O70  1  0.85182082  0.55890540  0.02438230  1
  O  O71  1  0.70474405  0.14655340  0.02868577  1
  O  O72  1  0.45877035  0.15241774  0.52595395  1
  O  O73  1  0.69358188  0.53432021  0.53398068  1
  O  O74  1  0.83921637  0.30351372  0.52800255  1
  O  O75  1  0.53387757  0.68991378  0.97232047  1
  O  O76  1  0.15235073  0.46950194  0.97015987  1
  O  O77  1  0.30948019  0.84299754  0.96736748  1
  O  O78  1  0.53814675  0.84582782  0.47339760  1
  O  O79  1  0.30502819  0.46270321  0.46603688  1
  O  O80  1  0.16054230  0.69526197  0.47194398  1
  O  O81  1  0.10099729  0.61814299  0.35589672  1
  O  O82  1  0.51608470  0.89005566  0.35583398  1
  O  O83  1  0.36681184  0.46827045  0.35604425  1
  O  O84  1  0.11166425  0.47912662  0.85916420  1
  O  O85  1  0.35875985  0.88923283  0.85678712  1
  O  O86  1  0.51880919  0.62891355  0.85572969  1
  O  O87  1  0.03338811  0.84402970  0.41126893  1
  O  O88  1  0.82206183  0.99414041  0.41248948  1
  O  O89  1  0.17324376  0.19391821  0.41121695  1
  O  O90  1  0.03709202  0.20301004  0.91533877  1
  O  O91  1  0.17614794  0.98141816  0.91411897  1
  O  O92  1  0.81820308  0.83785791  0.91638845  1
  O  O93  1  0.96903322  0.15742961  0.58908807  1
  O  O94  1  0.17320712  0.99974552  0.58818453  1
  O  O95  1  0.82910379  0.80323238  0.58900672  1
  O  O96  1  0.97486474  0.81505702  0.09153671  1
  O  O97  1  0.82331812  0.01281038  0.09089616  1
  O  O98  1  0.17282350  0.17454941  0.08951091  1
  O  O99  1  0.68305800  0.17021917  0.74675707  1
  O  O100  1  0.47221953  0.32028327  0.74443069  1
  O  O101  1  0.83660409  0.53043325  0.74516170  1
  O  O102  1  0.69203737  0.53351971  0.24849074  1
  O  O103  1  0.82587857  0.30692842  0.24884526  1
  O  O104  1  0.46550153  0.16334913  0.24720736  1
  O  O105  1  0.65187374  0.49646100  0.91888870  1
  O  O106  1  0.85969434  0.34449629  0.92252902  1
  O  O107  1  0.49750218  0.13527289  0.92196047  1
  O  O108  1  0.64690455  0.15134472  0.42317235  1
  O  O109  1  0.48516318  0.34263454  0.42478747  1
  O  O110  1  0.84830707  0.50042148  0.42599902  1
  O  O111  1  0.34983112  0.50348506  0.07614817  1
  O  O112  1  0.15368469  0.65144103  0.07531366  1
  O  O113  1  0.51371156  0.85456826  0.07595856  1
  O  O114  1  0.35177902  0.84656536  0.57582170  1
  O  O115  1  0.51620867  0.65692303  0.57573763  1
  O  O116  1  0.15221705  0.49960019  0.57399484  1
  O  O117  1  0.30822613  0.84189809  0.25212391  1
  O  O118  1  0.53460271  0.69747754  0.25309798  1
  O  O119  1  0.17312535  0.48130039  0.25127347  1
  O  O120  1  0.29554977  0.46269844  0.75155224  1
  O  O121  1  0.15749779  0.68550050  0.75211118  1
  O  O122  1  0.51652609  0.82857662  0.74975819  1
