# generated using pymatgen
data_Na3LaGa(PO4)3
_symmetry_space_group_name_H-M   'P 1'
_cell_length_a   9.17309393
_cell_length_b   9.10522247
_cell_length_c   22.96553175
_cell_angle_alpha   89.77992016
_cell_angle_beta   90.21961184
_cell_angle_gamma   119.60056670
_symmetry_Int_Tables_number   1
_chemical_formula_structural   Na3LaGa(PO4)3
_chemical_formula_sum   'Na18 La6 Ga6 P18 O72'
_cell_volume   1667.79720335
_cell_formula_units_Z   6
loop_
 _symmetry_equiv_pos_site_id
 _symmetry_equiv_pos_as_xyz
  1  'x, y, z'
loop_
 _atom_site_type_symbol
 _atom_site_label
 _atom_site_symmetry_multiplicity
 _atom_site_fract_x
 _atom_site_fract_y
 _atom_site_fract_z
 _atom_site_occupancy
  Na  Na0  1  0.00129510  0.00129831  0.50469134  1
  Na  Na1  1  0.99669971  0.99639184  0.00298977  1
  Na  Na2  1  0.63427581  0.31675880  0.83122232  1
  Na  Na3  1  0.68598601  0.36815435  0.33543939  1
  Na  Na4  1  0.32748474  0.66593162  0.17562492  1
  Na  Na5  1  0.33401883  0.66794905  0.66521754  1
  Na  Na6  1  0.63852657  0.00011013  0.24850938  1
  Na  Na7  1  0.36043971  0.36060823  0.24866450  1
  Na  Na8  1  0.63913692  0.63156900  0.74134779  1
  Na  Na9  1  0.98770710  0.35765857  0.73947552  1
  Na  Na10  1  0.04160374  0.70670299  0.58615875  1
  Na  Na11  1  0.66648271  0.96719430  0.58645722  1
  Na  Na12  1  0.29588816  0.96683444  0.09325633  1
  Na  Na13  1  0.02218160  0.32635985  0.09451735  1
  Na  Na14  1  0.97487271  0.66597269  0.91901265  1
  Na  Na15  1  0.69370484  0.02766765  0.91773497  1
  Na  Na16  1  0.96966924  0.30315530  0.41655096  1
  Na  Na17  1  0.33545233  0.03449034  0.41829637  1
  La  La18  1  0.98654677  0.98181843  0.34169037  1
  La  La19  1  0.02110272  0.01687032  0.84058564  1
  La  La20  1  0.65860934  0.34389455  0.99435988  1
  La  La21  1  0.34684373  0.65917541  0.02356348  1
  La  La22  1  0.33919516  0.65322322  0.52114990  1
  La  La23  1  0.33197845  0.67062399  0.81065653  1
  Ga  Ga24  1  0.01138917  0.00808815  0.64546076  1
  Ga  Ga25  1  0.99265099  0.98904834  0.15768903  1
  Ga  Ga26  1  0.65939241  0.32855165  0.67834953  1
  Ga  Ga27  1  0.67269018  0.34079369  0.18353252  1
  Ga  Ga28  1  0.65914063  0.33770647  0.48408435  1
  Ga  Ga29  1  0.32430850  0.66323472  0.31848917  1
  P  P30  1  0.31336974  -0.00003548  0.24912951  1
  P  P31  1  0.68968826  0.68667993  0.24613369  1
  P  P32  1  0.99930842  0.31393271  0.24902270  1
  P  P33  1  0.31286462  0.29769638  0.73736450  1
  P  P34  1  0.98471593  0.68811083  0.73848945  1
  P  P35  1  0.70788060  0.01200697  0.73808830  1
  P  P36  1  0.93792638  0.31860109  0.58466628  1
  P  P37  1  0.37201386  0.05892593  0.58287622  1
  P  P38  1  0.68822833  0.63108942  0.58662852  1
  P  P39  1  0.96211268  0.64582523  0.09045728  1
  P  P40  1  0.68324198  0.04107995  0.09367236  1
  P  P41  1  0.34466106  0.30833224  0.09829953  1
  P  P42  1  0.65047517  0.67054704  0.90979475  1
  P  P43  1  0.01904877  0.35573809  0.91794271  1
  P  P44  1  0.33431037  0.97510718  0.92259288  1
  P  P45  1  0.62402987  0.97396225  0.41643068  1
  P  P46  1  0.34888564  0.37401538  0.41078097  1
  P  P47  1  0.03131277  0.65028487  0.41961574  1
  O  O48  1  0.25087835  0.04638897  0.30421070  1
  O  O49  1  0.78141178  0.73454998  0.30425615  1
  O  O50  1  0.95112697  0.20567646  0.30497236  1
  O  O51  1  0.25943610  0.22092157  0.79860361  1
  O  O52  1  0.96985027  0.76012392  0.79784367  1
  O  O53  1  0.79844253  0.03923641  0.79773998  1
  O  O54  1  0.81667350  0.99573601  0.68917866  1
  O  O55  1  0.18010404  0.19081261  0.69122874  1
  O  O56  1  0.00280255  0.80890593  0.68792667  1
  O  O57  1  0.79188033  0.82565106  0.19973483  1
  O  O58  1  0.03445802  0.21694547  0.19940911  1
  O  O59  1  0.19187266  0.97081191  0.19739921  1
  O  O60  1  0.85060413  0.33647836  0.63940748  1
  O  O61  1  0.48694697  0.14993940  0.63453570  1
  O  O62  1  0.67294332  0.52989926  0.64214869  1
  O  O63  1  0.84523296  0.50742951  0.13349471  1
  O  O64  1  0.66562488  0.15164787  0.14132920  1
  O  O65  1  0.46583027  0.32397992  0.14737408  1
  O  O66  1  0.40849750  0.28405578  0.03905051  1
  O  O67  1  0.89157352  0.59731919  0.02767957  1
  O  O68  1  0.71105778  0.12977255  0.03335521  1
  O  O69  1  0.44834613  0.15420552  0.52403446  1
  O  O70  1  0.69861623  0.53830150  0.53134540  1
  O  O71  1  0.83017372  0.29511116  0.52845540  1
  O  O72  1  0.54890089  0.67628201  0.96261756  1
  O  O73  1  0.11701474  0.45114387  0.97324551  1
  O  O74  1  0.33269056  0.88438828  0.98014318  1
  O  O75  1  0.55270135  0.87866152  0.47343911  1
  O  O76  1  0.30445410  0.44477082  0.46339778  1
  O  O77  1  0.12579528  0.67801930  0.47724098  1
  O  O78  1  0.12809261  0.62127392  0.36799337  1
  O  O79  1  0.51174690  0.87603677  0.36233661  1
  O  O80  1  0.36639596  0.48055954  0.35436912  1
  O  O81  1  0.11150344  0.45090423  0.86170569  1
  O  O82  1  0.34066708  0.87263665  0.86993049  1
  O  O83  1  0.56346303  0.66756592  0.85185529  1
  O  O84  1  0.02052021  0.81243388  0.41066130  1
  O  O85  1  0.80725711  0.00993815  0.41115335  1
  O  O86  1  0.19762562  0.19148505  0.40550645  1
  O  O87  1  0.99120731  0.17470398  0.91945323  1
  O  O88  1  0.17069299  0.98196440  0.92048829  1
  O  O89  1  0.82347880  0.83202435  0.91399102  1
  O  O90  1  0.95911627  0.15774107  0.58737400  1
  O  O91  1  0.18876629  0.03016401  0.58771169  1
  O  O92  1  0.85209302  0.81130386  0.58649355  1
  O  O93  1  0.98586866  0.82379299  0.10147053  1
  O  O94  1  0.84202278  0.02517908  0.10305940  1
  O  O95  1  0.16874177  0.14800843  0.10405348  1
  O  O96  1  0.68428061  0.16860964  0.73225300  1
  O  O97  1  0.49261781  0.32528661  0.73100680  1
  O  O98  1  0.82386438  0.50974945  0.73595103  1
  O  O99  1  0.65687874  0.50479540  0.23338395  1
  O  O100  1  0.84701970  0.34014158  0.23623292  1
  O  O101  1  0.49518954  0.15256771  0.23872341  1
  O  O102  1  0.67413908  0.51461727  0.91265338  1
  O  O103  1  0.84547270  0.34641653  0.91718139  1
  O  O104  1  0.49548582  0.14856269  0.91886265  1
  O  O105  1  0.62873979  0.14987759  0.41947346  1
  O  O106  1  0.51333842  0.36563671  0.42070445  1
  O  O107  1  0.85572756  0.48629240  0.42315314  1
  O  O108  1  0.31816723  0.46367636  0.09893348  1
  O  O109  1  0.13792213  0.65734705  0.09385233  1
  O  O110  1  0.51868604  0.86923202  0.09516569  1
  O  O111  1  0.35382334  0.87862140  0.58313984  1
  O  O112  1  0.54058475  0.66777353  0.58823466  1
  O  O113  1  0.11069395  0.48105294  0.58448040  1
  O  O114  1  0.33128545  0.83778143  0.25799254  1
  O  O115  1  0.51482389  0.67913810  0.25067521  1
  O  O116  1  0.16712350  0.48543735  0.25702759  1
  O  O117  1  0.32545863  0.47521507  0.73626601  1
  O  O118  1  0.13700972  0.65744855  0.73650184  1
  O  O119  1  0.53781762  0.84540377  0.73698145  1
