# generated using pymatgen
data_MgV4O8
_symmetry_space_group_name_H-M   'P 1'
_cell_length_a   3.05283691
_cell_length_b   5.13104443
_cell_length_c   9.27179242
_cell_angle_alpha   91.37351605
_cell_angle_beta   90.13407926
_cell_angle_gamma   89.92424199
_symmetry_Int_Tables_number   1
_chemical_formula_structural   MgV4O8
_chemical_formula_sum   'Mg1 V4 O8'
_cell_volume   145.19335497
_cell_formula_units_Z   1
loop_
 _symmetry_equiv_pos_site_id
 _symmetry_equiv_pos_as_xyz
  1  'x, y, z'
loop_
 _atom_site_type_symbol
 _atom_site_label
 _atom_site_symmetry_multiplicity
 _atom_site_fract_x
 _atom_site_fract_y
 _atom_site_fract_z
 _atom_site_occupancy
  Mg  Mg0  1  0.24353400  0.44229500  0.92659100  1
  V  V1  1  0.26282200  0.43222900  0.62159600  1
  V  V2  1  0.24913600  0.05175400  0.15012100  1
  V  V3  1  0.75372400  0.55723600  0.35976100  1
  V  V4  1  0.74799600  0.94828100  0.84933200  1
  O  O5  1  0.75805300  0.29092500  0.51720800  1
  O  O6  1  0.24866900  0.81297900  0.98104900  1
  O  O7  1  0.74675200  0.22668600  0.01493700  1
  O  O8  1  0.25536400  0.69178200  0.48690200  1
  O  O9  1  0.75044000  0.87778300  0.23497200  1
  O  O10  1  0.75431800  0.58635100  0.76035100  1
  O  O11  1  0.24849800  0.14701700  0.75982200  1
  O  O12  1  0.25152700  0.35968200  0.25402500  1
