# generated using pymatgen
data_MgH12(BrO6)2
_symmetry_space_group_name_H-M   'P 1'
_cell_length_a   10.54614500
_cell_length_b   10.54614500
_cell_length_c   10.54614500
_cell_angle_alpha   90.00000000
_cell_angle_beta   90.00000000
_cell_angle_gamma   90.00000000
_symmetry_Int_Tables_number   1
_chemical_formula_structural   MgH12(BrO6)2
_chemical_formula_sum   'Mg4 H48 Br8 O48'
_cell_volume   1172.95463188
_cell_formula_units_Z   4
loop_
 _symmetry_equiv_pos_site_id
 _symmetry_equiv_pos_as_xyz
  1  'x, y, z'
loop_
 _atom_site_type_symbol
 _atom_site_label
 _atom_site_symmetry_multiplicity
 _atom_site_fract_x
 _atom_site_fract_y
 _atom_site_fract_z
 _atom_site_occupancy
  Mg  Mg0  1  0.00000000  0.00000000  0.00000000  1
  Mg  Mg1  1  0.50000000  0.00000000  0.50000000  1
  Mg  Mg2  1  0.50000000  0.50000000  0.00000000  1
  Mg  Mg3  1  0.00000000  0.50000000  0.50000000  1
  H  H4  1  0.25880300  0.03058400  0.42610600  1
  H  H5  1  0.75880300  0.46941600  0.57389400  1
  H  H6  1  0.74119700  0.53058400  0.07389400  1
  H  H7  1  0.46941600  0.57389400  0.75880300  1
  H  H8  1  0.07389400  0.74119700  0.53058400  1
  H  H9  1  0.57389400  0.75880300  0.46941600  1
  H  H10  1  0.03058400  0.42610600  0.25880300  1
  H  H11  1  0.42610600  0.25880300  0.03058400  1
  H  H12  1  0.53058400  0.07389400  0.74119700  1
  H  H13  1  0.96941600  0.92610600  0.24119700  1
  H  H14  1  0.92610600  0.24119700  0.96941600  1
  H  H15  1  0.24119700  0.96941600  0.92610600  1
  H  H16  1  0.25880300  0.46941600  0.92610600  1
  H  H17  1  0.53058400  0.42610600  0.24119700  1
  H  H18  1  0.92610600  0.25880300  0.46941600  1
  H  H19  1  0.42610600  0.24119700  0.53058400  1
  H  H20  1  0.96941600  0.57389400  0.74119700  1
  H  H21  1  0.57389400  0.74119700  0.96941600  1
  H  H22  1  0.46941600  0.92610600  0.25880300  1
  H  H23  1  0.03058400  0.07389400  0.75880300  1
  H  H24  1  0.07389400  0.75880300  0.03058400  1
  H  H25  1  0.75880300  0.03058400  0.07389400  1
  H  H26  1  0.57888500  0.03169900  0.25471600  1
  H  H27  1  0.07888500  0.46830100  0.74528400  1
  H  H28  1  0.42111500  0.53169900  0.24528400  1
  H  H29  1  0.46830100  0.74528400  0.07888500  1
  H  H30  1  0.24528400  0.42111500  0.53169900  1
  H  H31  1  0.74528400  0.07888500  0.46830100  1
  H  H32  1  0.03169900  0.25471600  0.57888500  1
  H  H33  1  0.25471600  0.57888500  0.03169900  1
  H  H34  1  0.53169900  0.24528400  0.42111500  1
  H  H35  1  0.96830100  0.75471600  0.92111500  1
  H  H36  1  0.75471600  0.92111500  0.96830100  1
  H  H37  1  0.92111500  0.96830100  0.75471600  1
  H  H38  1  0.42111500  0.96830100  0.74528400  1
  H  H39  1  0.92111500  0.53169900  0.25471600  1
  H  H40  1  0.57888500  0.46830100  0.75471600  1
  H  H41  1  0.53169900  0.25471600  0.92111500  1
  H  H42  1  0.75471600  0.57888500  0.46830100  1
  H  H43  1  0.25471600  0.92111500  0.53169900  1
  H  H44  1  0.96830100  0.74528400  0.42111500  1
  H  H45  1  0.74528400  0.42111500  0.96830100  1
  H  H46  1  0.46830100  0.75471600  0.57888500  1
  H  H47  1  0.03169900  0.24528400  0.07888500  1
  H  H48  1  0.24528400  0.07888500  0.03169900  1
  H  H49  1  0.07888500  0.03169900  0.24528400  1
  H  H50  1  0.74119700  0.96941600  0.57389400  1
  H  H51  1  0.24119700  0.53058400  0.42610600  1
  Br  Br52  1  0.24761300  0.74761300  0.75238700  1
  Br  Br53  1  0.75238700  0.24761300  0.74761300  1
  Br  Br54  1  0.74761300  0.75238700  0.24761300  1
  Br  Br55  1  0.25238700  0.25238700  0.25238700  1
  Br  Br56  1  0.74761300  0.74761300  0.74761300  1
  Br  Br57  1  0.75238700  0.25238700  0.24761300  1
  Br  Br58  1  0.24761300  0.75238700  0.25238700  1
  Br  Br59  1  0.25238700  0.24761300  0.75238700  1
  O  O60  1  0.95981500  0.03585900  0.80785900  1
  O  O61  1  0.80785900  0.95981500  0.03585900  1
  O  O62  1  0.03585900  0.80785900  0.95981500  1
  O  O63  1  0.46414100  0.19214100  0.45981500  1
  O  O64  1  0.30785900  0.54018500  0.96414100  1
  O  O65  1  0.96414100  0.30785900  0.54018500  1
  O  O66  1  0.95981500  0.46414100  0.30785900  1
  O  O67  1  0.19214100  0.45981500  0.46414100  1
  O  O68  1  0.53585900  0.69214100  0.04018500  1
  O  O69  1  0.45981500  0.46414100  0.19214100  1
  O  O70  1  0.04018500  0.53585900  0.69214100  1
  O  O71  1  0.54018500  0.96414100  0.30785900  1
  O  O72  1  0.54018500  0.53585900  0.80785900  1
  O  O73  1  0.46414100  0.30785900  0.95981500  1
  O  O74  1  0.80785900  0.54018500  0.53585900  1
  O  O75  1  0.30785900  0.95981500  0.46414100  1
  O  O76  1  0.03585900  0.69214100  0.45981500  1
  O  O77  1  0.69214100  0.45981500  0.03585900  1
  O  O78  1  0.53585900  0.80785900  0.54018500  1
  O  O79  1  0.96414100  0.19214100  0.04018500  1
  O  O80  1  0.19214100  0.04018500  0.96414100  1
  O  O81  1  0.04018500  0.96414100  0.19214100  1
  O  O82  1  0.67098600  0.13973000  0.16735900  1
  O  O83  1  0.17098600  0.36027000  0.83264100  1
  O  O84  1  0.32901400  0.63973000  0.33264100  1
  O  O85  1  0.36027000  0.83264100  0.17098600  1
  O  O86  1  0.33264100  0.32901400  0.63973000  1
  O  O87  1  0.83264100  0.17098600  0.36027000  1
  O  O88  1  0.13973000  0.16735900  0.67098600  1
  O  O89  1  0.16735900  0.67098600  0.13973000  1
  O  O90  1  0.63973000  0.33264100  0.32901400  1
  O  O91  1  0.86027000  0.66735900  0.82901400  1
  O  O92  1  0.66735900  0.82901400  0.86027000  1
  O  O93  1  0.82901400  0.86027000  0.66735900  1
  O  O94  1  0.32901400  0.86027000  0.83264100  1
  O  O95  1  0.82901400  0.63973000  0.16735900  1
  O  O96  1  0.67098600  0.36027000  0.66735900  1
  O  O97  1  0.63973000  0.16735900  0.82901400  1
  O  O98  1  0.66735900  0.67098600  0.36027000  1
  O  O99  1  0.16735900  0.82901400  0.63973000  1
  O  O100  1  0.86027000  0.83264100  0.32901400  1
  O  O101  1  0.83264100  0.32901400  0.86027000  1
  O  O102  1  0.36027000  0.66735900  0.67098600  1
  O  O103  1  0.13973000  0.33264100  0.17098600  1
  O  O104  1  0.33264100  0.17098600  0.13973000  1
  O  O105  1  0.17098600  0.13973000  0.33264100  1
  O  O106  1  0.45981500  0.03585900  0.69214100  1
  O  O107  1  0.69214100  0.04018500  0.53585900  1
