# generated using pymatgen
data_YNb3Si3(SO8)3
_symmetry_space_group_name_H-M   'P 1'
_cell_length_a   9.02587309
_cell_length_b   9.00615568
_cell_length_c   23.18216552
_cell_angle_alpha   89.38946143
_cell_angle_beta   90.10923271
_cell_angle_gamma   119.92635189
_symmetry_Int_Tables_number   1
_chemical_formula_structural   YNb3Si3(SO8)3
_chemical_formula_sum   'Y3 Nb9 Si9 S9 O72'
_cell_volume   1633.07869064
_cell_formula_units_Z   3
loop_
 _symmetry_equiv_pos_site_id
 _symmetry_equiv_pos_as_xyz
  1  'x, y, z'
loop_
 _atom_site_type_symbol
 _atom_site_label
 _atom_site_symmetry_multiplicity
 _atom_site_fract_x
 _atom_site_fract_y
 _atom_site_fract_z
 _atom_site_occupancy
  Y  Y0  1  0.00200166  0.00633793  0.36411769  1
  Y  Y1  1  0.67394986  0.34306626  0.69518025  1
  Y  Y2  1  0.67128772  0.33019646  0.18525115  1
  Nb  Nb3  1  0.00718178  0.98607764  0.85941062  1
  Nb  Nb4  1  0.01543380  0.01699090  0.64741503  1
  Nb  Nb5  1  0.99835124  0.99406679  0.13812958  1
  Nb  Nb6  1  0.68195893  0.33979549  0.97370104  1
  Nb  Nb7  1  0.66838567  0.32141651  0.47576031  1
  Nb  Nb8  1  0.34473555  0.68695279  0.02034762  1
  Nb  Nb9  1  0.33688009  0.65627536  0.52355620  1
  Nb  Nb10  1  0.34497943  0.66918617  0.31216927  1
  Nb  Nb11  1  0.34175650  0.67369665  0.80836998  1
  Si  Si12  1  0.27731277  0.28706286  0.75504446  1
  Si  Si13  1  0.01060789  0.72269907  0.75105322  1
  Si  Si14  1  0.95197946  0.32900701  0.58367319  1
  Si  Si15  1  0.95812638  0.61652118  0.08098471  1
  Si  Si16  1  0.66767107  0.04876384  0.08237154  1
  Si  Si17  1  0.61458518  0.66469667  0.91532057  1
  Si  Si18  1  0.34519363  0.95924903  0.91501819  1
  Si  Si19  1  0.60608827  0.94797228  0.41783937  1
  Si  Si20  1  0.35063752  0.39066185  0.41872169  1
  S  S21  1  0.27972814  0.98758300  0.25032593  1
  S  S22  1  0.70890285  0.71835112  0.24956553  1
  S  S23  1  0.01327881  0.29502141  0.25002403  1
  S  S24  1  0.71844831  0.99038022  0.75151593  1
  S  S25  1  0.37391038  0.04086383  0.58132383  1
  S  S26  1  0.67266899  0.62772938  0.58184139  1
  S  S27  1  0.37272690  0.33390497  0.08121818  1
  S  S28  1  0.05092671  0.38177924  0.91577148  1
  S  S29  1  0.04936893  0.65319722  0.41793352  1
  O  O30  1  0.19871488  0.00639724  0.30183199  1
  O  O31  1  0.80940859  0.79369177  0.30080824  1
  O  O32  1  0.98894762  0.19054023  0.30156029  1
  O  O33  1  0.16539715  0.16842757  0.80929479  1
  O  O34  1  0.98974762  0.82081770  0.80824673  1
  O  O35  1  0.81832456  0.00957661  0.80328786  1
  O  O36  1  0.79955617  0.96735689  0.69800177  1
  O  O37  1  0.15605825  0.19693536  0.69454449  1
  O  O38  1  0.03223348  0.84610414  0.69362112  1
  O  O39  1  0.79391578  0.82787220  0.19717417  1
  O  O40  1  0.03930132  0.21432637  0.19807483  1
  O  O41  1  0.17245788  0.96749219  0.19802302  1
  O  O42  1  0.87614859  0.36678426  0.63861263  1
  O  O43  1  0.47698829  0.10760960  0.63218571  1
  O  O44  1  0.62766797  0.52077138  0.63307607  1
  O  O45  1  0.88472940  0.51989561  0.14031012  1
  O  O46  1  0.62432136  0.10963623  0.14030336  1
  O  O47  1  0.47243854  0.36831653  0.13392808  1
  O  O48  1  0.44876028  0.29581362  0.03173303  1
  O  O49  1  0.83019833  0.52656239  0.02611518  1
  O  O50  1  0.70007035  0.17501137  0.02710088  1
  O  O51  1  0.45872418  0.15660113  0.52948593  1
  O  O52  1  0.69512642  0.54314139  0.53080771  1
  O  O53  1  0.82717828  0.30546414  0.52615130  1
  O  O54  1  0.51479192  0.68306816  0.97111835  1
  O  O55  1  0.15286010  0.45695990  0.96778676  1
  O  O56  1  0.31005035  0.83600527  0.97221766  1
  O  O57  1  0.50007245  0.83610571  0.47331997  1
  O  O58  1  0.32637650  0.49104379  0.47331842  1
  O  O59  1  0.15293051  0.67589781  0.46962949  1
  O  O60  1  0.12721022  0.62569125  0.36498103  1
  O  O61  1  0.48508087  0.85839983  0.35883516  1
  O  O62  1  0.37043814  0.51368747  0.36020065  1
  O  O63  1  0.12624323  0.49172317  0.86424232  1
  O  O64  1  0.36933609  0.86141827  0.86066066  1
  O  O65  1  0.49308405  0.63525766  0.85940842  1
  O  O66  1  0.02976318  0.80241134  0.41154384  1
  O  O67  1  0.78583147  0.96343051  0.41157887  1
  O  O68  1  0.18985373  0.20814084  0.41229492  1
  O  O69  1  0.02041512  0.20722186  0.90861482  1
  O  O70  1  0.17360786  0.97785122  0.90760660  1
  O  O71  1  0.80130491  0.83536941  0.90476015  1
  O  O72  1  0.97355110  0.15810666  0.59276567  1
  O  O73  1  0.20245803  0.02793075  0.58787289  1
  O  O74  1  0.82245719  0.79913127  0.58910080  1
  O  O75  1  0.98467744  0.81685881  0.09473385  1
  O  O76  1  0.84236989  0.02801667  0.09608191  1
  O  O77  1  0.19754767  0.17327346  0.09306261  1
  O  O78  1  0.69237994  0.13527885  0.74520324  1
  O  O79  1  0.45113367  0.29275097  0.74410437  1
  O  O80  1  0.84564269  0.54130074  0.74803299  1
  O  O81  1  0.67105598  0.54335552  0.24149357  1
  O  O82  1  0.86707546  0.32169243  0.24417508  1
  O  O83  1  0.45081561  0.13394267  0.24328383  1
  O  O84  1  0.63995008  0.49903602  0.93031379  1
  O  O85  1  0.87623506  0.36788677  0.92302281  1
  O  O86  1  0.50896566  0.14664643  0.92975905  1
  O  O87  1  0.62070872  0.13835152  0.42758676  1
  O  O88  1  0.52721338  0.38851692  0.43190601  1
  O  O89  1  0.87706602  0.49700545  0.42513876  1
  O  O90  1  0.33665342  0.47328633  0.06973990  1
  O  O91  1  0.14454855  0.64303692  0.06488411  1
  O  O92  1  0.51482551  0.85328609  0.06768202  1
  O  O93  1  0.34258869  0.86577277  0.56893544  1
  O  O94  1  0.51917270  0.65451182  0.57118143  1
  O  O95  1  0.14323239  0.49070165  0.56582151  1
  O  O96  1  0.29077495  0.82587694  0.25714695  1
  O  O97  1  0.53594523  0.71175872  0.25624584  1
  O  O98  1  0.17196620  0.46873401  0.25838868  1
  O  O99  1  0.28902863  0.47326599  0.76452917  1
  O  O100  1  0.18749621  0.71789902  0.76257339  1
  O  O101  1  0.54773349  0.82845531  0.75588067  1
