# generated using pymatgen
data_NaNO2
_symmetry_space_group_name_H-M   'P 1'
_cell_length_a   3.47862728
_cell_length_b   4.20456249
_cell_length_c   4.20456121
_cell_angle_alpha   79.16205093
_cell_angle_beta   65.56421102
_cell_angle_gamma   65.56420678
_symmetry_Int_Tables_number   1
_chemical_formula_structural   NaNO2
_chemical_formula_sum   'Na1 N1 O2'
_cell_volume   50.96215556
_cell_formula_units_Z   1
loop_
 _symmetry_equiv_pos_site_id
 _symmetry_equiv_pos_as_xyz
  1  'x, y, z'
loop_
 _atom_site_type_symbol
 _atom_site_label
 _atom_site_symmetry_multiplicity
 _atom_site_fract_x
 _atom_site_fract_y
 _atom_site_fract_z
 _atom_site_occupancy
  Na  Na0  1  0.58675079  0.41324921  0.41324921  1
  N  N1  1  0.12519484  0.87480516  0.87480516  1
  O  O2  1  0.99957718  0.80212561  0.19872003  1
  O  O3  1  0.99957718  0.19872003  0.80212561  1
