# generated using pymatgen
data_Sr8MgMn6O20
_symmetry_space_group_name_H-M   'P 1'
_cell_length_a   5.53295702
_cell_length_b   6.65309163
_cell_length_c   14.25656487
_cell_angle_alpha   86.01670415
_cell_angle_beta   89.69767529
_cell_angle_gamma   113.37247561
_symmetry_Int_Tables_number   1
_chemical_formula_structural   Sr8MgMn6O20
_chemical_formula_sum   'Sr8 Mg1 Mn6 O20'
_cell_volume   480.26703192
_cell_formula_units_Z   1
loop_
 _symmetry_equiv_pos_site_id
 _symmetry_equiv_pos_as_xyz
  1  'x, y, z'
loop_
 _atom_site_type_symbol
 _atom_site_label
 _atom_site_symmetry_multiplicity
 _atom_site_fract_x
 _atom_site_fract_y
 _atom_site_fract_z
 _atom_site_occupancy
  Sr  Sr0  1  0.27788300  0.52712000  0.16443300  1
  Sr  Sr1  1  0.71161700  0.48261500  0.81349400  1
  Sr  Sr2  1  0.75499100  0.48585500  0.39920200  1
  Sr  Sr3  1  0.25499100  0.50149700  0.60401800  1
  Sr  Sr4  1  0.96720100  0.91816800  0.62306200  1
  Sr  Sr5  1  0.04328400  0.07185600  0.35872700  1
  Sr  Sr6  1  0.55469000  0.10026100  0.15427100  1
  Sr  Sr7  1  0.42555100  0.90140500  0.86905800  1
  Mg  Mg8  1  0.84640500  0.59203500  0.01040700  1
  Mn  Mn9  1  0.60618600  0.21067100  0.64219800  1
  Mn  Mn10  1  0.39019300  0.76153500  0.35257500  1
  Mn  Mn11  1  0.91419500  0.80932700  0.16791800  1
  Mn  Mn12  1  0.10142700  0.24307100  0.82397200  1
  Mn  Mn13  1  0.50893100  0.99800600  0.49343800  1
  Mn  Mn14  1  0.00922200  0.06927500  0.00356700  1
  O  O15  1  0.32757100  0.16970700  0.72956300  1
  O  O16  1  0.15131900  0.79264700  0.26270100  1
  O  O17  1  0.65819000  0.80328100  0.26036800  1
  O  O18  1  0.80610200  0.15379000  0.74392200  1
  O  O19  1  0.17163300  0.78135300  0.45822600  1
  O  O20  1  0.38359600  0.21028600  0.53199600  1
  O  O21  1  0.32105800  0.23825100  0.92806800  1
  O  O22  1  0.16106700  0.83608700  0.06452300  1
  O  O23  1  0.84463300  0.20480000  0.53041800  1
  O  O24  1  0.62860100  0.77905400  0.45575200  1
  O  O25  1  0.69301200  0.83891200  0.06780300  1
  O  O26  1  0.85917100  0.29218500  0.96786600  1
  O  O27  1  0.76107900  0.51795000  0.64188800  1
  O  O28  1  0.24894000  0.46297300  0.34767900  1
  O  O29  1  0.07603100  0.13050700  0.16381000  1
  O  O30  1  0.89564300  0.82173900  0.89237400  1
  O  O31  1  0.45876200  0.89513200  0.62249300  1
  O  O32  1  0.75557100  0.49791600  0.15098500  1
  O  O33  1  0.24890700  0.54577400  0.79189200  1
  O  O34  1  0.55139600  0.09569800  0.36045800  1
