# generated using pymatgen
data_Na3InP2
_symmetry_space_group_name_H-M   'P 1'
_cell_length_a   7.31922952
_cell_length_b   9.38939943
_cell_length_c   15.28846915
_cell_angle_alpha   87.36032944
_cell_angle_beta   90.00000000
_cell_angle_gamma   90.00000000
_symmetry_Int_Tables_number   1
_chemical_formula_structural   Na3InP2
_chemical_formula_sum   'Na24 In8 P16'
_cell_volume   1049.55721140
_cell_formula_units_Z   8
loop_
 _symmetry_equiv_pos_site_id
 _symmetry_equiv_pos_as_xyz
  1  'x, y, z'
loop_
 _atom_site_type_symbol
 _atom_site_label
 _atom_site_symmetry_multiplicity
 _atom_site_fract_x
 _atom_site_fract_y
 _atom_site_fract_z
 _atom_site_occupancy
  Na  Na0  1  0.15237827  0.87630306  0.70440067  1
  Na  Na1  1  0.65237827  0.12369694  0.79559933  1
  Na  Na2  1  0.84762173  0.12369694  0.29559933  1
  Na  Na3  1  0.34762173  0.87630306  0.20440067  1
  Na  Na4  1  0.49150918  0.56046377  0.10487662  1
  Na  Na5  1  0.99150918  0.43953623  0.39512338  1
  Na  Na6  1  0.50849082  0.43953623  0.89512338  1
  Na  Na7  1  0.00849082  0.56046377  0.60487662  1
  Na  Na8  1  0.96867457  0.18752338  0.64993771  1
  Na  Na9  1  0.46867457  0.81247662  0.85006229  1
  Na  Na10  1  0.03132543  0.81247662  0.35006229  1
  Na  Na11  1  0.53132543  0.18752338  0.14993771  1
  Na  Na12  1  0.84647861  0.38365413  0.04539524  1
  Na  Na13  1  0.34647861  0.61634587  0.45460476  1
  Na  Na14  1  0.15352139  0.61634587  0.95460476  1
  Na  Na15  1  0.65352139  0.38365413  0.54539524  1
  Na  Na16  1  0.97764427  0.93418225  0.89421881  1
  Na  Na17  1  0.47764427  0.06581775  0.60578119  1
  Na  Na18  1  0.02235573  0.06581775  0.10578119  1
  Na  Na19  1  0.52235573  0.93418225  0.39421881  1
  Na  Na20  1  0.00365301  0.32134646  0.86260099  1
  Na  Na21  1  0.50365301  0.67865354  0.63739901  1
  Na  Na22  1  0.99634699  0.67865354  0.13739901  1
  Na  Na23  1  0.49634699  0.32134646  0.36260099  1
  In  In24  1  0.64154399  0.87380239  0.04127701  1
  In  In25  1  0.14154399  0.12619761  0.45872299  1
  In  In26  1  0.35845601  0.12619761  0.95872299  1
  In  In27  1  0.85845601  0.87380239  0.54127701  1
  In  In28  1  0.65432053  0.63613585  0.29017560  1
  In  In29  1  0.15432053  0.36386415  0.20982440  1
  In  In30  1  0.34567947  0.36386415  0.70982440  1
  In  In31  1  0.84567947  0.63613585  0.79017560  1
  P  P32  1  0.21808216  0.87356136  0.52370067  1
  P  P33  1  0.71808216  0.12643864  0.97629933  1
  P  P34  1  0.78191784  0.12643864  0.47629933  1
  P  P35  1  0.28191784  0.87356136  0.02370067  1
  P  P36  1  0.70677895  0.40713555  0.72544574  1
  P  P37  1  0.20677895  0.59286445  0.77455426  1
  P  P38  1  0.29322105  0.59286445  0.27455426  1
  P  P39  1  0.79322105  0.40713555  0.22544574  1
  P  P40  1  0.76287114  0.65248452  0.95834911  1
  P  P41  1  0.26287114  0.34751548  0.54165089  1
  P  P42  1  0.23712886  0.34751548  0.04165089  1
  P  P43  1  0.73712886  0.65248452  0.45834911  1
  P  P44  1  0.75954589  0.87458755  0.70622791  1
  P  P45  1  0.25954589  0.12541245  0.79377209  1
  P  P46  1  0.24045411  0.12541245  0.29377209  1
  P  P47  1  0.74045411  0.87458755  0.20622791  1
