# generated using pymatgen
data_Nd3PO7
_symmetry_space_group_name_H-M   'P 1'
_cell_length_a   9.28657869
_cell_length_b   9.28657869
_cell_length_c   12.32395447
_cell_angle_alpha   102.88938922
_cell_angle_beta   102.88938922
_cell_angle_gamma   90.94553351
_symmetry_Int_Tables_number   1
_chemical_formula_structural   Nd3PO7
_chemical_formula_sum   'Nd18 P6 O42'
_cell_volume   1007.47992135
_cell_formula_units_Z   6
loop_
 _symmetry_equiv_pos_site_id
 _symmetry_equiv_pos_as_xyz
  1  'x, y, z'
loop_
 _atom_site_type_symbol
 _atom_site_label
 _atom_site_symmetry_multiplicity
 _atom_site_fract_x
 _atom_site_fract_y
 _atom_site_fract_z
 _atom_site_occupancy
  Nd  Nd0  1  0.16394514  0.85536612  0.83573902  1
  Nd  Nd1  1  0.85536612  0.16394514  0.83573902  1
  Nd  Nd2  1  0.15261174  0.49843636  0.29580926  1
  Nd  Nd3  1  0.49843636  0.15261174  0.29580926  1
  Nd  Nd4  1  0.15519122  0.81013737  0.16142402  1
  Nd  Nd5  1  0.81013737  0.15519122  0.16142402  1
  Nd  Nd6  1  0.50810566  0.85297421  0.05373285  1
  Nd  Nd7  1  0.85297421  0.50810566  0.05373285  1
  Nd  Nd8  1  0.49392098  0.80722993  0.71963719  1
  Nd  Nd9  1  0.80722993  0.49392098  0.71963719  1
  Nd  Nd10  1  0.16940907  0.85608774  0.49581013  1
  Nd  Nd11  1  0.85608774  0.16940907  0.49581013  1
  Nd  Nd12  1  0.14179375  0.52145896  0.60761825  1
  Nd  Nd13  1  0.52145896  0.14179375  0.60761825  1
  Nd  Nd14  1  0.16477453  0.51029141  0.91936183  1
  Nd  Nd15  1  0.51029141  0.16477453  0.91936183  1
  Nd  Nd16  1  0.80780775  0.49934296  0.37953152  1
  Nd  Nd17  1  0.49934296  0.80780775  0.37953152  1
  P  P18  1  0.83576914  0.83576914  0.92718526  1
  P  P19  1  0.16441874  0.16441874  0.34252605  1
  P  P20  1  0.82771629  0.82771629  0.28799934  1
  P  P21  1  0.49863766  0.49863766  0.87221150  1
  P  P22  1  0.49475695  0.49475695  0.49565827  1
  P  P23  1  0.16822086  0.16822086  0.71990555  1
  O  O24  1  0.22749894  0.77403787  0.66317379  1
  O  O25  1  0.77403787  0.22749894  0.66317379  1
  O  O26  1  0.41402161  0.92528000  0.88531349  1
  O  O27  1  0.92528000  0.41402161  0.88531349  1
  O  O28  1  0.25281214  0.75786021  0.99580891  1
  O  O29  1  0.75786021  0.25281214  0.99580891  1
  O  O30  1  0.94363051  0.94363051  0.89815750  1
  O  O31  1  0.13266543  0.13266543  0.82891017  1
  O  O32  1  0.25883023  0.25883023  0.28966640  1
  O  O33  1  0.24916160  0.73783821  0.32991054  1
  O  O34  1  0.73783821  0.24916160  0.32991054  1
  O  O35  1  0.11807050  0.54505062  0.10755501  1
  O  O36  1  0.54505062  0.11807050  0.10755501  1
  O  O37  1  0.05839345  0.05839345  0.23842444  1
  O  O38  1  0.92984310  0.73824421  0.99589421  1
  O  O39  1  0.73824421  0.92984310  0.99589421  1
  O  O40  1  0.92498400  0.73342813  0.21916317  1
  O  O41  1  0.73342813  0.92498400  0.21916317  1
  O  O42  1  0.60476870  0.60476870  0.97616867  1
  O  O43  1  0.41052874  0.90502848  0.21929168  1
  O  O44  1  0.90502848  0.41052874  0.21929168  1
  O  O45  1  0.43590647  0.88899202  0.55208044  1
  O  O46  1  0.88899202  0.43590647  0.55208044  1
  O  O47  1  0.59660493  0.59660493  0.60238006  1
  O  O48  1  0.73951309  0.73951309  0.81596008  1
  O  O49  1  0.61894233  0.04729014  0.77121961  1
  O  O50  1  0.04729014  0.61894233  0.77121961  1
  O  O51  1  0.92425167  0.92425167  0.39897540  1
  O  O52  1  0.04422586  0.61611830  0.44411459  1
  O  O53  1  0.61611830  0.04422586  0.44411459  1
  O  O54  1  0.26871541  0.07629258  0.41455207  1
  O  O55  1  0.07629258  0.26871541  0.41455207  1
  O  O56  1  0.32969066  0.13895633  0.71877345  1
  O  O57  1  0.13895633  0.32969066  0.71877345  1
  O  O58  1  0.06528075  0.06528075  0.61427464  1
  O  O59  1  0.33296561  0.52364719  0.49573604  1
  O  O60  1  0.52364719  0.33296561  0.49573604  1
  O  O61  1  0.39420832  0.58664095  0.80019037  1
  O  O62  1  0.58664095  0.39420832  0.80019037  1
  O  O63  1  0.40430985  0.40430985  0.92519160  1
  O  O64  1  0.72006917  0.72006917  0.31742468  1
  O  O65  1  0.53199513  0.53199513  0.38771148  1
