# generated using pymatgen
data_Na3AlZnSi(SO6)2
_symmetry_space_group_name_H-M   'P 1'
_cell_length_a   8.83758430
_cell_length_b   8.90457687
_cell_length_c   21.77738784
_cell_angle_alpha   89.81870941
_cell_angle_beta   90.00000000
_cell_angle_gamma   119.75143887
_symmetry_Int_Tables_number   1
_chemical_formula_structural   Na3AlZnSi(SO6)2
_chemical_formula_sum   'Na18 Al6 Zn6 Si6 S12 O72'
_cell_volume   1487.86220988
_cell_formula_units_Z   6
loop_
 _symmetry_equiv_pos_site_id
 _symmetry_equiv_pos_as_xyz
  1  'x, y, z'
loop_
 _atom_site_type_symbol
 _atom_site_label
 _atom_site_symmetry_multiplicity
 _atom_site_fract_x
 _atom_site_fract_y
 _atom_site_fract_z
 _atom_site_occupancy
  Na  Na0  1  0.63648402  0.00850538  0.25240318  1
  Na  Na1  1  0.00091888  0.63684092  0.23890636  1
  Na  Na2  1  0.63592204  0.63684092  0.73890636  1
  Na  Na3  1  0.37202136  0.00850538  0.75240318  1
  Na  Na4  1  0.31723453  0.34735997  0.58563338  1
  Na  Na5  1  0.66014424  0.95153593  0.58075659  1
  Na  Na6  1  0.29139268  0.95153593  0.08075659  1
  Na  Na7  1  0.03012644  0.34735997  0.08563338  1
  Na  Na8  1  0.98381031  0.68337025  0.92363887  1
  Na  Na9  1  0.69449674  0.02946866  0.90796620  1
  Na  Na10  1  0.33497092  0.02946866  0.40796620  1
  Na  Na11  1  0.69955893  0.68337025  0.42363887  1
  Na  Na12  1  0.98328806  0.99498035  0.49711899  1
  Na  Na13  1  0.01169229  0.99498035  0.99711899  1
  Na  Na14  1  0.66549669  0.31790905  0.83062297  1
  Na  Na15  1  0.65241337  0.31790905  0.33062297  1
  Na  Na16  1  0.33248862  0.66121188  0.16458148  1
  Na  Na17  1  0.32872226  0.66121188  0.66458148  1
  Al  Al18  1  0.97595406  0.97119741  0.64812552  1
  Al  Al19  1  0.99524336  0.97119741  0.14812552  1
  Al  Al20  1  0.65277741  0.33859414  0.98208910  1
  Al  Al21  1  0.68581773  0.33859414  0.48208910  1
  Al  Al22  1  0.34065161  0.69346358  0.31751960  1
  Al  Al23  1  0.35281097  0.69346358  0.81751960  1
  Zn  Zn24  1  0.00715932  0.01158168  0.34894347  1
  Zn  Zn25  1  0.00442236  0.01158168  0.84894347  1
  Zn  Zn26  1  0.67450237  0.32806762  0.68253578  1
  Zn  Zn27  1  0.65356625  0.32806762  0.18253578  1
  Zn  Zn28  1  0.31682132  0.67603484  0.01504796  1
  Zn  Zn29  1  0.35921252  0.67603484  0.51504796  1
  Si  Si30  1  0.29292225  0.99901086  0.25165811  1
  Si  Si31  1  0.70608861  0.99901086  0.75165811  1
  Si  Si32  1  0.67547599  0.62079954  0.58374393  1
  Si  Si33  1  0.94532455  0.62079954  0.08374393  1
  Si  Si34  1  0.33818785  0.97791778  0.91823012  1
  Si  Si35  1  0.63972892  0.97791778  0.41823012  1
  S  S36  1  0.70106905  0.70897625  0.25189802  1
  S  S37  1  0.01277271  0.29861947  0.24868433  1
  S  S38  1  0.28584676  0.29861947  0.74868433  1
  S  S39  1  0.00790720  0.70897625  0.75189802  1
  S  S40  1  0.96179800  0.33013466  0.58314844  1
  S  S41  1  0.36032772  0.03724415  0.58412386  1
  S  S42  1  0.67691743  0.03724415  0.08412386  1
  S  S43  1  0.36833765  0.33013466  0.08314844  1
  S  S44  1  0.61208465  0.65224632  0.91747354  1
  S  S45  1  0.04600060  0.38260820  0.91608886  1
  S  S46  1  0.33660661  0.38260820  0.41608886  1
  S  S47  1  0.04016068  0.65224632  0.41747354  1
  O  O48  1  0.21131888  0.01900964  0.31515642  1
  O  O49  1  0.80128514  0.78304337  0.30852272  1
  O  O50  1  0.97783116  0.18785278  0.30266739  1
  O  O51  1  0.21002161  0.18785278  0.80266739  1
  O  O52  1  0.98175823  0.78304337  0.80852272  1
  O  O53  1  0.80769076  0.01900964  0.81515642  1
  O  O54  1  0.80326530  0.96437515  0.69227079  1
  O  O55  1  0.18551478  0.21218475  0.69142519  1
  O  O56  1  0.03989993  0.82880794  0.69784636  1
  O  O57  1  0.78890801  0.82880794  0.19784636  1
  O  O58  1  0.02666996  0.21218475  0.19142519  1
  O  O59  1  0.16110985  0.96437515  0.19227079  1
  O  O60  1  0.88902087  0.35169643  0.64013629  1
  O  O61  1  0.46749379  0.10700826  0.63996975  1
  O  O62  1  0.64095734  0.50541134  0.64501739  1
  O  O63  1  0.86445500  0.50541134  0.14501739  1
  O  O64  1  0.63951547  0.10700826  0.13996975  1
  O  O65  1  0.46267655  0.35169643  0.14013629  1
  O  O66  1  0.45601216  0.29780062  0.02951343  1
  O  O67  1  0.82802895  0.51871139  0.02180612  1
  O  O68  1  0.70162237  0.15026099  0.02938304  1
  O  O69  1  0.44863962  0.15026099  0.52938304  1
  O  O70  1  0.69068343  0.51871139  0.52180612  1
  O  O71  1  0.84178946  0.29780062  0.52951343  1
  O  O72  1  0.52389722  0.67127723  0.97105483  1
  O  O73  1  0.13559536  0.45063572  0.97515642  1
  O  O74  1  0.29756708  0.86352090  0.98029617  1
  O  O75  1  0.56595282  0.86352090  0.48029617  1
  O  O76  1  0.31503936  0.45063572  0.47515642  1
  O  O77  1  0.14737901  0.67127723  0.47105483  1
  O  O78  1  0.12218257  0.63520356  0.35908049  1
  O  O79  1  0.50190241  0.87691476  0.35997767  1
  O  O80  1  0.35082687  0.49843603  0.36370479  1
  O  O81  1  0.14760816  0.49843603  0.86370479  1
  O  O82  1  0.37501136  0.87691476  0.85997767  1
  O  O83  1  0.51301999  0.63520356  0.85908049  1
  O  O84  1  0.01588476  0.80586071  0.41470597  1
  O  O85  1  0.82813702  0.98963577  0.40849573  1
  O  O86  1  0.19101262  0.20398153  0.41213181  1
  O  O87  1  0.01296890  0.20398153  0.91213181  1
  O  O88  1  0.16149875  0.98963577  0.90849573  1
  O  O89  1  0.78997595  0.80586071  0.91470597  1
  O  O90  1  0.97895588  0.16860925  0.58579131  1
  O  O91  1  0.19013090  0.03805308  0.59107899  1
  O  O92  1  0.84939842  0.81914575  0.58832841  1
  O  O93  1  0.96974734  0.81914575  0.08832841  1
  O  O94  1  0.84792218  0.03805308  0.09107899  1
  O  O95  1  0.18965337  0.16860925  0.08579131  1
  O  O96  1  0.66783156  0.16019756  0.74412622  1
  O  O97  1  0.46712535  0.32729494  0.74579006  1
  O  O98  1  0.85410213  0.53808405  0.74397602  1
  O  O99  1  0.68398292  0.53808405  0.24397602  1
  O  O100  1  0.86017059  0.32729494  0.24579006  1
  O  O101  1  0.49236700  0.16019756  0.24412622  1
  O  O102  1  0.63151590  0.49397475  0.92036343  1
  O  O103  1  0.87143650  0.37630611  0.91577845  1
  O  O104  1  0.52557966  0.16476168  0.92685916  1
  O  O105  1  0.63918302  0.16476168  0.42685916  1
  O  O106  1  0.50487061  0.37630611  0.41577845  1
  O  O107  1  0.86245986  0.49397475  0.42036343  1
  O  O108  1  0.34513671  0.48126715  0.07420910  1
  O  O109  1  0.14494407  0.64630945  0.08198286  1
  O  O110  1  0.53162702  0.85939802  0.07651638  1
  O  O111  1  0.32777001  0.85939802  0.57651638  1
  O  O112  1  0.50136438  0.64630945  0.58198286  1
  O  O113  1  0.13612944  0.48126715  0.57420910  1
  O  O114  1  0.30519035  0.81422128  0.25579247  1
  O  O115  1  0.52489354  0.69654861  0.25582135  1
  O  O116  1  0.17508813  0.47122056  0.25432836  1
  O  O117  1  0.29613143  0.47122056  0.75432836  1
  O  O118  1  0.17165407  0.69654861  0.75582135  1
  O  O119  1  0.50902993  0.81422128  0.75579247  1
