# generated using pymatgen
data_Na2Hf3ZnSi2(SO6)4
_symmetry_space_group_name_H-M   'P 1'
_cell_length_a   8.89686799
_cell_length_b   8.88184497
_cell_length_c   23.23482036
_cell_angle_alpha   89.81521990
_cell_angle_beta   89.97933455
_cell_angle_gamma   120.19217878
_symmetry_Int_Tables_number   1
_chemical_formula_structural   Na2Hf3ZnSi2(SO6)4
_chemical_formula_sum   'Na6 Hf9 Zn3 Si6 S12 O72'
_cell_volume   1586.94766094
_cell_formula_units_Z   3
loop_
 _symmetry_equiv_pos_site_id
 _symmetry_equiv_pos_as_xyz
  1  'x, y, z'
loop_
 _atom_site_type_symbol
 _atom_site_label
 _atom_site_symmetry_multiplicity
 _atom_site_fract_x
 _atom_site_fract_y
 _atom_site_fract_z
 _atom_site_occupancy
  Na  Na0  1  0.98080721  0.98750389  0.50943482  1
  Na  Na1  1  0.02963267  0.02343569  0.00162475  1
  Na  Na2  1  0.67278374  0.30936479  0.83593092  1
  Na  Na3  1  0.66395295  0.31375039  0.33559240  1
  Na  Na4  1  0.33595406  0.65687905  0.16634951  1
  Na  Na5  1  0.36231682  0.67781054  0.67162004  1
  Hf  Hf6  1  0.99142628  0.99851476  0.35307938  1
  Hf  Hf7  1  0.99956583  0.01352910  0.85456564  1
  Hf  Hf8  1  0.66512690  0.33322421  0.68855418  1
  Hf  Hf9  1  0.65794286  0.33467947  0.18457416  1
  Hf  Hf10  1  0.65357338  0.32132899  0.97789934  1
  Hf  Hf11  1  0.66861660  0.33527957  0.48172732  1
  Hf  Hf12  1  0.32224030  0.65626100  0.01900471  1
  Hf  Hf13  1  0.35286453  0.67434916  0.52111772  1
  Hf  Hf14  1  0.33305343  0.67647733  0.81546895  1
  Zn  Zn15  1  0.95902664  0.96569876  0.64887781  1
  Zn  Zn16  1  0.01900834  0.01748646  0.14520495  1
  Zn  Zn17  1  0.34343173  0.68282321  0.31826861  1
  Si  Si18  1  0.70554688  0.99629709  0.74806507  1
  Si  Si19  1  0.67528695  0.62960419  0.58360716  1
  Si  Si20  1  0.36699893  0.33347892  0.08316316  1
  Si  Si21  1  0.03893360  0.37717296  0.91623126  1
  Si  Si22  1  0.32479746  0.95350086  0.91787034  1
  Si  Si23  1  0.62223245  0.96166508  0.41328533  1
  S  S24  1  0.28884303  0.99508256  0.24923564  1
  S  S25  1  0.71163851  0.71146420  0.24735691  1
  S  S26  1  0.00524431  0.29778450  0.25026132  1
  S  S27  1  0.28738553  0.28857111  0.74738512  1
  S  S28  1  0.00222126  0.71162070  0.74875326  1
  S  S29  1  0.95931886  0.33541044  0.58270648  1
  S  S30  1  0.37312119  0.04323243  0.58353801  1
  S  S31  1  0.95493027  0.62486935  0.08410436  1
  S  S32  1  0.66801142  0.04260420  0.08462133  1
  S  S33  1  0.62200187  0.66701369  0.91693114  1
  S  S34  1  0.33281893  0.37606147  0.41518802  1
  S  S35  1  0.04448473  0.66637585  0.41499112  1
  O  O36  1  0.20918507  0.02325706  0.30218270  1
  O  O37  1  0.81914362  0.79559499  0.30098025  1
  O  O38  1  0.97947714  0.18362673  0.30271897  1
  O  O39  1  0.20937445  0.18209573  0.80060112  1
  O  O40  1  0.97775668  0.79080965  0.80073455  1
  O  O41  1  0.82335380  0.02178649  0.80562376  1
  O  O42  1  0.78327386  0.97081587  0.68981060  1
  O  O43  1  0.18878101  0.20914627  0.69561716  1
  O  O44  1  0.03566111  0.81460679  0.69643791  1
  O  O45  1  0.79729633  0.81618525  0.19671960  1
  O  O46  1  0.02485904  0.21596117  0.19862616  1
  O  O47  1  0.18743727  0.97926877  0.19796239  1
  O  O48  1  0.87408588  0.35657218  0.63429283  1
  O  O49  1  0.48609327  0.12030329  0.63469939  1
  O  O50  1  0.64756791  0.50643430  0.63945619  1
  O  O51  1  0.87144181  0.51157014  0.13705882  1
  O  O52  1  0.64864257  0.13386633  0.13688884  1
  O  O53  1  0.49024925  0.35507660  0.14128527  1
  O  O54  1  0.47486532  0.31944024  0.02869618  1
  O  O55  1  0.85332373  0.53597321  0.03265932  1
  O  O56  1  0.69203292  0.15066381  0.03271212  1
  O  O57  1  0.46558826  0.14656067  0.53078679  1
  O  O58  1  0.68109258  0.52492685  0.52605845  1
  O  O59  1  0.84868563  0.31240763  0.53051219  1
  O  O60  1  0.54260966  0.69376707  0.96909057  1
  O  O61  1  0.16032590  0.46314622  0.97353158  1
  O  O62  1  0.31128350  0.84265376  0.97560714  1
  O  O63  1  0.53369153  0.84061021  0.47133199  1
  O  O64  1  0.30084856  0.45347738  0.46734843  1
  O  O65  1  0.14877722  0.69096016  0.46717483  1
  O  O66  1  0.11374131  0.63174560  0.36296273  1
  O  O67  1  0.51164248  0.88387501  0.35625152  1
  O  O68  1  0.36034640  0.47815517  0.36303069  1
  O  O69  1  0.13404126  0.48799810  0.85892143  1
  O  O70  1  0.36285093  0.86930671  0.86126514  1
  O  O71  1  0.51558843  0.63833026  0.86505783  1
  O  O72  1  0.02847606  0.82677068  0.40804073  1
  O  O73  1  0.81849471  0.98035247  0.40741052  1
  O  O74  1  0.17755587  0.19590669  0.40949628  1
  O  O75  1  0.01491834  0.18248864  0.91167702  1
  O  O76  1  0.15057973  0.96510125  0.90902915  1
  O  O77  1  0.79637998  0.82133128  0.91022107  1
  O  O78  1  0.98632140  0.18778311  0.58549444  1
  O  O79  1  0.20709336  0.03432692  0.58823711  1
  O  O80  1  0.84840681  0.81643120  0.58311487  1
  O  O81  1  0.96657312  0.79324271  0.09089708  1
  O  O82  1  0.81933169  0.02169701  0.09094061  1
  O  O83  1  0.17871715  0.16001379  0.08668248  1
  O  O84  1  0.68389544  0.17180640  0.74359214  1
  O  O85  1  0.46724833  0.30882539  0.74420171  1
  O  O86  1  0.84142073  0.53311697  0.74333980  1
  O  O87  1  0.70351954  0.53566441  0.24506330  1
  O  O88  1  0.84183628  0.30922563  0.24726154  1
  O  O89  1  0.46979995  0.15785302  0.24523727  1
  O  O90  1  0.64148719  0.51151533  0.92368733  1
  O  O91  1  0.85241818  0.36587165  0.92507100  1
  O  O92  1  0.49638428  0.14958610  0.92279059  1
  O  O93  1  0.65386776  0.15783836  0.42405282  1
  O  O94  1  0.48642807  0.35329518  0.42414203  1
  O  O95  1  0.86335648  0.51606357  0.42312486  1
  O  O96  1  0.36196666  0.51554396  0.08107929  1
  O  O97  1  0.13076591  0.64172783  0.08128257  1
  O  O98  1  0.50455837  0.87364695  0.08105591  1
  O  O99  1  0.35209731  0.86480670  0.57628649  1
  O  O100  1  0.49342687  0.64098445  0.57746822  1
  O  O101  1  0.12756002  0.50232936  0.57454312  1
  O  O102  1  0.30854108  0.84099553  0.25440252  1
  O  O103  1  0.53406338  0.68073587  0.25422032  1
  O  O104  1  0.15819386  0.47153487  0.25891824  1
  O  O105  1  0.31244814  0.46570222  0.75546489  1
  O  O106  1  0.15176972  0.68032414  0.75567059  1
  O  O107  1  0.50994208  0.82437865  0.75591640  1
