# generated using pymatgen
data_Na5ZrNb3(SiO4)6
_symmetry_space_group_name_H-M   'P 1'
_cell_length_a   9.09084014
_cell_length_b   9.07884049
_cell_length_c   22.82686188
_cell_angle_alpha   90.19432208
_cell_angle_beta   89.81847377
_cell_angle_gamma   120.17519901
_symmetry_Int_Tables_number   1
_chemical_formula_structural   Na5ZrNb3(SiO4)6
_chemical_formula_sum   'Na15 Zr3 Nb9 Si18 O72'
_cell_volume   1628.69103730
_cell_formula_units_Z   3
loop_
 _symmetry_equiv_pos_site_id
 _symmetry_equiv_pos_as_xyz
  1  'x, y, z'
loop_
 _atom_site_type_symbol
 _atom_site_label
 _atom_site_symmetry_multiplicity
 _atom_site_fract_x
 _atom_site_fract_y
 _atom_site_fract_z
 _atom_site_occupancy
  Na  Na0  1  0.36654835  0.36324004  0.24886309  1
  Na  Na1  1  0.99491596  0.63219648  0.24873470  1
  Na  Na2  1  0.63510202  0.63084440  0.74931441  1
  Na  Na3  1  0.99857272  0.36762850  0.74958769  1
  Na  Na4  1  0.03190619  0.69739028  0.58400375  1
  Na  Na5  1  0.30319335  0.96892386  0.08376244  1
  Na  Na6  1  0.69997195  0.03377268  0.91758185  1
  Na  Na7  1  0.96816142  0.29759677  0.41556305  1
  Na  Na8  1  0.33147577  0.03405042  0.41590978  1
  Na  Na9  1  0.99363870  0.99889678  0.49975290  1
  Na  Na10  1  0.00020708  -0.00000416  0.00086517  1
  Na  Na11  1  0.66025771  0.33240432  0.83390993  1
  Na  Na12  1  0.66686519  0.33295578  0.33092945  1
  Na  Na13  1  0.33945517  0.66736471  0.16504082  1
  Na  Na14  1  0.33976955  0.67319591  0.66575802  1
  Zr  Zr15  1  0.99437869  0.99444101  0.35313972  1
  Zr  Zr16  1  0.65999424  0.32579804  0.68599793  1
  Zr  Zr17  1  0.66683483  0.32816392  0.18419596  1
  Nb  Nb18  1  0.00566412  -0.00001633  0.85518327  1
  Nb  Nb19  1  0.00042216  0.00424019  0.64530478  1
  Nb  Nb20  1  0.99365542  0.99974672  0.14533207  1
  Nb  Nb21  1  0.66802700  0.33928712  0.98011938  1
  Nb  Nb22  1  0.66660349  0.33719930  0.48084494  1
  Nb  Nb23  1  0.33199700  0.66099755  0.02030442  1
  Nb  Nb24  1  0.33836935  0.66645693  0.52092609  1
  Nb  Nb25  1  0.33746944  0.67045664  0.31245880  1
  Nb  Nb26  1  0.33307262  0.67035721  0.81407801  1
  Si  Si27  1  0.29099021  -0.00011693  0.25004418  1
  Si  Si28  1  0.70718709  0.70961887  0.24945757  1
  Si  Si29  1  0.99773198  0.28965414  0.25093855  1
  Si  Si30  1  0.28930226  0.28831048  0.75083406  1
  Si  Si31  1  0.00451858  0.71496978  0.74975171  1
  Si  Si32  1  0.71136909  0.99888510  0.75128644  1
  Si  Si33  1  0.95686024  0.33093616  0.58317852  1
  Si  Si34  1  0.37457164  0.04170913  0.58250949  1
  Si  Si35  1  0.66433649  0.62507259  0.58454426  1
  Si  Si36  1  0.95874938  0.62522623  0.08350536  1
  Si  Si37  1  0.66860086  0.04159665  0.08119927  1
  Si  Si38  1  0.37583110  0.33555112  0.08368336  1
  Si  Si39  1  0.62117308  0.66338334  0.91620594  1
  Si  Si40  1  0.04324806  0.37768180  0.91639711  1
  Si  Si41  1  0.33171504  0.95652628  0.91809998  1
  Si  Si42  1  0.62334438  0.95615374  0.41764493  1
  Si  Si43  1  0.33822710  0.38077508  0.41671088  1
  Si  Si44  1  0.04360094  0.66545682  0.41758897  1
  O  O45  1  0.20812385  0.03200357  0.30861409  1
  O  O46  1  0.82883323  0.79316236  0.30571206  1
  O  O47  1  0.97298945  0.18066053  0.30979688  1
  O  O48  1  0.19007963  0.16688065  0.80718567  1
  O  O49  1  0.97238643  0.80959686  0.80584919  1
  O  O50  1  0.83107790  0.02730797  0.80876967  1
  O  O51  1  0.80439385  0.96521260  0.69432964  1
  O  O52  1  0.16278898  0.19614081  0.69413361  1
  O  O53  1  0.03092331  0.83126279  0.69129903  1
  O  O54  1  0.80396077  0.83403759  0.19266618  1
  O  O55  1  0.03406874  0.19607548  0.19462184  1
  O  O56  1  0.16670179  0.96474160  0.19245062  1
  O  O57  1  0.87992867  0.37316347  0.64094045  1
  O  O58  1  0.49271407  0.12504672  0.63908575  1
  O  O59  1  0.63474215  0.51339939  0.64283456  1
  O  O60  1  0.88144324  0.51472130  0.14217501  1
  O  O61  1  0.62471264  0.12086697  0.13749201  1
  O  O62  1  0.48615570  0.36700380  0.14239444  1
  O  O63  1  0.47157321  0.30091285  0.02756548  1
  O  O64  1  0.83325321  0.52687649  0.02703060  1
  O  O65  1  0.69537247  0.16114498  0.02336223  1
  O  O66  1  0.46692228  0.16191422  0.52436564  1
  O  O67  1  0.69807387  0.52885699  0.52803753  1
  O  O68  1  0.83636875  0.30495889  0.52513650  1
  O  O69  1  0.52908832  0.70012978  0.97150509  1
  O  O70  1  0.16690558  0.47279624  0.97214909  1
  O  O71  1  0.30450674  0.83862454  0.97510181  1
  O  O72  1  0.52385448  0.83432891  0.47354743  1
  O  O73  1  0.30558021  0.47536384  0.47223295  1
  O  O74  1  0.16414698  0.69301251  0.47451976  1
  O  O75  1  0.13277169  0.63153187  0.35937712  1
  O  O76  1  0.49604950  0.86298574  0.36093331  1
  O  O77  1  0.36395157  0.49831962  0.35835250  1
  O  O78  1  0.13522830  0.49615193  0.85807764  1
  O  O79  1  0.36434242  0.86114891  0.86115761  1
  O  O80  1  0.50312847  0.63780287  0.85768659  1
  O  O81  1  0.03419551  0.83816735  0.41336362  1
  O  O82  1  0.81308824  0.98572764  0.41416887  1
  O  O83  1  0.16878101  0.19316525  0.41332845  1
  O  O84  1  0.01760203  0.18582381  0.90957749  1
  O  O85  1  0.16337301  0.97514234  0.90904848  1
  O  O86  1  0.80639237  0.83884869  0.90894092  1
  O  O87  1  0.97593239  0.16181425  0.59013861  1
  O  O88  1  0.18285494  0.01692412  0.58939980  1
  O  O89  1  0.84124626  0.81014478  0.58922448  1
  O  O90  1  0.98442467  0.81791706  0.08888327  1
  O  O91  1  0.83826887  0.02374019  0.08953510  1
  O  O92  1  0.19021714  0.15883270  0.08940421  1
  O  O93  1  0.70201453  0.17166124  0.74599108  1
  O  O94  1  0.47965218  0.31843244  0.74702294  1
  O  O95  1  0.83492396  0.52673992  0.74603886  1
  O  O96  1  0.68486405  0.52138294  0.24386994  1
  O  O97  1  0.84021957  0.32361524  0.24511947  1
  O  O98  1  0.47514833  0.17051487  0.24469539  1
  O  O99  1  0.64084733  0.49554205  0.92400643  1
  O  O100  1  0.85206307  0.35194043  0.92329552  1
  O  O101  1  0.50731273  0.14123150  0.92330395  1
  O  O102  1  0.63559544  0.14340874  0.42363486  1
  O  O103  1  0.50489154  0.35713979  0.42407844  1
  O  O104  1  0.85832534  0.48899230  0.42398315  1
  O  O105  1  0.35367883  0.50170231  0.07346556  1
  O  O106  1  0.15097200  0.65352996  0.07404830  1
  O  O107  1  0.49553475  0.85462789  0.07312918  1
  O  O108  1  0.34475124  0.84861606  0.57462275  1
  O  O109  1  0.49834674  0.64638620  0.57465484  1
  O  O110  1  0.14296413  0.50399617  0.57398119  1
  O  O111  1  0.29914031  0.82251227  0.25714074  1
  O  O112  1  0.51689695  0.68827114  0.25633128  1
  O  O113  1  0.17499775  0.47925657  0.25619013  1
  O  O114  1  0.30217563  0.47620405  0.75690641  1
  O  O115  1  0.17090559  0.68997949  0.75746300  1
  O  O116  1  0.52570506  0.82291420  0.75714773  1
