# generated using pymatgen
data_MnO
_symmetry_space_group_name_H-M   'P 1'
_cell_length_a   3.46794590
_cell_length_b   5.86629098
_cell_length_c   5.47315968
_cell_angle_alpha   89.99988443
_cell_angle_beta   90.00001188
_cell_angle_gamma   89.99648943
_symmetry_Int_Tables_number   1
_chemical_formula_structural   MnO
_chemical_formula_sum   'Mn4 O4'
_cell_volume   111.34584960
_cell_formula_units_Z   4
loop_
 _symmetry_equiv_pos_site_id
 _symmetry_equiv_pos_as_xyz
  1  'x, y, z'
loop_
 _atom_site_type_symbol
 _atom_site_label
 _atom_site_symmetry_multiplicity
 _atom_site_fract_x
 _atom_site_fract_y
 _atom_site_fract_z
 _atom_site_occupancy
  Mn  Mn0  1  0.49997944  0.82504889  0.49765733  1
  Mn  Mn1  1  0.50002076  0.17495075  0.99765902  1
  Mn  Mn2  1  0.99995108  0.32504699  0.49764971  1
  Mn  Mn3  1  0.00004969  0.67495460  0.99764822  1
  O  O4  1  0.00000251  0.33766500  0.11591284  1
  O  O5  1  0.50003483  0.83765992  0.11591947  1
  O  O6  1  0.49996606  0.16233845  0.61592059  1
  O  O7  1  -0.00000236  0.66233641  0.61591184  1
