# generated using pymatgen
data_Na7Y3ZnSi3(SO8)3
_symmetry_space_group_name_H-M   'P 1'
_cell_length_a   9.43246407
_cell_length_b   9.36874754
_cell_length_c   23.09969171
_cell_angle_alpha   89.75636592
_cell_angle_beta   89.96473227
_cell_angle_gamma   119.45625938
_symmetry_Int_Tables_number   1
_chemical_formula_structural   Na7Y3ZnSi3(SO8)3
_chemical_formula_sum   'Na21 Y9 Zn3 Si9 S9 O72'
_cell_volume   1777.42402099
_cell_formula_units_Z   3
loop_
 _symmetry_equiv_pos_site_id
 _symmetry_equiv_pos_as_xyz
  1  'x, y, z'
loop_
 _atom_site_type_symbol
 _atom_site_label
 _atom_site_symmetry_multiplicity
 _atom_site_fract_x
 _atom_site_fract_y
 _atom_site_fract_z
 _atom_site_occupancy
  Na  Na0  1  0.64149015  0.00172404  0.23791319  1
  Na  Na1  1  0.39587344  0.37376441  0.23578171  1
  Na  Na2  1  0.97190306  0.62639069  0.25502682  1
  Na  Na3  1  0.62553890  0.62375393  0.73401746  1
  Na  Na4  1  0.98767929  0.33908310  0.74515478  1
  Na  Na5  1  0.39090781  0.02945558  0.75589194  1
  Na  Na6  1  0.00894363  0.69153827  0.57252267  1
  Na  Na7  1  0.67062630  0.95204791  0.58667340  1
  Na  Na8  1  0.32777091  0.99469550  0.07857037  1
  Na  Na9  1  0.65266482  0.69401900  0.09781533  1
  Na  Na10  1  0.68038395  0.03260988  0.91608940  1
  Na  Na11  1  0.33749343  0.28886617  0.91960837  1
  Na  Na12  1  0.95816924  0.29394346  0.40543593  1
  Na  Na13  1  0.32407825  0.01043838  0.41049636  1
  Na  Na14  1  0.71886069  0.68518166  0.41652218  1
  Na  Na15  1  0.97935228  0.97657403  0.49144823  1
  Na  Na16  1  0.02124177  0.01852891  0.00673627  1
  Na  Na17  1  0.64672910  0.30992886  0.82525529  1
  Na  Na18  1  0.68328114  0.34986326  0.32771958  1
  Na  Na19  1  0.35289413  0.65526282  0.16194179  1
  Na  Na20  1  0.36076893  0.64512219  0.66791937  1
  Y  Y21  1  0.00811168  0.00579445  0.84789331  1
  Y  Y22  1  0.00043845  0.00634690  0.65148549  1
  Y  Y23  1  0.99039126  0.00744235  0.14898372  1
  Y  Y24  1  0.66205528  0.32467087  0.98662051  1
  Y  Y25  1  0.67088685  0.34352873  0.48322004  1
  Y  Y26  1  0.33105238  0.67418744  0.02065212  1
  Y  Y27  1  0.34801246  0.66927616  0.51604215  1
  Y  Y28  1  0.34332910  0.67622579  0.31831894  1
  Y  Y29  1  0.34074540  0.67989391  0.81554119  1
  Zn  Zn30  1  0.95581682  0.94941940  0.35235347  1
  Zn  Zn31  1  0.63751262  0.33036374  0.68471321  1
  Zn  Zn32  1  0.65391372  0.33353484  0.17075123  1
  Si  Si33  1  0.69531493  0.68303786  0.24908649  1
  Si  Si34  1  0.30584119  0.30650124  0.75166400  1
  Si  Si35  1  0.69729251  0.01075654  0.74806889  1
  Si  Si36  1  0.66925484  0.63470057  0.58771915  1
  Si  Si37  1  0.66450802  0.03370016  0.08682641  1
  Si  Si38  1  0.36471341  0.33372931  0.08465021  1
  Si  Si39  1  0.33160289  0.97703321  0.91734629  1
  Si  Si40  1  0.64392861  0.97561746  0.41564508  1
  Si  Si41  1  0.03531158  0.67075950  0.41724254  1
  S  S42  1  0.29422156  0.00013038  0.25255741  1
  S  S43  1  0.00341905  0.30075869  0.25561184  1
  S  S44  1  0.99839560  0.69565766  0.74837597  1
  S  S45  1  0.96514746  0.33674980  0.58502233  1
  S  S46  1  0.36778316  0.03089915  0.58444760  1
  S  S47  1  0.96327593  0.62990232  0.08753660  1
  S  S48  1  0.63416864  0.66894194  0.91703228  1
  S  S49  1  0.03304037  0.36796143  0.91465134  1
  S  S50  1  0.32799295  0.36019608  0.41492925  1
  O  O51  1  0.21248292  0.01511969  0.30551637  1
  O  O52  1  0.80159468  0.75989059  0.30888804  1
  O  O53  1  0.99460923  0.20748664  0.30903459  1
  O  O54  1  0.22388613  0.19954577  0.81111908  1
  O  O55  1  0.97836111  0.78450377  0.79819212  1
  O  O56  1  0.80791739  0.03375669  0.80665564  1
  O  O57  1  0.78260946  0.97406238  0.69203376  1
  O  O58  1  0.18411210  0.20699174  0.69828692  1
  O  O59  1  0.02413970  0.79392936  0.69462455  1
  O  O60  1  0.78590516  0.80570953  0.19399270  1
  O  O61  1  0.02401617  0.21728643  0.20419577  1
  O  O62  1  0.19913705  0.98954153  0.19996839  1
  O  O63  1  0.88394794  0.35040749  0.63758012  1
  O  O64  1  0.46561688  0.11215366  0.63639351  1
  O  O65  1  0.66431824  0.53031875  0.64554618  1
  O  O66  1  0.88764564  0.53710940  0.14145502  1
  O  O67  1  0.65480989  0.13260374  0.14451846  1
  O  O68  1  0.47925747  0.36744918  0.14226286  1
  O  O69  1  0.45607265  0.31717294  0.02621401  1
  O  O70  1  0.86264172  0.54715939  0.03598055  1
  O  O71  1  0.68031415  0.13177265  0.02616593  1
  O  O72  1  0.44698351  0.12487575  0.53080289  1
  O  O73  1  0.68205314  0.54751057  0.52791151  1
  O  O74  1  0.86528739  0.31963682  0.53232053  1
  O  O75  1  0.54676990  0.68245152  0.96869992  1
  O  O76  1  0.13913328  0.45624426  0.96428195  1
  O  O77  1  0.32611932  0.87290913  0.97507965  1
  O  O78  1  0.55820291  0.85701104  0.47273502  1
  O  O79  1  0.30820973  0.44598502  0.46578496  1
  O  O80  1  0.14360604  0.68631110  0.47558371  1
  O  O81  1  0.11979549  0.63773378  0.36032928  1
  O  O82  1  0.53023906  0.88770431  0.35876507  1
  O  O83  1  0.35715724  0.46244274  0.36221438  1
  O  O84  1  0.11131176  0.45402200  0.85961658  1
  O  O85  1  0.34660370  0.88574365  0.85866857  1
  O  O86  1  0.53204991  0.64536695  0.86440460  1
  O  O87  1  0.02914846  0.84435673  0.41415201  1
  O  O88  1  0.82955801  0.00020348  0.41164611  1
  O  O89  1  0.18136229  0.19746153  0.41050138  1
  O  O90  1  0.01253137  0.19826330  0.91540268  1
  O  O91  1  0.17189031  0.00492687  0.91825861  1
  O  O92  1  0.79156963  0.82386912  0.91262112  1
  O  O93  1  0.98147328  0.18570282  0.58539383  1
  O  O94  1  0.19897349  0.00523258  0.58711527  1
  O  O95  1  0.83935234  0.81869777  0.58553512  1
  O  O96  1  0.98059485  0.79766422  0.08926975  1
  O  O97  1  0.81341899  0.98955000  0.08637236  1
  O  O98  1  0.19325143  0.15764717  0.08844444  1
  O  O99  1  0.68499435  0.18000459  0.74049907  1
  O  O100  1  0.48873007  0.32593642  0.74839415  1
  O  O101  1  0.85372863  0.53077562  0.74610558  1
  O  O102  1  0.68228366  0.49986450  0.24288527  1
  O  O103  1  0.85302310  0.31402258  0.25113896  1
  O  O104  1  0.46274641  0.14244075  0.24978933  1
  O  O105  1  0.65765346  0.52477956  0.92085879  1
  O  O106  1  0.86890454  0.35211015  0.91860743  1
  O  O107  1  0.50374902  0.15992638  0.91581885  1
  O  O108  1  0.65410664  0.15552018  0.42045795  1
  O  O109  1  0.47502216  0.34012405  0.42146272  1
  O  O110  1  0.84713056  0.51340334  0.41992903  1
  O  O111  1  0.34602393  0.49842616  0.08011823  1
  O  O112  1  0.12970590  0.65127627  0.08240697  1
  O  O113  1  0.49114556  0.85359031  0.08651246  1
  O  O114  1  0.35414437  0.86374283  0.58186807  1
  O  O115  1  0.51057732  0.66577129  0.58718454  1
  O  O116  1  0.12779788  0.48681556  0.57976907  1
  O  O117  1  0.30479532  0.84400750  0.25305635  1
  O  O118  1  0.50938350  0.66395634  0.25093032  1
  O  O119  1  0.14937913  0.46945171  0.25528019  1
  O  O120  1  0.32116423  0.48981103  0.75270230  1
  O  O121  1  0.14627835  0.67781967  0.75489335  1
  O  O122  1  0.51199244  0.84908475  0.75193262  1
