# generated using pymatgen
data_Na6Ta4Ti4Si9(SO16)3
_symmetry_space_group_name_H-M   'P 1'
_cell_length_a   17.73748634
_cell_length_b   8.87321851
_cell_length_c   22.50130630
_cell_angle_alpha   89.93884204
_cell_angle_beta   89.91664428
_cell_angle_gamma   119.99420535
_symmetry_Int_Tables_number   1
_chemical_formula_structural   Na6Ta4Ti4Si9(SO16)3
_chemical_formula_sum   'Na18 Ta12 Ti12 Si27 S9 O144'
_cell_volume   3067.15396838
_cell_formula_units_Z   3
loop_
 _symmetry_equiv_pos_site_id
 _symmetry_equiv_pos_as_xyz
  1  'x, y, z'
loop_
 _atom_site_type_symbol
 _atom_site_label
 _atom_site_symmetry_multiplicity
 _atom_site_fract_x
 _atom_site_fract_y
 _atom_site_fract_z
 _atom_site_occupancy
  Na  Na0  1  0.00071378  0.63797711  0.24637794  1
  Na  Na1  1  0.50027224  0.62559485  0.24749539  1
  Na  Na2  1  0.00018340  0.37495323  0.74759749  1
  Na  Na3  1  0.50187189  0.36565690  0.74692583  1
  Na  Na4  1  0.33460078  0.96678119  0.58792521  1
  Na  Na5  1  0.83289504  0.70269405  0.08184867  1
  Na  Na6  1  0.99776311  0.00825853  0.50230490  1
  Na  Na7  1  0.50519726  0.99950739  0.50699665  1
  Na  Na8  1  0.00426038  0.01471859  0.00166709  1
  Na  Na9  1  0.49776947  0.98859188  0.99770181  1
  Na  Na10  1  0.32809337  0.34014041  0.82755552  1
  Na  Na11  1  0.82761149  0.33941399  0.82897327  1
  Na  Na12  1  0.32904522  0.31858600  0.33095382  1
  Na  Na13  1  0.82341964  0.31481633  0.33075471  1
  Na  Na14  1  0.17171768  0.67502396  0.16460896  1
  Na  Na15  1  0.66400590  0.65605950  0.16791019  1
  Na  Na16  1  0.16553694  0.67471960  0.66975950  1
  Na  Na17  1  0.66717033  0.66577153  0.66842138  1
  Ta  Ta18  1  0.00164562  0.00185774  0.35497298  1
  Ta  Ta19  1  0.50377376  0.01010289  0.35671838  1
  Ta  Ta20  1  0.00206278  0.99604138  0.85603121  1
  Ta  Ta21  1  0.50014435  0.98797419  0.85190128  1
  Ta  Ta22  1  0.00582507  0.99845779  0.64137760  1
  Ta  Ta23  1  0.50517989  0.01212262  0.14087294  1
  Ta  Ta24  1  0.33244708  0.34357309  0.98294159  1
  Ta  Ta25  1  0.83206856  0.34045470  0.97282810  1
  Ta  Ta26  1  0.33279796  0.32618638  0.47459645  1
  Ta  Ta27  1  0.83186263  0.32063041  0.48368540  1
  Ta  Ta28  1  0.16818857  0.65249395  0.02462752  1
  Ta  Ta29  1  0.66757443  0.68363061  0.52582609  1
  Ti  Ti30  1  0.50828686  0.01652481  0.65142002  1
  Ti  Ti31  1  0.00584154  0.98167787  0.14638238  1
  Ti  Ti32  1  0.33486201  0.31699241  0.69137270  1
  Ti  Ti33  1  0.83023763  0.34871297  0.68496305  1
  Ti  Ti34  1  0.33154005  0.31231362  0.18455753  1
  Ti  Ti35  1  0.82756710  0.34832215  0.18718366  1
  Ti  Ti36  1  0.66383268  0.67475518  0.02074546  1
  Ti  Ti37  1  0.16675681  0.65512414  0.52420009  1
  Ti  Ti38  1  0.17623530  0.68159273  0.31632801  1
  Ti  Ti39  1  0.66724285  0.68252259  0.30722683  1
  Ti  Ti40  1  0.16820697  0.65195176  0.80687175  1
  Ti  Ti41  1  0.66955464  0.67339053  0.81239027  1
  Si  Si42  1  0.14969166  0.00205390  0.25113714  1
  Si  Si43  1  0.64739210  0.00840889  0.24842782  1
  Si  Si44  1  0.85378492  0.71511809  0.24844647  1
  Si  Si45  1  0.49921739  0.29206778  0.25038433  1
  Si  Si46  1  0.14676857  0.28511621  0.74843378  1
  Si  Si47  1  0.64963985  0.29411292  0.75207850  1
  Si  Si48  1  0.99916607  0.70552156  0.75059763  1
  Si  Si49  1  0.50103848  0.70918173  0.74650600  1
  Si  Si50  1  0.35464442  0.99036157  0.74886537  1
  Si  Si51  1  0.47733535  0.33080493  0.58460913  1
  Si  Si52  1  0.97858858  0.33679605  0.58782720  1
  Si  Si53  1  0.19331401  0.04551828  0.58258334  1
  Si  Si54  1  0.68623114  0.05062547  0.58892951  1
  Si  Si55  1  0.83312455  0.62172089  0.58090626  1
  Si  Si56  1  0.47891709  0.61968280  0.08759709  1
  Si  Si57  1  0.97675084  0.61413368  0.08487068  1
  Si  Si58  1  0.33264593  0.04404918  0.08087424  1
  Si  Si59  1  0.18743755  0.32377735  0.08886190  1
  Si  Si60  1  0.69038417  0.34094000  0.08064251  1
  Si  Si61  1  0.30990070  0.66723592  0.91478197  1
  Si  Si62  1  0.80721842  0.67234943  0.91735535  1
  Si  Si63  1  0.02541631  0.38216593  0.91388395  1
  Si  Si64  1  0.66543495  0.95097979  0.91610668  1
  Si  Si65  1  0.31080411  0.94972083  0.41991898  1
  Si  Si66  1  0.80821960  0.95309045  0.41459778  1
  Si  Si67  1  0.16680067  0.38485359  0.41665694  1
  Si  Si68  1  0.52532522  0.66737247  0.41384464  1
  S  S69  1  0.35511903  0.71486240  0.25086278  1
  S  S70  1  0.00108269  0.28794916  0.24915857  1
  S  S71  1  0.85569423  0.99647055  0.75042898  1
  S  S72  1  0.33340839  0.61742044  0.58314656  1
  S  S73  1  0.83381594  0.05005154  0.08426816  1
  S  S74  1  0.52188938  0.37874499  0.91706728  1
  S  S75  1  0.16878319  0.95398919  0.91657682  1
  S  S76  1  0.66921196  0.38447688  0.41615730  1
  S  S77  1  0.02223333  0.66517842  0.41587583  1
  O  O78  1  0.09838525  0.02435420  0.30856307  1
  O  O79  1  0.59796140  0.03185725  0.30679237  1
  O  O80  1  0.41005794  0.80217280  0.30431692  1
  O  O81  1  0.92104665  0.81232781  0.30449279  1
  O  O82  1  0.48590589  0.16693986  0.30847571  1
  O  O83  1  0.99036820  0.18091715  0.30405770  1
  O  O84  1  0.09545781  0.16379313  0.80692459  1
  O  O85  1  0.59942394  0.16952589  0.80965791  1
  O  O86  1  0.48572214  0.79963071  0.80665455  1
  O  O87  1  0.98569945  0.80389882  0.80873099  1
  O  O88  1  0.42033892  0.03189565  0.80589287  1
  O  O89  1  0.91087482  0.01927439  0.80414994  1
  O  O90  1  0.39916795  0.96749359  0.68855815  1
  O  O91  1  0.89621155  0.97233909  0.69649069  1
  O  O92  1  0.07922764  0.19268845  0.69288524  1
  O  O93  1  0.58340721  0.20641926  0.69456574  1
  O  O94  1  0.00911165  0.83063365  0.69350134  1
  O  O95  1  0.51721679  0.84083409  0.69147532  1
  O  O96  1  0.39410079  0.81917319  0.19680515  1
  O  O97  1  0.90079928  0.83059830  0.18875105  1
  O  O98  1  0.01312731  0.20466383  0.19674513  1
  O  O99  1  0.50917007  0.18700883  0.19343403  1
  O  O100  1  0.08246292  0.96068118  0.19395995  1
  O  O101  1  0.58082013  0.96899640  0.19277305  1
  O  O102  1  0.43539386  0.36262537  0.64462886  1
  O  O103  1  0.93482393  0.36582431  0.64645252  1
  O  O104  1  0.25558643  0.13892934  0.63956021  1
  O  O105  1  0.75152006  0.14475544  0.64355491  1
  O  O106  1  0.32076793  0.51336374  0.63639303  1
  O  O107  1  0.81852883  0.50338854  0.63993178  1
  O  O108  1  0.43435694  0.50249795  0.14647534  1
  O  O109  1  0.93428942  0.50289951  0.14605293  1
  O  O110  1  0.31820701  0.13290725  0.14023855  1
  O  O111  1  0.82240004  0.13236582  0.13747535  1
  O  O112  1  0.25141919  0.35856293  0.14429697  1
  O  O113  1  0.75233705  0.37047931  0.13980172  1
  O  O114  1  0.23324155  0.30062578  0.02765327  1
  O  O115  1  0.73562400  0.30373742  0.02448766  1
  O  O116  1  0.41642899  0.52763635  0.02820306  1
  O  O117  1  0.91182884  0.52067287  0.02874674  1
  O  O118  1  0.34785356  0.16672637  0.02288947  1
  O  O119  1  0.84477121  0.15235834  0.02959890  1
  O  O120  1  0.23497426  0.16705603  0.52371518  1
  O  O121  1  0.73458283  0.16469569  0.52723853  1
  O  O122  1  0.34193581  0.53447733  0.52819382  1
  O  O123  1  0.84828583  0.52943253  0.52234719  1
  O  O124  1  0.41291832  0.30666871  0.52766659  1
  O  O125  1  0.91695561  0.30579193  0.52774424  1
  O  O126  1  0.26418379  0.69070473  0.97476577  1
  O  O127  1  0.76314819  0.69369342  0.97796896  1
  O  O128  1  0.08516628  0.47708840  0.97251591  1
  O  O129  1  0.57498824  0.46367164  0.97016609  1
  O  O130  1  0.15521275  0.85142252  0.97083527  1
  O  O131  1  0.65144289  0.82855862  0.97477099  1
  O  O132  1  0.26378896  0.83206915  0.47754728  1
  O  O133  1  0.76563297  0.83784517  0.47437734  1
  O  O134  1  0.15069111  0.47549140  0.47462153  1
  O  O135  1  0.65552671  0.45873724  0.47024030  1
  O  O136  1  0.07449850  0.69025462  0.46895042  1
  O  O137  1  0.58617000  0.69521271  0.47179561  1
  O  O138  1  0.06149276  0.64499355  0.36033781  1
  O  O139  1  0.56671416  0.63643713  0.35382802  1
  O  O140  1  0.25063435  0.86104317  0.35952494  1
  O  O141  1  0.74733978  0.85706384  0.35738587  1
  O  O142  1  0.17546149  0.50487533  0.35813591  1
  O  O143  1  0.67927206  0.48243886  0.36190666  1
  O  O144  1  0.06604284  0.49614725  0.85420254  1
  O  O145  1  0.55949853  0.47925332  0.86171159  1
  O  O146  1  0.17909986  0.87600326  0.86246623  1
  O  O147  1  0.67571562  0.85223155  0.85822715  1
  O  O148  1  0.24770160  0.63863616  0.85815052  1
  O  O149  1  0.74755006  0.64258290  0.85900013  1
  O  O150  1  0.01274792  0.82491044  0.41100738  1
  O  O151  1  0.51498626  0.84138896  0.40700361  1
  O  O152  1  0.40725554  0.97276590  0.40985063  1
  O  O153  1  0.90631567  0.97687603  0.40616226  1
  O  O154  1  0.08112591  0.18965333  0.40798863  1
  O  O155  1  0.58945459  0.20241953  0.41223072  1
  O  O156  1  0.01477149  0.18731783  0.90861612  1
  O  O157  1  0.51264765  0.20326805  0.91342180  1
  O  O158  1  0.08883716  0.97558583  0.91285441  1
  O  O159  1  0.58093975  0.97733742  0.91158663  1
  O  O160  1  0.40611544  0.84100653  0.91021129  1
  O  O161  1  0.90572095  0.84140772  0.90997617  1
  O  O162  1  0.48076727  0.15080086  0.58811670  1
  O  O163  1  0.98583381  0.16074382  0.59148422  1
  O  O164  1  0.09609079  0.02470054  0.58910648  1
  O  O165  1  0.59050711  0.02798930  0.59032707  1
  O  O166  1  0.40926937  0.79451111  0.58521955  1
  O  O167  1  0.91777974  0.81419535  0.58930072  1
  O  O168  1  0.48566935  0.80975781  0.09261393  1
  O  O169  1  0.98180172  0.80654814  0.08977141  1
  O  O170  1  0.41709942  0.02036399  0.09009452  1
  O  O171  1  0.91097775  0.02603231  0.08820813  1
  O  O172  1  0.08940784  0.15686230  0.09427502  1
  O  O173  1  0.59502979  0.16642753  0.08837173  1
  O  O174  1  0.35006811  0.17174216  0.74467017  1
  O  O175  1  0.85005353  0.15548333  0.74803357  1
  O  O176  1  0.24124160  0.30514619  0.74130828  1
  O  O177  1  0.74335000  0.30718627  0.74492000  1
  O  O178  1  0.41592915  0.51564980  0.74181800  1
  O  O179  1  0.91456189  0.51093988  0.74575887  1
  O  O180  1  0.34836225  0.54354036  0.24830121  1
  O  O181  1  0.85144400  0.52525202  0.24405725  1
  O  O182  1  0.41462461  0.31839018  0.24568567  1
  O  O183  1  0.92219370  0.30495234  0.24728604  1
  O  O184  1  0.24324701  0.17428228  0.24522161  1
  O  O185  1  0.74409879  0.17630546  0.24083095  1
  O  O186  1  0.32105321  0.49268865  0.92257997  1
  O  O187  1  0.81942683  0.49894073  0.92201241  1
  O  O188  1  0.43308826  0.35941657  0.92259216  1
  O  O189  1  0.92853489  0.35721462  0.92611794  1
  O  O190  1  0.24563717  0.13354442  0.92218475  1
  O  O191  1  0.75365827  0.14020422  0.92383552  1
  O  O192  1  0.32005477  0.14274612  0.42178194  1
  O  O193  1  0.82115169  0.15118744  0.42139742  1
  O  O194  1  0.25340024  0.36806382  0.42250874  1
  O  O195  1  0.74609973  0.35821558  0.42120726  1
  O  O196  1  0.42805758  0.50061433  0.42480119  1
  O  O197  1  0.93326662  0.51056388  0.41966850  1
  O  O198  1  0.17933137  0.49961520  0.07959159  1
  O  O199  1  0.68433732  0.51604695  0.07659498  1
  O  O200  1  0.07385214  0.64419580  0.07583355  1
  O  O201  1  0.57472175  0.64071424  0.07603799  1
  O  O202  1  0.24597371  0.85493651  0.07419423  1
  O  O203  1  0.75480412  0.87136027  0.07968608  1
  O  O204  1  0.18444125  0.85399487  0.57531013  1
  O  O205  1  0.67941342  0.85906540  0.57974383  1
  O  O206  1  0.25314092  0.63737476  0.57845000  1
  O  O207  1  0.74638403  0.63675931  0.57323825  1
  O  O208  1  0.07434136  0.50853616  0.57544460  1
  O  O209  1  0.57369030  0.50104861  0.57360603  1
  O  O210  1  0.15039253  0.81694591  0.25817703  1
  O  O211  1  0.65134893  0.82858930  0.25377132  1
  O  O212  1  0.26713586  0.69717796  0.25681107  1
  O  O213  1  0.75793177  0.68756934  0.25720105  1
  O  O214  1  0.07798988  0.46537632  0.25584760  1
  O  O215  1  0.58587427  0.48236282  0.25590667  1
  O  O216  1  0.15035064  0.47281056  0.75394616  1
  O  O217  1  0.65374754  0.48200334  0.75941523  1
  O  O218  1  0.08618732  0.69001310  0.75607182  1
  O  O219  1  0.58593697  0.68417457  0.75687942  1
  O  O220  1  0.25836293  0.82480172  0.75824081  1
  O  O221  1  0.76885486  0.83942457  0.75578698  1
