# generated using pymatgen
data_Sr4MgFe2(BrO3)2
_symmetry_space_group_name_H-M   'P 1'
_cell_length_a   4.08068900
_cell_length_b   4.08175600
_cell_length_c   16.34739400
_cell_angle_alpha   90.00000000
_cell_angle_beta   90.00000000
_cell_angle_gamma   90.00000000
_symmetry_Int_Tables_number   1
_chemical_formula_structural   Sr4MgFe2(BrO3)2
_chemical_formula_sum   'Sr4 Mg1 Fe2 Br2 O6'
_cell_volume   272.28835432
_cell_formula_units_Z   1
loop_
 _symmetry_equiv_pos_site_id
 _symmetry_equiv_pos_as_xyz
  1  'x, y, z'
loop_
 _atom_site_type_symbol
 _atom_site_label
 _atom_site_symmetry_multiplicity
 _atom_site_fract_x
 _atom_site_fract_y
 _atom_site_fract_z
 _atom_site_occupancy
  Sr  Sr0  1  0.75000000  0.75000000  0.68051900  1
  Sr  Sr1  1  0.25000000  0.25000000  0.12282300  1
  Sr  Sr2  1  0.75000000  0.75000000  0.87709400  1
  Sr  Sr3  1  0.25000000  0.25000000  0.31949300  1
  Mg  Mg4  1  0.25000000  0.75000000  0.99991600  1
  Fe  Fe5  1  0.25000000  0.25000000  0.79657600  1
  Fe  Fe6  1  0.75000000  0.75000000  0.20336400  1
  Br  Br7  1  0.75000000  0.75000000  0.40345500  1
  Br  Br8  1  0.25000000  0.25000000  0.59648800  1
  O  O9  1  0.75000000  0.25000000  0.78179000  1
  O  O10  1  0.25000000  0.75000000  0.78794200  1
  O  O11  1  0.75000000  0.25000000  0.21822400  1
  O  O12  1  0.25000000  0.75000000  0.21209300  1
  O  O13  1  0.75000000  0.75000000  0.04742500  1
  O  O14  1  0.25000000  0.25000000  0.95279900  1
