# generated using pymatgen
data_Na2Al2Ga2SiS5O24
_symmetry_space_group_name_H-M   'P 1'
_cell_length_a   8.44741173
_cell_length_b   8.44099970
_cell_length_c   22.00009074
_cell_angle_alpha   89.39113847
_cell_angle_beta   90.26481369
_cell_angle_gamma   119.66645787
_symmetry_Int_Tables_number   1
_chemical_formula_structural   Na2Al2Ga2SiS5O24
_chemical_formula_sum   'Na6 Al6 Ga6 Si3 S15 O72'
_cell_volume   1363.00635964
_cell_formula_units_Z   3
loop_
 _symmetry_equiv_pos_site_id
 _symmetry_equiv_pos_as_xyz
  1  'x, y, z'
loop_
 _atom_site_type_symbol
 _atom_site_label
 _atom_site_symmetry_multiplicity
 _atom_site_fract_x
 _atom_site_fract_y
 _atom_site_fract_z
 _atom_site_occupancy
  Na  Na0  1  0.98830841  0.98415916  0.50510234  1
  Na  Na1  1  0.00011844  0.99955277  0.99772925  1
  Na  Na2  1  0.67013744  0.31904361  0.82474441  1
  Na  Na3  1  0.65275242  0.32221322  0.33482890  1
  Na  Na4  1  0.33000111  0.67803582  0.17187017  1
  Na  Na5  1  0.36424974  0.67732882  0.66491490  1
  Al  Al6  1  0.01225000  0.00391943  0.35349898  1
  Al  Al7  1  0.97357613  0.98246858  0.64536684  1
  Al  Al8  1  0.66278679  0.33082671  0.68312655  1
  Al  Al9  1  0.66913095  0.34107214  0.48600947  1
  Al  Al10  1  0.34202434  0.66615280  0.52396488  1
  Al  Al11  1  0.34100113  0.67171846  0.80766255  1
  Ga  Ga12  1  0.98796739  0.00447853  0.84117374  1
  Ga  Ga13  1  0.00725094  0.99494501  0.15329744  1
  Ga  Ga14  1  0.65568432  0.32438146  0.19069321  1
  Ga  Ga15  1  0.66699574  0.33086613  0.97905130  1
  Ga  Ga16  1  0.33263571  0.66881937  0.01673244  1
  Ga  Ga17  1  0.33329865  0.67785981  0.31665122  1
  Si  Si18  1  0.28913698  0.99827709  0.25156117  1
  Si  Si19  1  0.70520767  0.00621990  0.74833208  1
  Si  Si20  1  0.66771208  0.62004840  0.58317832  1
  S  S21  1  0.71371805  0.71376607  0.25180870  1
  S  S22  1  0.00186738  0.28728887  0.25130928  1
  S  S23  1  0.28847807  0.28889132  0.74940068  1
  S  S24  1  0.00143004  0.71005679  0.74998034  1
  S  S25  1  0.95672690  0.33508298  0.58215121  1
  S  S26  1  0.37671577  0.04523050  0.58234290  1
  S  S27  1  0.95348392  0.62065932  0.08297020  1
  S  S28  1  0.66939457  0.04042018  0.08313285  1
  S  S29  1  0.37468117  0.33556301  0.08186044  1
  S  S30  1  0.62210115  0.66525105  0.91634401  1
  S  S31  1  0.04775582  0.37967072  0.91609787  1
  S  S32  1  0.32951971  0.95583522  0.91549147  1
  S  S33  1  0.62957591  0.96296129  0.41812497  1
  S  S34  1  0.33115864  0.37744548  0.41729192  1
  S  S35  1  0.04013541  0.66253830  0.41882106  1
  O  O36  1  0.19232315  0.02761511  0.30941292  1
  O  O37  1  0.82411810  0.80569315  0.30546660  1
  O  O38  1  0.96515552  0.16775364  0.30495120  1
  O  O39  1  0.21945514  0.17600912  0.80732301  1
  O  O40  1  0.97093723  0.78645651  0.80769778  1
  O  O41  1  0.81857620  0.05339701  0.81356465  1
  O  O42  1  0.80847799  0.97093944  0.69411536  1
  O  O43  1  0.17550554  0.20084292  0.69677229  1
  O  O44  1  0.04252214  0.83308959  0.69767674  1
  O  O45  1  0.78065653  0.82456964  0.19427053  1
  O  O46  1  0.02385928  0.20860936  0.19355436  1
  O  O47  1  0.17851724  0.95952276  0.18731152  1
  O  O48  1  0.87383935  0.36173166  0.63650371  1
  O  O49  1  0.49474338  0.11775363  0.63609579  1
  O  O50  1  0.63445970  0.49236743  0.64221394  1
  O  O51  1  0.86983349  0.50859994  0.13771412  1
  O  O52  1  0.63984524  0.12424879  0.13672282  1
  O  O53  1  0.48697448  0.36488975  0.13627661  1
  O  O54  1  0.45671321  0.30563806  0.02634977  1
  O  O55  1  0.84669964  0.53759197  0.02656899  1
  O  O56  1  0.69888072  0.14988970  0.02620942  1
  O  O57  1  0.46172699  0.15542954  0.52615442  1
  O  O58  1  0.69791181  0.53225058  0.52208458  1
  O  O59  1  0.83781943  0.29272308  0.52724590  1
  O  O60  1  0.54592895  0.69466922  0.97393314  1
  O  O61  1  0.14947302  0.45884248  0.97423368  1
  O  O62  1  0.30131670  0.85255332  0.97452792  1
  O  O63  1  0.54021847  0.84289417  0.47084605  1
  O  O64  1  0.30540232  0.46763469  0.46997606  1
  O  O65  1  0.16047711  0.69346066  0.47115898  1
  O  O66  1  0.11631025  0.63138485  0.36212088  1
  O  O67  1  0.52090824  0.89106145  0.36141395  1
  O  O68  1  0.36514693  0.48932565  0.36063679  1
  O  O69  1  0.13825102  0.49466953  0.86325217  1
  O  O70  1  0.35481868  0.86331837  0.86415279  1
  O  O71  1  0.50591138  0.64096633  0.86402759  1
  O  O72  1  0.01660151  0.82650454  0.41193844  1
  O  O73  1  0.81269552  0.97872363  0.41027087  1
  O  O74  1  0.16096454  0.19637450  0.41121812  1
  O  O75  1  0.03162567  0.19759198  0.91339664  1
  O  O76  1  0.16839861  0.97933846  0.90963285  1
  O  O77  1  0.80757269  0.82352419  0.91128110  1
  O  O78  1  0.99207872  0.18075528  0.58962187  1
  O  O79  1  0.20111573  0.03922783  0.59110466  1
  O  O80  1  0.85092007  0.81960047  0.58950486  1
  O  O81  1  0.96699056  0.80265241  0.08598839  1
  O  O82  1  0.83357062  0.02008492  0.08927895  1
  O  O83  1  0.18944390  0.17496987  0.08675544  1
  O  O84  1  0.68242149  0.18393571  0.73748572  1
  O  O85  1  0.47530460  0.32025268  0.74373612  1
  O  O86  1  0.83757010  0.53185085  0.74229806  1
  O  O87  1  0.71565517  0.53986637  0.24527869  1
  O  O88  1  0.84322166  0.31690543  0.24550590  1
  O  O89  1  0.48940963  0.18267477  0.24679203  1
  O  O90  1  0.63413302  0.49392542  0.92175162  1
  O  O91  1  0.86223452  0.36307996  0.92051820  1
  O  O92  1  0.49959003  0.13863613  0.92094298  1
  O  O93  1  0.65146011  0.14742424  0.42638317  1
  O  O94  1  0.48953872  0.34780150  0.42350253  1
  O  O95  1  0.85861826  0.49643602  0.42499510  1
  O  O96  1  0.35860152  0.50348821  0.07588155  1
  O  O97  1  0.13967050  0.64204357  0.07801586  1
  O  O98  1  0.50344771  0.85712496  0.07707410  1
  O  O99  1  0.34534362  0.85693575  0.57304056  1
  O  O100  1  0.48621687  0.64251016  0.57563219  1
  O  O101  1  0.13265729  0.50522890  0.57181755  1
  O  O102  1  0.31231754  0.81843999  0.25738935  1
  O  O103  1  0.52498234  0.67686058  0.25815352  1
  O  O104  1  0.17065887  0.46270941  0.25810107  1
  O  O105  1  0.29386884  0.46653825  0.75907536  1
  O  O106  1  0.16053758  0.68251715  0.75958933  1
  O  O107  1  0.50787841  0.82202450  0.75789215  1
