# generated using pymatgen
data_Na4Mg(CoO3)2
_symmetry_space_group_name_H-M   'P 1'
_cell_length_a   6.45511751
_cell_length_b   6.45511751
_cell_length_c   5.91455269
_cell_angle_alpha   84.20971351
_cell_angle_beta   95.79028649
_cell_angle_gamma   123.63060974
_symmetry_Int_Tables_number   1
_chemical_formula_structural   Na4Mg(CoO3)2
_chemical_formula_sum   'Na4 Mg1 Co2 O6'
_cell_volume   203.85261463
_cell_formula_units_Z   1
loop_
 _symmetry_equiv_pos_site_id
 _symmetry_equiv_pos_as_xyz
  1  'x, y, z'
loop_
 _atom_site_type_symbol
 _atom_site_label
 _atom_site_symmetry_multiplicity
 _atom_site_fract_x
 _atom_site_fract_y
 _atom_site_fract_z
 _atom_site_occupancy
  Na  Na0  1  0.22985736  0.77014264  0.27094979  1
  Na  Na1  1  0.00000000  0.00000000  0.50000000  1
  Na  Na2  1  0.00000000  0.00000000  0.00000000  1
  Na  Na3  1  0.77014264  0.22985736  0.72905021  1
  Mg  Mg4  1  0.50000000  0.50000000  0.50000000  1
  Co  Co5  1  0.32515113  0.67484887  0.77463515  1
  Co  Co6  1  0.67484887  0.32515113  0.22536485  1
  O  O7  1  0.18975838  0.81024162  0.87900441  1
  O  O8  1  0.62929864  0.81851824  0.66254297  1
  O  O9  1  0.18148176  0.37070136  0.66254297  1
  O  O10  1  0.81851824  0.62929864  0.33745703  1
  O  O11  1  0.37070136  0.18148176  0.33745703  1
  O  O12  1  0.81024162  0.18975838  0.12099559  1
