# generated using pymatgen
data_Na3GaSi3Ge3(SO8)3
_symmetry_space_group_name_H-M   'P 1'
_cell_length_a   8.54570871
_cell_length_b   8.60609061
_cell_length_c   22.03817932
_cell_angle_alpha   89.47308542
_cell_angle_beta   90.34874373
_cell_angle_gamma   120.01371875
_symmetry_Int_Tables_number   1
_chemical_formula_structural   Na3GaSi3Ge3(SO8)3
_chemical_formula_sum   'Na9 Ga3 Si9 Ge9 S9 O72'
_cell_volume   1403.39939744
_cell_formula_units_Z   3
loop_
 _symmetry_equiv_pos_site_id
 _symmetry_equiv_pos_as_xyz
  1  'x, y, z'
loop_
 _atom_site_type_symbol
 _atom_site_label
 _atom_site_symmetry_multiplicity
 _atom_site_fract_x
 _atom_site_fract_y
 _atom_site_fract_z
 _atom_site_occupancy
  Na  Na0  1  0.36165677  0.36151826  0.24584540  1
  Na  Na1  1  0.63492590  0.62756581  0.75258517  1
  Na  Na2  1  0.96745259  0.29140068  0.41658844  1
  Na  Na3  1  0.99726212  -0.00065305  0.49898611  1
  Na  Na4  1  0.00065648  0.99553651  0.00152980  1
  Na  Na5  1  0.66611595  0.33366680  0.83281371  1
  Na  Na6  1  0.66754758  0.32551815  0.33165041  1
  Na  Na7  1  0.31995567  0.66460295  0.16398898  1
  Na  Na8  1  0.31136824  0.65536809  0.66622784  1
  Ga  Ga9  1  0.99193279  0.01196321  0.35586167  1
  Ga  Ga10  1  0.68090695  0.34474075  0.68899440  1
  Ga  Ga11  1  0.69121948  0.34863225  0.18018503  1
  Si  Si12  1  0.99178061  0.29052536  0.25009848  1
  Si  Si13  1  0.28543687  0.28098564  0.75200771  1
  Si  Si14  1  0.00970880  0.71935859  0.74912588  1
  Si  Si15  1  0.95620437  0.33280993  0.58330299  1
  Si  Si16  1  0.96608934  0.63363107  0.08270495  1
  Si  Si17  1  0.38229489  0.33468738  0.08556933  1
  Si  Si18  1  0.62175815  0.67481484  0.91587906  1
  Si  Si19  1  0.60833470  0.93926410  0.41747539  1
  Si  Si20  1  0.34283870  0.37461918  0.41741893  1
  Ge  Ge21  1  0.00105244  0.98351813  0.85204367  1
  Ge  Ge22  1  0.01758675  0.01994279  0.64820687  1
  Ge  Ge23  1  0.01722632  0.01420657  0.14317590  1
  Ge  Ge24  1  0.66227032  0.36660368  0.98371199  1
  Ge  Ge25  1  0.65515410  0.30620154  0.47864444  1
  Ge  Ge26  1  0.34171912  0.66117674  0.02403166  1
  Ge  Ge27  1  0.32931348  0.64525605  0.51762362  1
  Ge  Ge28  1  0.33731292  0.65792525  0.31573813  1
  Ge  Ge29  1  0.31928329  0.64650043  0.81213145  1
  S  S30  1  0.28601130  0.99155218  0.25134680  1
  S  S31  1  0.71688135  0.71868888  0.25073097  1
  S  S32  1  0.71376936  0.00235525  0.75064511  1
  S  S33  1  0.37588469  0.04005751  0.58426599  1
  S  S34  1  0.66857599  0.62485237  0.58302851  1
  S  S35  1  0.66707271  0.04804461  0.08170311  1
  S  S36  1  0.03946212  0.37336192  0.91779440  1
  S  S37  1  0.33850578  0.95583168  0.91692109  1
  S  S38  1  0.04632423  0.66967711  0.41671035  1
  O  O39  1  0.20076785  0.02025010  0.30504342  1
  O  O40  1  0.82434970  0.79595217  0.30599418  1
  O  O41  1  0.96706835  0.18249266  0.31281799  1
  O  O42  1  0.19130337  0.16051594  0.81300244  1
  O  O43  1  0.95168258  0.79346258  0.80830719  1
  O  O44  1  0.82455710  0.03411433  0.80624177  1
  O  O45  1  0.78910726  0.96160012  0.69577213  1
  O  O46  1  0.16243258  0.21080728  0.69093160  1
  O  O47  1  0.03761271  0.84396912  0.68829121  1
  O  O48  1  0.79628891  0.82538520  0.19496342  1
  O  O49  1  0.04491647  0.19868272  0.19277955  1
  O  O50  1  0.17548077  0.95928670  0.19449084  1
  O  O51  1  0.86754953  0.36655867  0.64151307  1
  O  O52  1  0.48430763  0.12392862  0.63834110  1
  O  O53  1  0.63277243  0.51896829  0.63992820  1
  O  O54  1  0.89656618  0.50846656  0.14158249  1
  O  O55  1  0.63201697  0.11906215  0.13706738  1
  O  O56  1  0.49544105  0.36301413  0.14770667  1
  O  O57  1  0.46059099  0.28770745  0.02455181  1
  O  O58  1  0.84019507  0.54793739  0.02167757  1
  O  O59  1  0.70066625  0.15982835  0.02620832  1
  O  O60  1  0.45119496  0.15389594  0.52763328  1
  O  O61  1  0.69490425  0.53936775  0.52940380  1
  O  O62  1  0.83535055  0.30083286  0.51988305  1
  O  O63  1  0.52784383  0.70709527  0.97479896  1
  O  O64  1  0.15450986  0.45749882  0.97148515  1
  O  O65  1  0.30277570  0.84376148  0.97178391  1
  O  O66  1  0.51565691  0.82401723  0.47930974  1
  O  O67  1  0.28125611  0.45539492  0.47351390  1
  O  O68  1  0.15631320  0.70226053  0.47254971  1
  O  O69  1  0.12124250  0.62505014  0.36217172  1
  O  O70  1  0.48316549  0.85940941  0.35636300  1
  O  O71  1  0.37947716  0.49508335  0.35488934  1
  O  O72  1  0.11343449  0.48813332  0.86119293  1
  O  O73  1  0.36247388  0.87351195  0.86121282  1
  O  O74  1  0.49829880  0.63929112  0.85414860  1
  O  O75  1  0.02768272  0.82734787  0.40824945  1
  O  O76  1  0.80816830  0.96297453  0.41418524  1
  O  O77  1  0.16773091  0.17693614  0.41165033  1
  O  O78  1  0.02774104  0.19753139  0.91098931  1
  O  O79  1  0.17246623  0.97604186  0.91248410  1
  O  O80  1  0.82459223  0.85676305  0.90934362  1
  O  O81  1  0.97317969  0.14759502  0.58905266  1
  O  O82  1  0.19203129  0.02210747  0.58662451  1
  O  O83  1  0.83102015  0.80585452  0.58792425  1
  O  O84  1  0.97132430  0.82529992  0.09321188  1
  O  O85  1  0.82795111  0.02476292  0.08815710  1
  O  O86  1  0.17974270  0.16019610  0.08829888  1
  O  O87  1  0.69151139  0.15910392  0.74455185  1
  O  O88  1  0.48529760  0.30677009  0.74355752  1
  O  O89  1  0.83250636  0.52261495  0.74506296  1
  O  O90  1  0.68494953  0.53346838  0.24748136  1
  O  O91  1  0.81294682  0.30707145  0.24349154  1
  O  O92  1  0.46402462  0.15529260  0.24564141  1
  O  O93  1  0.63858257  0.49024352  0.92040566  1
  O  O94  1  0.85585096  0.35046205  0.92330528  1
  O  O95  1  0.50351824  0.13521904  0.92153232  1
  O  O96  1  0.64078658  0.14647530  0.42200771  1
  O  O97  1  0.52967684  0.37137526  0.42886863  1
  O  O98  1  0.86625541  0.50384310  0.42277991  1
  O  O99  1  0.36647540  0.51500589  0.07699228  1
  O  O100  1  0.16747986  0.66099973  0.06976969  1
  O  O101  1  0.50347763  0.86654033  0.07565363  1
  O  O102  1  0.35826827  0.86214241  0.57761149  1
  O  O103  1  0.50282587  0.64419811  0.57786995  1
  O  O104  1  0.15819939  0.51838521  0.57487153  1
  O  O105  1  0.30341312  0.82865359  0.25564327  1
  O  O106  1  0.53137579  0.70317256  0.25373460  1
  O  O107  1  0.18484793  0.49399546  0.25713661  1
  O  O108  1  0.31270248  0.48587161  0.75753615  1
  O  O109  1  0.19356410  0.70774743  0.75994204  1
  O  O110  1  0.53344089  0.83640045  0.75620227  1
