# generated using pymatgen
data_Na7La2Si3Ge2(PO8)3
_symmetry_space_group_name_H-M   'P 1'
_cell_length_a   9.16225367
_cell_length_b   9.19452913
_cell_length_c   22.41965598
_cell_angle_alpha   89.71426406
_cell_angle_beta   89.27756832
_cell_angle_gamma   119.61625957
_symmetry_Int_Tables_number   1
_chemical_formula_structural   Na7La2Si3Ge2(PO8)3
_chemical_formula_sum   'Na21 La6 Si9 Ge6 P9 O72'
_cell_volume   1641.67459510
_cell_formula_units_Z   3
loop_
 _symmetry_equiv_pos_site_id
 _symmetry_equiv_pos_as_xyz
  1  'x, y, z'
loop_
 _atom_site_type_symbol
 _atom_site_label
 _atom_site_symmetry_multiplicity
 _atom_site_fract_x
 _atom_site_fract_y
 _atom_site_fract_z
 _atom_site_occupancy
  Na  Na0  1  0.62226131  0.00078545  0.25521040  1
  Na  Na1  1  0.37451583  0.37719150  0.24837491  1
  Na  Na2  1  0.00238058  0.61214136  0.25090627  1
  Na  Na3  1  0.63756226  0.63313559  0.74176680  1
  Na  Na4  1  0.99016588  0.36735677  0.74283034  1
  Na  Na5  1  0.37952598  0.00634115  0.73979427  1
  Na  Na6  1  0.02743508  0.69394231  0.58204489  1
  Na  Na7  1  0.66409889  0.96722375  0.58039223  1
  Na  Na8  1  0.67199098  0.68538320  0.08244880  1
  Na  Na9  1  0.02052838  0.34014680  0.08755245  1
  Na  Na10  1  0.95703466  0.66073520  0.92684617  1
  Na  Na11  1  0.69819799  0.03472484  0.92341360  1
  Na  Na12  1  0.34187729  0.30274950  0.92325050  1
  Na  Na13  1  0.97173797  0.30392517  0.41751223  1
  Na  Na14  1  0.33227454  0.03008460  0.42006602  1
  Na  Na15  1  0.99911370  0.99993899  0.49945328  1
  Na  Na16  1  0.01250992  0.99548005  0.00915847  1
  Na  Na17  1  0.66711199  0.33355009  0.83237884  1
  Na  Na18  1  0.67857248  0.34928834  0.34377570  1
  Na  Na19  1  0.32154936  0.66721944  0.16080488  1
  Na  Na20  1  0.33404047  0.65506592  0.65534833  1
  La  La21  1  0.99286286  0.99519299  0.85364095  1
  La  La22  1  0.66988621  0.33341584  0.65893392  1
  La  La23  1  0.67114339  0.33277836  0.18159214  1
  La  La24  1  0.66149785  0.33782681  0.00206216  1
  La  La25  1  0.32751708  0.65929477  0.32745555  1
  La  La26  1  0.34266271  0.67309045  0.81132286  1
  Si  Si27  1  0.99786598  0.26731885  0.25433969  1
  Si  Si28  1  0.71348829  0.00642364  0.74041841  1
  Si  Si29  1  0.98942218  0.34177976  0.57894251  1
  Si  Si30  1  0.35716225  0.02032643  0.58069379  1
  Si  Si31  1  0.00224514  0.67112909  0.08484882  1
  Si  Si32  1  0.33732700  0.33436124  0.08329884  1
  Si  Si33  1  0.62409507  0.66186033  0.92218619  1
  Si  Si34  1  0.63483144  0.97504816  0.41806800  1
  Si  Si35  1  0.01292368  0.66105206  0.41833972  1
  Ge  Ge36  1  0.97751915  0.98213010  0.35651229  1
  Ge  Ge37  1  0.01685516  0.02157556  0.64220285  1
  Ge  Ge38  1  0.00869539  0.00595477  0.14969153  1
  Ge  Ge39  1  0.66698567  0.32695390  0.48775583  1
  Ge  Ge40  1  0.33116630  0.66363000  0.02012830  1
  Ge  Ge41  1  0.32949311  0.67484202  0.51022260  1
  P  P42  1  0.26698551  0.99919019  0.25415244  1
  P  P43  1  0.72951987  0.72819894  0.25133074  1
  P  P44  1  0.29180617  0.29104730  0.74200501  1
  P  P45  1  0.99829190  0.70989576  0.73942986  1
  P  P46  1  0.65709235  0.63923595  0.57869538  1
  P  P47  1  0.66682902  0.00108064  0.08503321  1
  P  P48  1  0.04144350  0.37594930  0.92334902  1
  P  P49  1  0.33787164  0.95857025  0.92299680  1
  P  P50  1  0.34394051  0.36483553  0.42039519  1
  O  O51  1  0.17796881  0.00596732  0.31321831  1
  O  O52  1  0.82613633  0.81060599  0.30926799  1
  O  O53  1  0.98961590  0.16310328  0.31661829  1
  O  O54  1  0.22337722  0.21027554  0.80367437  1
  O  O55  1  0.99333549  0.78202345  0.80098469  1
  O  O56  1  0.79424176  0.01717380  0.80525174  1
  O  O57  1  0.83252253  0.99749897  0.68314146  1
  O  O58  1  0.18067809  0.17696023  0.69088029  1
  O  O59  1  0.00521941  0.82395076  0.68611887  1
  O  O60  1  0.82290074  0.82446565  0.19417327  1
  O  O61  1  0.99537733  0.16619384  0.19398101  1
  O  O62  1  0.17013744  0.99250371  0.19764731  1
  O  O63  1  0.94720148  0.40143265  0.64142845  1
  O  O64  1  0.45663695  0.06560978  0.64231843  1
  O  O65  1  0.62403568  0.56586492  0.64221844  1
  O  O66  1  0.92334976  0.53216732  0.13959057  1
  O  O67  1  0.63360293  0.08406949  0.13902605  1
  O  O68  1  0.47493549  0.38347463  0.13624203  1
  O  O69  1  0.40162746  0.29397465  0.02190629  1
  O  O70  1  0.87517745  0.60219109  0.02878125  1
  O  O71  1  0.71094712  0.11319691  0.02911578  1
  O  O72  1  0.47323509  0.16438191  0.52999482  1
  O  O73  1  0.68968486  0.51866186  0.53800314  1
  O  O74  1  0.82768143  0.29503247  0.53341926  1
  O  O75  1  0.50013291  0.66162396  0.97710047  1
  O  O76  1  0.14591672  0.48850604  0.97574104  1
  O  O77  1  0.33656329  0.83875299  0.97176073  1
  O  O78  1  0.52254559  0.83803723  0.47052198  1
  O  O79  1  0.31130910  0.48010730  0.46273504  1
  O  O80  1  0.16696676  0.70957239  0.46629926  1
  O  O81  1  0.06136967  0.60136866  0.35638412  1
  O  O82  1  0.53146359  0.92282911  0.35644004  1
  O  O83  1  0.37883067  0.44234680  0.35690212  1
  O  O84  1  0.11124955  0.45806354  0.86200915  1
  O  O85  1  0.34269600  0.89402152  0.86002593  1
  O  O86  1  0.54412207  0.65089924  0.85713834  1
  O  O87  1  0.00879745  0.84093717  0.41094821  1
  O  O88  1  0.82602663  0.99459166  0.41352932  1
  O  O89  1  0.18136863  0.18947282  0.42187658  1
  O  O90  1  0.04068913  0.20837513  0.92950515  1
  O  O91  1  0.17744980  0.97178463  0.93058705  1
  O  O92  1  0.80380069  0.83346810  0.93083889  1
  O  O93  1  0.99542902  0.16410105  0.58442991  1
  O  O94  1  0.16431107  0.99824737  0.58688283  1
  O  O95  1  0.82123336  0.81293741  0.57621376  1
  O  O96  1  0.01309840  0.85045040  0.09930985  1
  O  O97  1  0.82239754  0.97852184  0.09499885  1
  O  O98  1  0.14888220  0.17519362  0.09651494  1
  O  O99  1  0.69316322  0.17088176  0.73733524  1
  O  O100  1  0.46983663  0.31545825  0.73708258  1
  O  O101  1  0.83753286  0.53707791  0.73819590  1
  O  O102  1  0.71039167  0.55144041  0.25133562  1
  O  O103  1  0.82938925  0.28704427  0.25549125  1
  O  O104  1  0.44181374  0.15904880  0.25261978  1
  O  O105  1  0.64857460  0.49776832  0.92434214  1
  O  O106  1  0.86132965  0.34783913  0.92718435  1
  O  O107  1  0.49736839  0.13127775  0.92650467  1
  O  O108  1  0.66007041  0.16506775  0.43184723  1
  O  O109  1  0.49743734  0.34067332  0.43431166  1
  O  O110  1  0.83307270  0.49354711  0.43747801  1
  O  O111  1  0.31482184  0.50173329  0.07633683  1
  O  O112  1  0.18558600  0.68659515  0.07183104  1
  O  O113  1  0.51256702  0.82482203  0.07727775  1
  O  O114  1  0.33275969  0.83250738  0.56563614  1
  O  O115  1  0.50464870  0.66260879  0.56376865  1
  O  O116  1  0.16687911  0.50801925  0.55845315  1
  O  O117  1  0.28764589  0.84185927  0.25317413  1
  O  O118  1  0.55519018  0.71549451  0.25176191  1
  O  O119  1  0.16705271  0.45270159  0.25143176  1
  O  O120  1  0.29093301  0.45736544  0.73624466  1
  O  O121  1  0.15798311  0.69415899  0.73445525  1
  O  O122  1  0.53239679  0.83158740  0.73349761  1
