# generated using pymatgen
data_Zr3ZnSiS5O24
_symmetry_space_group_name_H-M   'P 1'
_cell_length_a   8.97971496
_cell_length_b   8.96797541
_cell_length_c   23.06665456
_cell_angle_alpha   89.82022565
_cell_angle_beta   89.98275920
_cell_angle_gamma   119.98933167
_symmetry_Int_Tables_number   1
_chemical_formula_structural   Zr3ZnSiS5O24
_chemical_formula_sum   'Zr9 Zn3 Si3 S15 O72'
_cell_volume   1608.85065374
_cell_formula_units_Z   3
loop_
 _symmetry_equiv_pos_site_id
 _symmetry_equiv_pos_as_xyz
  1  'x, y, z'
loop_
 _atom_site_type_symbol
 _atom_site_label
 _atom_site_symmetry_multiplicity
 _atom_site_fract_x
 _atom_site_fract_y
 _atom_site_fract_z
 _atom_site_occupancy
  Zr  Zr0  1  0.00877460  0.00885469  0.85743125  1
  Zr  Zr1  1  0.99150625  0.99163483  0.64505600  1
  Zr  Zr2  1  0.00072708  0.00106716  0.14429059  1
  Zr  Zr3  1  0.66636004  0.32732745  0.97336929  1
  Zr  Zr4  1  0.66994772  0.34491007  0.48054508  1
  Zr  Zr5  1  0.32268955  0.66358390  0.01834917  1
  Zr  Zr6  1  0.34039497  0.66725381  0.52509683  1
  Zr  Zr7  1  0.33349268  0.66741781  0.30942259  1
  Zr  Zr8  1  0.32477042  0.66940976  0.81221179  1
  Zn  Zn9  1  0.99917477  0.99929378  0.35224161  1
  Zn  Zn10  1  0.66311057  0.34222379  0.68725049  1
  Zn  Zn11  1  0.66628379  0.33366880  0.18582969  1
  Si  Si12  1  0.66818061  0.61836312  0.58704263  1
  Si  Si13  1  0.04510950  0.37780126  0.91618764  1
  Si  Si14  1  0.33159466  0.95400703  0.91592845  1
  S  S15  1  0.29209037  0.00667748  0.25085085  1
  S  S16  1  0.71414852  0.70789243  0.25082673  1
  S  S17  1  0.99369556  0.28587298  0.25087759  1
  S  S18  1  0.29507913  0.29054054  0.74896902  1
  S  S19  1  0.99396187  0.70478311  0.74971587  1
  S  S20  1  0.70922327  0.00580775  0.74943969  1
  S  S21  1  0.95385759  0.33309505  0.58470971  1
  S  S22  1  0.37960916  0.04690306  0.58472251  1
  S  S23  1  0.95311645  0.61939899  0.08529254  1
  S  S24  1  0.66481040  0.04489827  0.08529501  1
  S  S25  1  0.38160889  0.33591325  0.08523499  1
  S  S26  1  0.62202985  0.66763738  0.91644121  1
  S  S27  1  0.62721694  0.95657411  0.41584309  1
  S  S28  1  0.32768585  0.37226285  0.41586138  1
  S  S29  1  0.04499823  0.67181060  0.41588754  1
  O  O30  1  0.21056394  0.02899528  0.30237994  1
  O  O31  1  0.81818421  0.78921720  0.30231890  1
  O  O32  1  0.97102222  0.18138366  0.30244024  1
  O  O33  1  0.20695087  0.18037308  0.80101082  1
  O  O34  1  0.97162392  0.79031227  0.80092176  1
  O  O35  1  0.81743564  0.02735855  0.80079635  1
  O  O36  1  0.79468633  0.97512286  0.69753543  1
  O  O37  1  0.18059102  0.20773916  0.69787354  1
  O  O38  1  0.02783421  0.82063601  0.69790923  1
  O  O39  1  0.79233373  0.82193562  0.19838611  1
  O  O40  1  0.02930777  0.20778855  0.19848420  1
  O  O41  1  0.17841829  0.97065491  0.19848886  1
  O  O42  1  0.87995754  0.36327972  0.63549059  1
  O  O43  1  0.48541566  0.11697792  0.63542203  1
  O  O44  1  0.63099511  0.49790232  0.64068711  1
  O  O45  1  0.87639787  0.51507829  0.13701037  1
  O  O46  1  0.63877214  0.12328825  0.13675520  1
  O  O47  1  0.48468335  0.36008236  0.13704533  1
  O  O48  1  0.45428072  0.30294098  0.03279704  1
  O  O49  1  0.84834020  0.54747744  0.03285591  1
  O  O50  1  0.69877997  0.15295710  0.03285058  1
  O  O51  1  0.45917559  0.15224843  0.53097742  1
  O  O52  1  0.69668756  0.53323106  0.52670555  1
  O  O53  1  0.84708098  0.30333602  0.53104777  1
  O  O54  1  0.54474776  0.69622139  0.96904356  1
  O  O55  1  0.16460754  0.46327120  0.97350375  1
  O  O56  1  0.30493921  0.83750981  0.97357492  1
  O  O57  1  0.54059008  0.84631363  0.46767248  1
  O  O58  1  0.30452270  0.45788311  0.46756078  1
  O  O59  1  0.15129693  0.69406332  0.46762481  1
  O  O60  1  0.12853794  0.64030300  0.36421031  1
  O  O61  1  0.51147107  0.87091208  0.36437821  1
  O  O62  1  0.36085256  0.48814734  0.36442300  1
  O  O63  1  0.13566037  0.49833091  0.85999381  1
  O  O64  1  0.36884601  0.86805474  0.86002697  1
  O  O65  1  0.51453907  0.63631649  0.86460948  1
  O  O66  1  0.02408007  0.82061053  0.40685511  1
  O  O67  1  0.79509751  0.97319691  0.40721451  1
  O  O68  1  0.17801139  0.20374722  0.40732620  1
  O  O69  1  0.01918271  0.18846026  0.90690970  1
  O  O70  1  0.16331785  0.97136029  0.90661905  1
  O  O71  1  0.79309402  0.81879639  0.90804034  1
  O  O72  1  0.97790282  0.18191584  0.59110157  1
  O  O73  1  0.20652202  0.02711992  0.59132612  1
  O  O74  1  0.83460591  0.81273256  0.59286469  1
  O  O75  1  0.97570047  0.79695649  0.09397909  1
  O  O76  1  0.82230491  0.02609595  0.09391552  1
  O  O77  1  0.20410699  0.17917795  0.09412943  1
  O  O78  1  0.69187411  0.15585937  0.73966422  1
  O  O79  1  0.46112531  0.30360374  0.74271613  1
  O  O80  1  0.84739108  0.53580874  0.74183647  1
  O  O81  1  0.68933820  0.53703293  0.24065261  1
  O  O82  1  0.84777012  0.31066466  0.24054943  1
  O  O83  1  0.46300419  0.15239064  0.24061099  1
  O  O84  1  0.64065919  0.51525671  0.92590430  1
  O  O85  1  0.86021835  0.36210673  0.92741940  1
  O  O86  1  0.49634161  0.14264579  0.92717858  1
  O  O87  1  0.63996198  0.12575699  0.42458660  1
  O  O88  1  0.48451568  0.35730929  0.42426054  1
  O  O89  1  0.87434186  0.51155816  0.42355398  1
  O  O90  1  0.35814367  0.48547936  0.07688362  1
  O  O91  1  0.12766812  0.64382668  0.07739282  1
  O  O92  1  0.51831210  0.87111153  0.07628283  1
  O  O93  1  0.35490007  0.87154923  0.57288666  1
  O  O94  1  0.50315701  0.64519571  0.57150553  1
  O  O95  1  0.12673554  0.48619597  0.57290736  1
  O  O96  1  0.30667710  0.84592163  0.25925624  1
  O  O97  1  0.53906475  0.69313413  0.25935316  1
  O  O98  1  0.15405053  0.46092538  0.25932853  1
  O  O99  1  0.30996775  0.46108868  0.75763242  1
  O  O100  1  0.15419292  0.69478967  0.75580248  1
  O  O101  1  0.54128275  0.84608880  0.75652062  1
