# generated using pymatgen
data_Na3La2(PO4)3
_symmetry_space_group_name_H-M   'P 1'
_cell_length_a   9.60215362
_cell_length_b   9.60215325
_cell_length_c   23.96741078
_cell_angle_alpha   89.28484980
_cell_angle_beta   90.71515025
_cell_angle_gamma   119.96008606
_symmetry_Int_Tables_number   1
_chemical_formula_structural   Na3La2(PO4)3
_chemical_formula_sum   'Na18 La12 P18 O72'
_cell_volume   1914.33720098
_cell_formula_units_Z   6
loop_
 _symmetry_equiv_pos_site_id
 _symmetry_equiv_pos_as_xyz
  1  'x, y, z'
loop_
 _atom_site_type_symbol
 _atom_site_label
 _atom_site_symmetry_multiplicity
 _atom_site_fract_x
 _atom_site_fract_y
 _atom_site_fract_z
 _atom_site_occupancy
  Na  Na0  1  0.99961184  0.99955095  0.49989491  1
  Na  Na1  1  0.00044905  0.00038816  0.99989491  1
  Na  Na2  1  0.63091266  0.32024758  0.83377793  1
  Na  Na3  1  0.67975242  0.36908734  0.33377793  1
  Na  Na4  1  0.33276601  0.66596410  0.16665562  1
  Na  Na5  1  0.33403590  0.66723399  0.66665562  1
  Na  Na6  1  0.64083480  0.00901340  0.24980340  1
  Na  Na7  1  0.35266783  0.35392622  0.25016346  1
  Na  Na8  1  0.64607378  0.64733217  0.75016346  1
  Na  Na9  1  0.99098660  0.35916520  0.74980340  1
  Na  Na10  1  0.02982098  0.68850755  0.58183265  1
  Na  Na11  1  0.67173794  0.97710924  0.58294356  1
  Na  Na12  1  0.31149245  0.97017902  0.08183265  1
  Na  Na13  1  0.02289076  0.32826206  0.08294356  1
  Na  Na14  1  0.97345804  0.66437555  0.91938498  1
  Na  Na15  1  0.69601722  0.03161193  0.91688858  1
  Na  Na16  1  0.96838807  0.30398278  0.41688858  1
  Na  Na17  1  0.33562445  0.02654196  0.41938498  1
  La  La18  1  0.98592812  0.97812405  0.34779633  1
  La  La19  1  0.02187595  0.01407188  0.84779633  1
  La  La20  1  0.02360974  0.01164929  0.65208382  1
  La  La21  1  0.98835071  0.97639026  0.15208382  1
  La  La22  1  0.64658095  0.32275943  0.68066604  1
  La  La23  1  0.67724057  0.35341905  0.18066604  1
  La  La24  1  0.65688032  0.34595126  0.98607793  1
  La  La25  1  0.65404874  0.34311968  0.48607793  1
  La  La26  1  0.34791316  0.65594676  0.01446465  1
  La  La27  1  0.34405324  0.65208684  0.51446465  1
  La  La28  1  0.32916008  0.66774447  0.31895625  1
  La  La29  1  0.33225553  0.67083992  0.81895625  1
  P  P30  1  0.31734517  0.00764873  0.24991647  1
  P  P31  1  0.67335042  0.68336172  0.25060183  1
  P  P32  1  0.99925777  0.29799063  0.24873088  1
  P  P33  1  0.31663828  0.32664958  0.75060183  1
  P  P34  1  0.99235127  0.68265483  0.74991647  1
  P  P35  1  0.70200937  0.00074223  0.74873088  1
  P  P36  1  0.96541423  0.33331959  0.58370100  1
  P  P37  1  0.35354385  0.01015780  0.57628964  1
  P  P38  1  0.67681191  0.65532995  0.58993401  1
  P  P39  1  0.98984220  0.64645615  0.07628964  1
  P  P40  1  0.66668041  0.03458577  0.08370100  1
  P  P41  1  0.34467005  0.32318809  0.08993401  1
  P  P42  1  0.65534765  0.67736306  0.90931543  1
  P  P43  1  0.01487453  0.35569110  0.91770982  1
  P  P44  1  0.33601795  0.96906468  0.92361310  1
  P  P45  1  0.64430890  0.98512547  0.41770982  1
  P  P46  1  0.32263695  0.34465235  0.40931543  1
  P  P47  1  0.03093532  0.66398205  0.42361310  1
  O  O48  1  0.22213087  0.00606114  0.30227089  1
  O  O49  1  0.76642626  0.76961282  0.30375420  1
  O  O50  1  0.98799565  0.19781109  0.30199077  1
  O  O51  1  0.23038718  0.23357374  0.80375420  1
  O  O52  1  0.99393886  0.77786913  0.80227089  1
  O  O53  1  0.80218891  0.01200435  0.80199077  1
  O  O54  1  0.79380899  0.99424348  0.69655030  1
  O  O55  1  0.22295879  0.23260367  0.69838488  1
  O  O56  1  0.00407551  0.78044056  0.69644964  1
  O  O57  1  0.76739633  0.77704121  0.19838488  1
  O  O58  1  0.00575652  0.20619101  0.19655030  1
  O  O59  1  0.21955944  0.99592449  0.19644964  1
  O  O60  1  0.87675223  0.34394375  0.63630690  1
  O  O61  1  0.45918806  0.11404779  0.62558713  1
  O  O62  1  0.66739627  0.56783686  0.64556316  1
  O  O63  1  0.88595221  0.54081194  0.12558713  1
  O  O64  1  0.65605625  0.12324777  0.13630690  1
  O  O65  1  0.43216314  0.33260373  0.14556316  1
  O  O66  1  0.44846583  0.32496628  0.04045450  1
  O  O67  1  0.90221084  0.57167475  0.02056278  1
  O  O68  1  0.67518551  0.13464164  0.03074442  1
  O  O69  1  0.42832525  0.09778916  0.52056278  1
  O  O70  1  0.67503372  0.55153417  0.54045450  1
  O  O71  1  0.86535836  0.32481449  0.53074442  1
  O  O72  1  0.55378763  0.68039175  0.95864848  1
  O  O73  1  0.11294728  0.44278439  0.97082396  1
  O  O74  1  0.33086346  0.88163528  0.97895357  1
  O  O75  1  0.55721561  0.88705272  0.47082396  1
  O  O76  1  0.31960825  0.44621237  0.45864848  1
  O  O77  1  0.11836472  0.66913654  0.47895357  1
  O  O78  1  0.12833000  0.65306184  0.37413979  1
  O  O79  1  0.54765679  0.89328847  0.36489947  1
  O  O80  1  0.32963340  0.43080609  0.35363971  1
  O  O81  1  0.10671153  0.45234321  0.86489947  1
  O  O82  1  0.34693816  0.87167000  0.87413979  1
  O  O83  1  0.56919391  0.67036660  0.85363971  1
  O  O84  1  0.02598420  0.82375203  0.41937976  1
  O  O85  1  0.82031784  0.01647500  0.41707522  1
  O  O86  1  0.16716274  0.17735849  0.41404815  1
  O  O87  1  0.98352499  0.17968216  0.91707522  1
  O  O88  1  0.17624797  0.97401580  0.91937976  1
  O  O89  1  0.82264151  0.83283726  0.91404815  1
  O  O90  1  0.97487586  0.17634996  0.58503721  1
  O  O91  1  0.17770729  0.97759672  0.57971124  1
  O  O92  1  0.83398570  0.82059855  0.58524515  1
  O  O93  1  0.02240328  0.82229271  0.07971124  1
  O  O94  1  0.82365004  0.02512414  0.08503721  1
  O  O95  1  0.17940145  0.16601430  0.08524515  1
  O  O96  1  0.68852467  0.15606167  0.74726046  1
  O  O97  1  0.49149058  0.35626862  0.75183347  1
  O  O98  1  0.83341764  0.51682145  0.75000455  1
  O  O99  1  0.64373138  0.50850942  0.25183347  1
  O  O100  1  0.84393833  0.31147533  0.24726046  1
  O  O101  1  0.48317855  0.16658236  0.25000455  1
  O  O102  1  0.68285100  0.53050952  0.91311936  1
  O  O103  1  0.84725371  0.34644819  0.91771156  1
  O  O104  1  0.48755154  0.13847597  0.92019796  1
  O  O105  1  0.65355181  0.15274629  0.41771156  1
  O  O106  1  0.46949048  0.31714900  0.41311936  1
  O  O107  1  0.86152403  0.51244846  0.42019796  1
  O  O108  1  0.31227198  0.46711618  0.08669119  1
  O  O109  1  0.15476490  0.65217510  0.08071156  1
  O  O110  1  0.51226900  0.86596398  0.08248540  1
  O  O111  1  0.34782490  0.84523510  0.58071156  1
  O  O112  1  0.53288382  0.68772802  0.58669119  1
  O  O113  1  0.13403602  0.48773100  0.58248540  1
  O  O114  1  0.35217154  0.86488007  0.25068650  1
  O  O115  1  0.50727958  0.67561623  0.24788759  1
  O  O116  1  0.15481875  0.46494663  0.24998684  1
  O  O117  1  0.32438377  0.49272042  0.74788759  1
  O  O118  1  0.13511993  0.64782846  0.75068650  1
  O  O119  1  0.53505337  0.84518125  0.74998684  1
