# generated using pymatgen
data_Na14La6Ta2Si9(SO16)3
_symmetry_space_group_name_H-M   'P 1'
_cell_length_a   19.20707740
_cell_length_b   9.57543717
_cell_length_c   23.26040373
_cell_angle_alpha   90.16309057
_cell_angle_beta   89.47774872
_cell_angle_gamma   119.88517850
_symmetry_Int_Tables_number   1
_chemical_formula_structural   Na14La6Ta2Si9(SO16)3
_chemical_formula_sum   'Na42 La18 Ta6 Si27 S9 O144'
_cell_volume   3708.94361059
_cell_formula_units_Z   3
loop_
 _symmetry_equiv_pos_site_id
 _symmetry_equiv_pos_as_xyz
  1  'x, y, z'
loop_
 _atom_site_type_symbol
 _atom_site_label
 _atom_site_symmetry_multiplicity
 _atom_site_fract_x
 _atom_site_fract_y
 _atom_site_fract_z
 _atom_site_occupancy
  Na  Na0  1  0.81405897  0.00913136  0.23639614  1
  Na  Na1  1  0.68936485  0.36735379  0.23649112  1
  Na  Na2  1  0.50173812  0.62260899  0.23879216  1
  Na  Na3  1  0.31284994  0.61693607  0.73573677  1
  Na  Na4  1  0.99185447  0.35731022  0.74052898  1
  Na  Na5  1  0.18709670  0.01134017  0.73561248  1
  Na  Na6  1  0.15035340  0.32407939  0.58850405  1
  Na  Na7  1  0.66113995  0.33760658  0.59494395  1
  Na  Na8  1  0.01401962  0.69711469  0.59028634  1
  Na  Na9  1  0.50927930  0.67666861  0.58690945  1
  Na  Na10  1  0.32485568  0.97947268  0.59135957  1
  Na  Na11  1  0.83541351  0.98243440  0.59640943  1
  Na  Na12  1  0.15778926  0.98410659  0.09034291  1
  Na  Na13  1  0.65753166  0.97316931  0.08194557  1
  Na  Na14  1  0.33351825  0.68497556  0.09097855  1
  Na  Na15  1  0.82883839  0.68040835  0.08647987  1
  Na  Na16  1  0.00974808  0.34137713  0.08196395  1
  Na  Na17  1  0.51546765  0.34359309  0.08106279  1
  Na  Na18  1  0.49105094  0.67363754  0.91176474  1
  Na  Na19  1  0.97921065  0.64680657  0.90581547  1
  Na  Na20  1  0.36397812  0.06238384  0.91078690  1
  Na  Na21  1  0.85346563  0.05118771  0.90869904  1
  Na  Na22  1  0.15702304  0.29663238  0.91605635  1
  Na  Na23  1  0.66166075  0.28711772  0.92144803  1
  Na  Na24  1  0.48068201  0.31419782  0.41356285  1
  Na  Na25  1  0.98916510  0.30489128  0.41910179  1
  Na  Na26  1  0.15802488  0.03574168  0.42722911  1
  Na  Na27  1  0.65968737  0.01613029  0.42397264  1
  Na  Na28  1  0.35178456  0.65115655  0.42292437  1
  Na  Na29  1  0.86264878  0.66702972  0.41565022  1
  Na  Na30  1  0.00647960  0.00262017  0.50948007  1
  Na  Na31  1  0.50395844  0.98483016  0.50720174  1
  Na  Na32  1  0.00183740  0.02082310  -0.00009845  1
  Na  Na33  1  0.50794288  0.01292247  0.99551639  1
  Na  Na34  1  0.35111853  0.33806381  0.82101119  1
  Na  Na35  1  0.83693028  0.31871701  0.82972915  1
  Na  Na36  1  0.33677699  0.33571288  0.33687713  1
  Na  Na37  1  0.85149677  0.36561118  0.32275551  1
  Na  Na38  1  0.16632270  0.66750005  0.16115374  1
  Na  Na39  1  0.66882271  0.66748040  0.16279069  1
  Na  Na40  1  0.16603063  0.66751589  0.66443649  1
  Na  Na41  1  0.67117124  0.67106944  0.66615477  1
  La  La42  1  0.00111621  0.99693390  0.34172706  1
  La  La43  1  0.50189187  0.00005084  0.34287156  1
  La  La44  1  0.99911052  0.00260435  0.83981134  1
  La  La45  1  0.50120177  0.00669723  0.84029922  1
  La  La46  1  0.33958846  0.33274163  0.68083278  1
  La  La47  1  0.83134529  0.33559157  0.68377284  1
  La  La48  1  0.33101415  0.32069458  0.18294873  1
  La  La49  1  0.84086610  0.34698484  0.18115891  1
  La  La50  1  0.33945837  0.33627245  0.99431847  1
  La  La51  1  0.83589976  0.33125442  0.98959212  1
  La  La52  1  0.33397856  0.33706120  0.49273558  1
  La  La53  1  0.83766989  0.34021919  0.49822037  1
  La  La54  1  0.16311305  0.65745865  0.01660145  1
  La  La55  1  0.66351334  0.66859050  0.01538209  1
  La  La56  1  0.16238883  0.65780916  0.51862895  1
  La  La57  1  0.66365252  0.66954645  0.51827426  1
  La  La58  1  0.66219516  0.66569782  0.30754904  1
  La  La59  1  0.16093815  0.65778231  0.80710068  1
  Ta  Ta60  1  0.99375425  0.98941922  0.65550801  1
  Ta  Ta61  1  0.49723040  0.99141399  0.65142964  1
  Ta  Ta62  1  0.99637213  0.00447665  0.15051379  1
  Ta  Ta63  1  0.50504703  0.01736339  0.14891615  1
  Ta  Ta64  1  0.15483280  0.63774059  0.31353830  1
  Ta  Ta65  1  0.65882895  0.68479054  0.81061112  1
  Si  Si66  1  0.64679907  -0.00159279  0.24763681  1
  Si  Si67  1  0.84983347  0.71111836  0.25152683  1
  Si  Si68  1  0.00412845  0.29870613  0.25361466  1
  Si  Si69  1  0.50048636  0.29873294  0.25179272  1
  Si  Si70  1  0.14624302  0.29447000  0.74878846  1
  Si  Si71  1  0.00194057  0.70184240  0.75167300  1
  Si  Si72  1  0.50282489  0.70938174  0.75357847  1
  Si  Si73  1  0.34917824  0.98837776  0.75176042  1
  Si  Si74  1  0.84314421  0.98484851  0.75375804  1
  Si  Si75  1  0.48844451  0.31632801  0.57908668  1
  Si  Si76  1  0.98708056  0.31821146  0.58699662  1
  Si  Si77  1  0.17069698  0.02356843  0.58560775  1
  Si  Si78  1  0.67472578  0.02693978  0.58276415  1
  Si  Si79  1  0.33769595  0.65296191  0.58668575  1
  Si  Si80  1  0.83784782  0.65420040  0.58036070  1
  Si  Si81  1  0.48639729  0.65442254  0.08977129  1
  Si  Si82  1  0.98899504  0.65962493  0.08071758  1
  Si  Si83  1  0.33825109  0.02055805  0.08148953  1
  Si  Si84  1  0.83661242  0.02326957  0.08758606  1
  Si  Si85  1  0.17643955  0.32393761  0.08490484  1
  Si  Si86  1  0.67627407  0.32905868  0.08487000  1
  Si  Si87  1  0.01144330  0.35470368  0.91801316  1
  Si  Si88  1  0.51964574  0.37831186  0.91220927  1
  Si  Si89  1  0.66836544  0.97376545  0.91482643  1
  Si  Si90  1  0.16954363  0.36687309  0.41395480  1
  Si  Si91  1  0.01594645  0.65896243  0.41401302  1
  Si  Si92  1  0.51026215  0.66425745  0.41590605  1
  S  S93  1  0.15098214  0.97399206  0.25155996  1
  S  S94  1  0.34011708  0.70041329  0.25116138  1
  S  S95  1  0.64816857  0.32304712  0.74944072  1
  S  S96  1  0.32004797  0.66316633  0.91640330  1
  S  S97  1  0.81094246  0.66043961  0.91239794  1
  S  S98  1  0.17040873  0.98054524  0.91724591  1
  S  S99  1  0.30707480  0.95509373  0.40948002  1
  S  S100  1  0.81905931  0.97755123  0.41563182  1
  S  S101  1  0.67035569  0.36035047  0.41624725  1
  O  O102  1  0.11525037  0.98741698  0.30612548  1
  O  O103  1  0.61123772  0.01027403  0.31005839  1
  O  O104  1  0.38503875  0.77265894  0.30471361  1
  O  O105  1  0.88621773  0.77607244  0.31490254  1
  O  O106  1  0.49682335  0.21937541  0.31426707  1
  O  O107  1  0.99891978  0.22019408  0.31529890  1
  O  O108  1  0.11507837  0.21606803  0.81227332  1
  O  O109  1  0.61456579  0.23941429  0.80458123  1
  O  O110  1  0.49636396  0.77521610  0.81573946  1
  O  O111  1  0.00005499  0.77348725  0.81478509  1
  O  O112  1  0.38595030  -0.00227648  0.81518342  1
  O  O113  1  0.88911844  0.00876313  0.81387319  1
  O  O114  1  0.41851962  0.99538184  0.70276793  1
  O  O115  1  0.89900976  0.97073818  0.69949950  1
  O  O116  1  0.07839105  0.16395235  0.70086502  1
  O  O117  1  0.59726574  0.22579375  0.69997611  1
  O  O118  1  0.99714612  0.82245420  0.70060086  1
  O  O119  1  0.51389967  0.84147622  0.70137760  1
  O  O120  1  0.38347916  0.80140394  0.20032721  1
  O  O121  1  0.91860457  0.84382528  0.20253043  1
  O  O122  1  0.01468834  0.18924535  0.20074303  1
  O  O123  1  0.49676226  0.16889719  0.20009714  1
  O  O124  1  0.10129309  0.96364744  0.20125192  1
  O  O125  1  0.58110290  0.99822773  0.19852251  1
  O  O126  1  0.44585969  0.38070686  0.62366006  1
  O  O127  1  0.94333644  0.36163116  0.63787535  1
  O  O128  1  0.23505772  0.11137215  0.63652144  1
  O  O129  1  0.74725303  0.12263572  0.62693591  1
  O  O130  1  0.31640255  0.53140578  0.63977724  1
  O  O131  1  0.81045082  0.50356517  0.62379533  1
  O  O132  1  0.44422524  0.53296533  0.14347142  1
  O  O133  1  0.94847064  0.51505918  0.12699740  1
  O  O134  1  0.31222504  0.11364422  0.12757898  1
  O  O135  1  0.81575544  0.09822334  0.14236335  1
  O  O136  1  0.24540319  0.37073768  0.13241708  1
  O  O137  1  0.73395275  0.35904351  0.13864546  1
  O  O138  1  0.20827322  0.28560716  0.02386376  1
  O  O139  1  0.70844648  0.28501035  0.02598525  1
  O  O140  1  0.43122802  0.58254210  0.03168304  1
  O  O141  1  0.93420452  0.60135558  0.02221620  1
  O  O142  1  0.36205169  0.12625974  0.02123730  1
  O  O143  1  0.85884588  0.13787728  0.03072145  1
  O  O144  1  0.20602435  0.12997586  0.52555826  1
  O  O145  1  0.70299100  0.12098867  0.52012926  1
  O  O146  1  0.35895137  0.58478282  0.52812049  1
  O  O147  1  0.85808157  0.59682922  0.51799656  1
  O  O148  1  0.43568778  0.26721950  0.51928005  1
  O  O149  1  0.93597677  0.28509932  0.52670509  1
  O  O150  1  0.28080354  0.67489013  0.96987420  1
  O  O151  1  0.77872228  0.67217203  0.96937012  1
  O  O152  1  0.05967277  0.43862165  0.97735158  1
  O  O153  1  0.56226999  0.44850175  0.97357147  1
  O  O154  1  0.16906621  0.89418675  0.97030336  1
  O  O155  1  0.66199147  0.88047325  0.97405792  1
  O  O156  1  0.27440054  0.87775077  0.46552704  1
  O  O157  1  0.77885806  0.88326868  0.46802532  1
  O  O158  1  0.16358235  0.45122341  0.47212757  1
  O  O159  1  0.66744305  0.44538308  0.46843905  1
  O  O160  1  0.06529954  0.67893071  0.47166231  1
  O  O161  1  0.56450224  0.68709102  0.47258292  1
  O  O162  1  0.07777631  0.65226687  0.35891353  1
  O  O163  1  0.55773469  0.65374360  0.35829600  1
  O  O164  1  0.25483522  0.85118040  0.36156056  1
  O  O165  1  0.77221056  0.89118142  0.36418780  1
  O  O166  1  0.16982418  0.49569709  0.35969371  1
  O  O167  1  0.67405132  0.45305145  0.36426767  1
  O  O168  1  0.06252956  0.46657549  0.86276833  1
  O  O169  1  0.58245783  0.50801376  0.85986222  1
  O  O170  1  0.17482213  0.89297974  0.86607809  1
  O  O171  1  0.66897047  0.84813650  0.86044399  1
  O  O172  1  0.27238867  0.65617180  0.86579674  1
  O  O173  1  0.75905646  0.66214045  0.86566092  1
  O  O174  1  0.00734448  0.81907086  0.40861978  1
  O  O175  1  0.49501276  0.82088295  0.41661378  1
  O  O176  1  0.38920843  0.97791115  0.40487062  1
  O  O177  1  0.90135134  0.99882870  0.41450555  1
  O  O178  1  0.09018689  0.18885932  0.41023299  1
  O  O179  1  0.59561717  0.19778441  0.41684855  1
  O  O180  1  0.00058788  0.17193443  0.91849116  1
  O  O181  1  0.50962451  0.19822389  0.90820251  1
  O  O182  1  0.09610136  0.99357082  0.91768251  1
  O  O183  1  0.58828704  0.99177836  0.91147022  1
  O  O184  1  0.40226667  0.80751026  0.91541445  1
  O  O185  1  0.89429038  0.79906824  0.90909395  1
  O  O186  1  0.48902359  0.14923858  0.60092494  1
  O  O187  1  0.98683012  0.14639556  0.60027960  1
  O  O188  1  0.08245755  0.01411250  0.59879043  1
  O  O189  1  0.59061172  0.03178452  0.60165052  1
  O  O190  1  0.42694078  0.82505604  0.60044509  1
  O  O191  1  0.92266629  0.82148012  0.59791917  1
  O  O192  1  0.48824668  0.82867882  0.10320531  1
  O  O193  1  0.99147070  0.83086291  0.10196934  1
  O  O194  1  0.42170010  0.01742260  0.09969686  1
  O  O195  1  0.92510131  0.02470623  0.09987903  1
  O  O196  1  0.09111799  0.15171716  0.10243367  1
  O  O197  1  0.58489671  0.16020374  0.09631835  1
  O  O198  1  0.33047670  0.13498347  0.74625351  1
  O  O199  1  0.83550458  0.14337696  0.74467404  1
  O  O200  1  0.23553988  0.31889249  0.74171963  1
  O  O201  1  0.72950784  0.34728793  0.74444796  1
  O  O202  1  0.42348294  0.53880771  0.74429523  1
  O  O203  1  0.93011442  0.51607809  0.74899086  1
  O  O204  1  0.33119717  0.53864731  0.24661243  1
  O  O205  1  0.83132582  0.52710982  0.24600642  1
  O  O206  1  0.42842443  0.34136003  0.24919825  1
  O  O207  1  0.92478020  0.31125008  0.24514811  1
  O  O208  1  0.23215777  0.11452118  0.24768136  1
  O  O209  1  0.73576306  0.15302684  0.24291054  1
  O  O210  1  0.32564071  0.51345282  0.91735180  1
  O  O211  1  0.81305865  0.50642535  0.90962824  1
  O  O212  1  0.43242789  0.37224210  0.90902109  1
  O  O213  1  0.92406203  0.34955995  0.91652887  1
  O  O214  1  0.24313149  0.14492152  0.91659513  1
  O  O215  1  0.75191667  0.14421661  0.90918038  1
  O  O216  1  0.31072373  0.11434959  0.40731757  1
  O  O217  1  0.82357702  0.13728789  0.41778611  1
  O  O218  1  0.25357746  0.36450800  0.40860261  1
  O  O219  1  0.74263149  0.34096159  0.41643091  1
  O  O220  1  0.42369481  0.49257084  0.41814540  1
  O  O221  1  0.93027291  0.49033240  0.41064344  1
  O  O222  1  0.15342701  0.46718193  0.08384992  1
  O  O223  1  0.65656504  0.47472031  0.08257060  1
  O  O224  1  0.08382351  0.70959189  0.07704309  1
  O  O225  1  0.57847966  0.69137664  0.08423238  1
  O  O226  1  0.26706847  0.83281086  0.07972298  1
  O  O227  1  0.76868437  0.83570903  0.08070148  1
  O  O228  1  0.15403627  0.83948513  0.58307642  1
  O  O229  1  0.64975284  0.83650994  0.58398928  1
  O  O230  1  0.27160534  0.70948411  0.58075648  1
  O  O231  1  0.76741276  0.70311977  0.58040700  1
  O  O232  1  0.08045112  0.46242654  0.58474512  1
  O  O233  1  0.58326080  0.45475286  0.57632292  1
  O  O234  1  0.15737944  0.82210003  0.25361859  1
  O  O235  1  0.64389366  0.82577525  0.23925116  1
  O  O236  1  0.25864202  0.68838709  0.25569312  1
  O  O237  1  0.76880159  0.72304773  0.23991875  1
  O  O238  1  0.08869772  0.48662191  0.25700911  1
  O  O239  1  0.58855753  0.46100474  0.24082441  1
  O  O240  1  0.14415279  0.46212365  0.74005238  1
  O  O241  1  0.65085164  0.48247782  0.75010817  1
  O  O242  1  0.09063667  0.71834602  0.73996685  1
  O  O243  1  0.58715666  0.69281601  0.75644294  1
  O  O244  1  0.26931262  0.81370955  0.73995446  1
  O  O245  1  0.75261370  0.81418973  0.76012716  1
