# generated using pymatgen
data_Na2Y2P2SO12
_symmetry_space_group_name_H-M   'P 1'
_cell_length_a   9.25069094
_cell_length_b   9.25069061
_cell_length_c   23.78580318
_cell_angle_alpha   90.40072998
_cell_angle_beta   89.59927004
_cell_angle_gamma   119.83898381
_symmetry_Int_Tables_number   1
_chemical_formula_structural   Na2Y2P2SO12
_chemical_formula_sum   'Na12 Y12 P12 S6 O72'
_cell_volume   1765.57006149
_cell_formula_units_Z   6
loop_
 _symmetry_equiv_pos_site_id
 _symmetry_equiv_pos_as_xyz
  1  'x, y, z'
loop_
 _atom_site_type_symbol
 _atom_site_label
 _atom_site_symmetry_multiplicity
 _atom_site_fract_x
 _atom_site_fract_y
 _atom_site_fract_z
 _atom_site_occupancy
  Na  Na0  1  0.99158704  0.62670264  0.25314743  1
  Na  Na1  1  0.37329736  0.00841296  0.75314743  1
  Na  Na2  1  0.65825404  0.96003564  0.58648043  1
  Na  Na3  1  0.03996436  0.34174596  0.08648043  1
  Na  Na4  1  0.32492004  0.29336964  0.91981443  1
  Na  Na5  1  0.70663036  0.67507996  0.41981443  1
  Na  Na6  1  0.02055619  0.98762927  0.50075913  1
  Na  Na7  1  0.01237073  0.97944381  0.00075913  1
  Na  Na8  1  0.68722319  0.32096227  0.83409213  1
  Na  Na9  1  0.67903773  0.31277681  0.33409213  1
  Na  Na10  1  0.35388919  0.65429627  0.16742613  1
  Na  Na11  1  0.34570373  0.64611081  0.66742613  1
  Y  Y12  1  0.99431120  0.00802899  0.34994222  1
  Y  Y13  1  0.99197101  0.00568880  0.84994222  1
  Y  Y14  1  0.00178158  0.99982614  0.64948077  1
  Y  Y15  1  0.00017386  0.99821842  0.14948077  1
  Y  Y16  1  0.66097820  0.34136199  0.68327522  1
  Y  Y17  1  0.65863801  0.33902180  0.18327522  1
  Y  Y18  1  0.66844858  0.33315914  0.98281377  1
  Y  Y19  1  0.66684086  0.33155142  0.48281377  1
  Y  Y20  1  0.32764420  0.67469599  0.01660922  1
  Y  Y21  1  0.32530401  0.67235580  0.51660922  1
  Y  Y22  1  0.33511458  0.66649314  0.31614777  1
  Y  Y23  1  0.33350686  0.66488542  0.81614777  1
  P  P24  1  0.70366515  0.70326117  0.25158794  1
  P  P25  1  0.99940125  0.30425973  0.24701097  1
  P  P26  1  0.29673883  0.29633485  0.75158794  1
  P  P27  1  0.69574027  0.00059875  0.74701097  1
  P  P28  1  0.37033215  0.03659417  0.58492094  1
  P  P29  1  0.66606825  0.63759273  0.58034397  1
  P  P30  1  0.96340583  0.62966785  0.08492094  1
  P  P31  1  0.36240727  0.33393175  0.08034397  1
  P  P32  1  0.03699815  0.36992817  0.91825494  1
  P  P33  1  0.33273425  0.97092673  0.91367797  1
  P  P34  1  0.63007183  0.96300185  0.41825494  1
  P  P35  1  0.02907327  0.66726575  0.41367797  1
  S  S36  1  0.29690017  0.99919028  0.25070379  1
  S  S37  1  0.00080972  0.70309983  0.75070379  1
  S  S38  1  0.96356717  0.33252328  0.58403679  1
  S  S39  1  0.66747672  0.03643283  0.08403679  1
  S  S40  1  0.63023317  0.66585728  0.91737079  1
  S  S41  1  0.33414272  0.36976683  0.41737079  1
  O  O42  1  0.21652150  0.01990029  0.30161971  1
  O  O43  1  0.80740886  0.78390885  0.30563705  1
  O  O44  1  0.98862493  0.19874046  0.29856588  1
  O  O45  1  0.21609115  0.19259114  0.80563705  1
  O  O46  1  0.98009971  0.78347850  0.80161971  1
  O  O47  1  0.80125954  0.01137507  0.79856588  1
  O  O48  1  0.77605677  0.98209800  0.69193702  1
  O  O49  1  0.18894520  0.20221614  0.70033637  1
  O  O50  1  0.02018070  0.80507287  0.70035817  1
  O  O51  1  0.79778386  0.81105480  0.20033637  1
  O  O52  1  0.01790200  0.22394323  0.19193702  1
  O  O53  1  0.19492713  0.97981930  0.20035817  1
  O  O54  1  0.88318850  0.35323329  0.63495271  1
  O  O55  1  0.47407586  0.11724185  0.63897005  1
  O  O56  1  0.65529193  0.53207346  0.63189888  1
  O  O57  1  0.88275815  0.52592414  0.13897005  1
  O  O58  1  0.64676671  0.11681150  0.13495271  1
  O  O59  1  0.46792654  0.34470807  0.13189888  1
  O  O60  1  0.44272377  0.31543100  0.02527002  1
  O  O61  1  0.85561220  0.53554914  0.03366937  1
  O  O62  1  0.68684770  0.13840587  0.03369117  1
  O  O63  1  0.46445086  0.14438780  0.53366937  1
  O  O64  1  0.68456900  0.55727623  0.52527002  1
  O  O65  1  0.86159413  0.31315230  0.53369117  1
  O  O66  1  0.54985450  0.68656729  0.96828671  1
  O  O67  1  0.14074186  0.45057585  0.97230405  1
  O  O68  1  0.32195793  0.86540746  0.96523288  1
  O  O69  1  0.54942415  0.85925814  0.47230405  1
  O  O70  1  0.31343271  0.45014550  0.46828671  1
  O  O71  1  0.13459254  0.67804207  0.46523288  1
  O  O72  1  0.10938977  0.64876500  0.35860402  1
  O  O73  1  0.52227820  0.86888314  0.36700337  1
  O  O74  1  0.35351370  0.47173987  0.36702517  1
  O  O75  1  0.13111686  0.47772180  0.86700337  1
  O  O76  1  0.35123500  0.89061023  0.85860402  1
  O  O77  1  0.52826013  0.64648630  0.86702517  1
  O  O78  1  0.01047322  0.82591764  0.41262230  1
  O  O79  1  0.80336135  0.97318339  0.41351405  1
  O  O80  1  0.18941851  0.20043551  0.41263873  1
  O  O81  1  0.02681661  0.19663865  0.91351405  1
  O  O82  1  0.17408236  0.98952678  0.91262230  1
  O  O83  1  0.79956449  0.81058149  0.91263873  1
  O  O84  1  0.97122985  0.17541407  0.58735882  1
  O  O85  1  0.19406529  0.01500742  0.58787395  1
  O  O86  1  0.81923089  0.81762678  0.58490571  1
  O  O87  1  0.98499258  0.80593471  0.08787395  1
  O  O88  1  0.82458593  0.02877015  0.08735882  1
  O  O89  1  0.18237322  0.18076911  0.08490571  1
  O  O90  1  0.67714022  0.15925064  0.74595530  1
  O  O91  1  0.47002835  0.30651639  0.74684705  1
  O  O92  1  0.85608551  0.53376851  0.74597173  1
  O  O93  1  0.69348361  0.52997165  0.24684705  1
  O  O94  1  0.84074936  0.32285978  0.24595530  1
  O  O95  1  0.46623149  0.14391449  0.24597173  1
  O  O96  1  0.63789685  0.50874707  0.92069182  1
  O  O97  1  0.86073229  0.34834042  0.92120695  1
  O  O98  1  0.48589789  0.15095978  0.91823871  1
  O  O99  1  0.65165958  0.13926771  0.42120695  1
  O  O100  1  0.49125293  0.36210315  0.42069182  1
  O  O101  1  0.84904022  0.51410211  0.41823871  1
  O  O102  1  0.34380622  0.49258464  0.07928930  1
  O  O103  1  0.13669435  0.63985039  0.08018105  1
  O  O104  1  0.52275151  0.86710251  0.07930573  1
  O  O105  1  0.36014961  0.86330565  0.58018105  1
  O  O106  1  0.50741536  0.65619378  0.57928930  1
  O  O107  1  0.13289749  0.47724849  0.57930573  1
  O  O108  1  0.30456285  0.84208107  0.25402582  1
  O  O109  1  0.52739829  0.68167442  0.25454095  1
  O  O110  1  0.15256389  0.48429378  0.25157271  1
  O  O111  1  0.31832558  0.47260171  0.75454095  1
  O  O112  1  0.15791893  0.69543715  0.75402582  1
  O  O113  1  0.51570622  0.84743611  0.75157271  1
