# generated using pymatgen
data_CsAlBr4
_symmetry_space_group_name_H-M   'P 1'
_cell_length_a   7.57379411
_cell_length_b   10.00449482
_cell_length_c   12.25043921
_cell_angle_alpha   90.00000000
_cell_angle_beta   90.00000000
_cell_angle_gamma   90.00000000
_symmetry_Int_Tables_number   1
_chemical_formula_structural   CsAlBr4
_chemical_formula_sum   'Cs4 Al4 Br16'
_cell_volume   928.24008309
_cell_formula_units_Z   4
loop_
 _symmetry_equiv_pos_site_id
 _symmetry_equiv_pos_as_xyz
  1  'x, y, z'
loop_
 _atom_site_type_symbol
 _atom_site_label
 _atom_site_symmetry_multiplicity
 _atom_site_fract_x
 _atom_site_fract_y
 _atom_site_fract_z
 _atom_site_occupancy
  Cs  Cs0  1  0.25000000  0.33095307  0.68115880  1
  Cs  Cs1  1  0.75000000  0.66904693  0.31884120  1
  Cs  Cs2  1  0.75000000  0.83095307  0.81884120  1
  Cs  Cs3  1  0.25000000  0.16904693  0.18115880  1
  Al  Al4  1  0.25000000  0.69400782  0.07194537  1
  Al  Al5  1  0.25000000  0.80599218  0.57194537  1
  Al  Al6  1  0.75000000  0.19400782  0.42805463  1
  Al  Al7  1  0.75000000  0.30599218  0.92805463  1
  Br  Br8  1  0.50471684  0.33135079  0.41682263  1
  Br  Br9  1  0.99528316  0.16864921  0.91682263  1
  Br  Br10  1  0.49528316  0.83135079  0.08317737  1
  Br  Br11  1  0.00471684  0.66864921  0.58317737  1
  Br  Br12  1  0.25000000  0.58047716  0.90896038  1
  Br  Br13  1  0.75000000  0.41952284  0.09103962  1
  Br  Br14  1  0.75000000  0.08047716  0.59103962  1
  Br  Br15  1  0.25000000  0.91952284  0.40896038  1
  Br  Br16  1  0.25000000  0.55292586  0.22050425  1
  Br  Br17  1  0.75000000  0.44707414  0.77949575  1
  Br  Br18  1  0.75000000  0.05292586  0.27949575  1
  Br  Br19  1  0.25000000  0.94707414  0.72050425  1
  Br  Br20  1  0.00471684  0.83135079  0.08317737  1
  Br  Br21  1  0.50471684  0.16864921  0.91682263  1
  Br  Br22  1  0.99528316  0.33135079  0.41682263  1
  Br  Br23  1  0.49528316  0.66864921  0.58317737  1
