# generated using pymatgen
data_Na6Al4In4Si3(S3O16)3
_symmetry_space_group_name_H-M   'P 1'
_cell_length_a   17.43097660
_cell_length_b   8.73367783
_cell_length_c   22.44487456
_cell_angle_alpha   90.26548007
_cell_angle_beta   89.77134895
_cell_angle_gamma   119.97831962
_symmetry_Int_Tables_number   1
_chemical_formula_structural   Na6Al4In4Si3(S3O16)3
_chemical_formula_sum   'Na18 Al12 In12 Si9 S27 O144'
_cell_volume   2959.75705201
_cell_formula_units_Z   3
loop_
 _symmetry_equiv_pos_site_id
 _symmetry_equiv_pos_as_xyz
  1  'x, y, z'
loop_
 _atom_site_type_symbol
 _atom_site_label
 _atom_site_symmetry_multiplicity
 _atom_site_fract_x
 _atom_site_fract_y
 _atom_site_fract_z
 _atom_site_occupancy
  Na  Na0  1  0.00645952  0.64763157  0.25613604  1
  Na  Na1  1  0.50474134  0.36877763  0.73963854  1
  Na  Na2  1  0.16082071  0.31227945  0.91010505  1
  Na  Na3  1  0.66004368  0.30620128  0.90857314  1
  Na  Na4  1  0.16121918  0.01778815  0.41641774  1
  Na  Na5  1  0.65974552  0.00734636  0.41650297  1
  Na  Na6  1  0.99467174  0.98298895  0.49603986  1
  Na  Na7  1  0.48897091  0.99779368  0.49941620  1
  Na  Na8  1  0.99097916  0.00065760  0.99318901  1
  Na  Na9  1  0.49503422  0.00754547  0.99344381  1
  Na  Na10  1  0.33301435  0.33229376  0.82797434  1
  Na  Na11  1  0.84374481  0.33682466  0.83532212  1
  Na  Na12  1  0.34492953  0.35230498  0.33835452  1
  Na  Na13  1  0.83036162  0.32843950  0.33418038  1
  Na  Na14  1  0.17613342  0.68720199  0.17337081  1
  Na  Na15  1  0.66352536  0.68301945  0.17186836  1
  Na  Na16  1  0.16804787  0.64782477  0.67022934  1
  Na  Na17  1  0.66700414  0.65147814  0.66697492  1
  Al  Al18  1  0.00097402  0.99252733  0.35166131  1
  Al  Al19  1  0.50700799  0.99623515  0.34778859  1
  Al  Al20  1  0.00857022  0.02366155  0.84480517  1
  Al  Al21  1  0.50170142  0.01351668  0.84836691  1
  Al  Al22  1  0.32645336  0.33029443  0.68147818  1
  Al  Al23  1  0.82622339  0.32147422  0.18783354  1
  Al  Al24  1  0.34091835  0.33342514  0.97814943  1
  Al  Al25  1  0.83462791  0.32820625  0.98156345  1
  Al  Al26  1  0.34526377  0.34815700  0.48618856  1
  Al  Al27  1  0.84096474  0.34654638  0.47937466  1
  Al  Al28  1  0.16193804  0.67020512  0.31982022  1
  Al  Al29  1  0.65919219  0.65528170  0.81733223  1
  In  In30  1  0.99837154  0.00634318  0.64756184  1
  In  In31  1  0.50702106  0.01945916  0.64714468  1
  In  In32  1  0.00781942  0.00043675  0.14988603  1
  In  In33  1  0.49877724  0.98816098  0.14933253  1
  In  In34  1  0.83115589  0.33870743  0.69128483  1
  In  In35  1  0.33152515  0.32672527  0.19216530  1
  In  In36  1  0.15911194  0.65165496  0.01280394  1
  In  In37  1  0.66544003  0.65523957  0.01354626  1
  In  In38  1  0.16759557  0.67520923  0.51428621  1
  In  In39  1  0.64334494  0.64396046  0.51952749  1
  In  In40  1  0.65834861  0.67185133  0.31920149  1
  In  In41  1  0.15884696  0.64394485  0.81677956  1
  Si  Si42  1  0.14811485  0.99333697  0.25590695  1
  Si  Si43  1  0.65190663  0.00660602  0.24890935  1
  Si  Si44  1  0.15489767  0.29565610  0.74752245  1
  Si  Si45  1  0.64972469  0.30529864  0.75718921  1
  Si  Si46  1  0.47044409  0.32590773  0.58886129  1
  Si  Si47  1  0.00739610  0.34969050  0.91694551  1
  Si  Si48  1  0.51454347  0.36059297  0.91421755  1
  Si  Si49  1  0.01433461  0.66649136  0.41475271  1
  Si  Si50  1  0.50575732  0.66536665  0.41557666  1
  S  S51  1  0.34873852  0.71287648  0.25513931  1
  S  S52  1  0.85257071  0.70417807  0.24888262  1
  S  S53  1  0.00108140  0.29356438  0.25138817  1
  S  S54  1  0.50232439  0.28611674  0.25187085  1
  S  S55  1  0.00199851  0.71972452  0.75264734  1
  S  S56  1  0.50321370  0.71984112  0.75428691  1
  S  S57  1  0.35237410  0.99589516  0.75318283  1
  S  S58  1  0.84896547  0.98506844  0.75557643  1
  S  S59  1  0.97547654  0.33293606  0.58123907  1
  S  S60  1  0.19278123  0.05260984  0.57925454  1
  S  S61  1  0.69554167  0.05127474  0.57789330  1
  S  S62  1  0.32991741  0.61160755  0.58327766  1
  S  S63  1  0.83446345  0.62631598  0.57907160  1
  S  S64  1  0.47495729  0.61742954  0.08100924  1
  S  S65  1  0.96936392  0.60828870  0.08500753  1
  S  S66  1  0.33239484  0.04079421  0.07920755  1
  S  S67  1  0.83276886  0.05174870  0.08442188  1
  S  S68  1  0.19133605  0.33551130  0.07919223  1
  S  S69  1  0.69623689  0.33594596  0.08138658  1
  S  S70  1  0.32426446  0.67063728  0.91910673  1
  S  S71  1  0.81871986  0.67124113  0.91564867  1
  S  S72  1  0.16736346  0.97225387  0.91839494  1
  S  S73  1  0.66488613  0.95970754  0.91594494  1
  S  S74  1  0.31860701  0.96426403  0.41293680  1
  S  S75  1  0.82283344  0.97226757  0.41866679  1
  S  S76  1  0.16228217  0.37008702  0.41266604  1
  S  S77  1  0.66790444  0.36331441  0.41629070  1
  O  O78  1  0.09217075  0.01777100  0.30951079  1
  O  O79  1  0.60275161  0.02577957  0.30845169  1
  O  O80  1  0.41012722  0.81893630  0.30252513  1
  O  O81  1  0.91081332  0.79589307  0.30055647  1
  O  O82  1  0.49419167  0.17208636  0.30209287  1
  O  O83  1  0.98186497  0.17130271  0.30137534  1
  O  O84  1  0.10854994  0.18414816  0.80934926  1
  O  O85  1  0.59932031  0.17767264  0.81400207  1
  O  O86  1  0.48963219  0.81128764  0.80539797  1
  O  O87  1  0.99406517  0.81868096  0.80357625  1
  O  O88  1  0.40893125  0.01153971  0.80510276  1
  O  O89  1  0.91053718  0.00473057  0.80389386  1
  O  O90  1  0.38474489  0.95554754  0.69764288  1
  O  O91  1  0.87577833  0.94318422  0.69732156  1
  O  O92  1  0.09095760  0.21798502  0.68945880  1
  O  O93  1  0.58955530  0.23382055  0.69716621  1
  O  O94  1  0.00111969  0.79551527  0.69405849  1
  O  O95  1  0.51531404  0.81376155  0.69716399  1
  O  O96  1  0.37450414  0.80482525  0.19594929  1
  O  O97  1  0.88461751  0.81171403  0.19346696  1
  O  O98  1  0.01520318  0.22578633  0.19365335  1
  O  O99  1  0.50183883  0.20867376  0.19246737  1
  O  O100  1  0.08874666  0.93510220  0.19357301  1
  O  O101  1  0.59373650  0.96181447  0.18760182  1
  O  O102  1  0.42196108  0.34026418  0.65012586  1
  O  O103  1  0.93719501  0.34755494  0.63864968  1
  O  O104  1  0.24087694  0.14737785  0.63326954  1
  O  O105  1  0.74002222  0.13414474  0.63458546  1
  O  O106  1  0.31978876  0.50952984  0.63820714  1
  O  O107  1  0.82556767  0.53516695  0.63631791  1
  O  O108  1  0.43654461  0.52674223  0.13816992  1
  O  O109  1  0.92659594  0.51060208  0.14094316  1
  O  O110  1  0.32331321  0.11505417  0.13622111  1
  O  O111  1  0.82819977  0.14192971  0.13946096  1
  O  O112  1  0.23680883  0.34441150  0.13537413  1
  O  O113  1  0.74733945  0.34286920  0.13469971  1
  O  O114  1  0.23944862  0.32749064  0.02568210  1
  O  O115  1  0.74013604  0.32497912  0.02506536  1
  O  O116  1  0.42232083  0.51555067  0.02914085  1
  O  O117  1  0.91913640  0.51461186  0.03113784  1
  O  O118  1  0.33798822  0.14995265  0.02735646  1
  O  O119  1  0.83680686  0.15146491  0.03021539  1
  O  O120  1  0.23554338  0.14969087  0.52285887  1
  O  O121  1  0.74305852  0.16226698  0.52507294  1
  O  O122  1  0.32930289  0.51675393  0.52842145  1
  O  O123  1  0.84161509  0.52812983  0.52735081  1
  O  O124  1  0.41917765  0.32227562  0.52858416  1
  O  O125  1  0.92337539  0.32899002  0.52923523  1
  O  O126  1  0.29003544  0.72048795  0.97249921  1
  O  O127  1  0.79187325  0.72460081  0.97251543  1
  O  O128  1  0.07929732  0.41717609  0.97299864  1
  O  O129  1  0.58235592  0.42358320  0.97255793  1
  O  O130  1  0.15298712  0.86973094  0.97427017  1
  O  O131  1  0.65227535  0.86311380  0.97295861  1
  O  O132  1  0.29178397  0.85919334  0.46930177  1
  O  O133  1  0.78682142  0.85421631  0.47013266  1
  O  O134  1  0.14851121  0.43979542  0.46989832  1
  O  O135  1  0.65611189  0.44244009  0.47107531  1
  O  O136  1  0.08413956  0.73660702  0.47121928  1
  O  O137  1  0.58240542  0.74089392  0.46823329  1
  O  O138  1  0.06240483  0.63092828  0.35750847  1
  O  O139  1  0.54154817  0.60162078  0.35866983  1
  O  O140  1  0.25336093  0.86330267  0.36495928  1
  O  O141  1  0.76519798  0.90170408  0.36494592  1
  O  O142  1  0.17869636  0.49290967  0.36260608  1
  O  O143  1  0.69148293  0.47971215  0.36381022  1
  O  O144  1  0.04721629  0.48979621  0.86272417  1
  O  O145  1  0.56578465  0.49994706  0.86008874  1
  O  O146  1  0.19059957  0.89831608  0.86733344  1
  O  O147  1  0.68384422  0.87468042  0.86550747  1
  O  O148  1  0.26321286  0.62554285  0.86773899  1
  O  O149  1  0.75350087  0.63652931  0.86771829  1
  O  O150  1  0.00166255  0.83939203  0.40556183  1
  O  O151  1  0.50010306  0.84449022  0.40393771  1
  O  O152  1  0.40873883  0.00481376  0.39844994  1
  O  O153  1  0.91330997  0.00631326  0.40496935  1
  O  O154  1  0.07976191  0.19544623  0.40391248  1
  O  O155  1  0.58526153  0.19005400  0.40738284  1
  O  O156  1  0.00056047  0.15854194  0.90302329  1
  O  O157  1  0.49981504  0.16104305  0.90489007  1
  O  O158  1  0.08585302  0.98383452  0.90940104  1
  O  O159  1  0.58401184  0.97298478  0.90763479  1
  O  O160  1  0.41391678  0.81520938  0.90651225  1
  O  O161  1  0.90911485  0.81064275  0.90214946  1
  O  O162  1  0.47778879  0.14651774  0.58313587  1
  O  O163  1  0.97728158  0.16376608  0.57883140  1
  O  O164  1  0.10149084  0.02556738  0.57924194  1
  O  O165  1  0.60477217  0.02550076  0.57713165  1
  O  O166  1  0.41328890  0.78247731  0.58516009  1
  O  O167  1  0.91892577  0.80209305  0.58003557  1
  O  O168  1  0.47714893  0.79047873  0.07874501  1
  O  O169  1  0.97446933  0.78428620  0.08395255  1
  O  O170  1  0.41496765  0.02814038  0.07973126  1
  O  O171  1  0.91474206  0.03750951  0.08536596  1
  O  O172  1  0.10135474  0.17315432  0.07818970  1
  O  O173  1  0.60621582  0.17890451  0.08124133  1
  O  O174  1  0.35408742  0.16756540  0.74980671  1
  O  O175  1  0.84880435  0.15496507  0.75234243  1
  O  O176  1  0.25048920  0.30348750  0.73903218  1
  O  O177  1  0.74604541  0.31749761  0.75619067  1
  O  O178  1  0.42594406  0.53773582  0.75118647  1
  O  O179  1  0.92518786  0.53650595  0.75593462  1
  O  O180  1  0.34876850  0.54260966  0.25218541  1
  O  O181  1  0.85633210  0.53591497  0.24090651  1
  O  O182  1  0.42480894  0.31461111  0.25458541  1
  O  O183  1  0.92439349  0.32698459  0.24438117  1
  O  O184  1  0.24333089  0.17486320  0.25462924  1
  O  O185  1  0.74811478  0.19289969  0.24214341  1
  O  O186  1  0.32584012  0.50309291  0.93037528  1
  O  O187  1  0.81683428  0.49778179  0.92516850  1
  O  O188  1  0.41868544  0.34695144  0.92525104  1
  O  O189  1  0.91201256  0.33265445  0.93123583  1
  O  O190  1  0.24216525  0.15939451  0.92759572  1
  O  O191  1  0.74124338  0.14613686  0.92302627  1
  O  O192  1  0.31589955  0.13218854  0.42045128  1
  O  O193  1  0.82733548  0.14673399  0.42948901  1
  O  O194  1  0.23736479  0.33634141  0.41763967  1
  O  O195  1  0.74202825  0.32276024  0.42499106  1
  O  O196  1  0.40951981  0.49576877  0.42973084  1
  O  O197  1  0.91864127  0.48946779  0.42546850  1
  O  O198  1  0.18398032  0.49836243  0.07933074  1
  O  O199  1  0.69310375  0.50367742  0.08217621  1
  O  O200  1  0.06010966  0.63081643  0.08357143  1
  O  O201  1  0.56604828  0.64441896  0.07842261  1
  O  O202  1  0.25278627  0.86095231  0.07490282  1
  O  O203  1  0.75210999  0.87310042  0.08207343  1
  O  O204  1  0.18991487  0.87881714  0.58135824  1
  O  O205  1  0.69490285  0.88155610  0.57576215  1
  O  O206  1  0.25090794  0.63703165  0.58102720  1
  O  O207  1  0.75776645  0.65184784  0.57359350  1
  O  O208  1  0.06642203  0.48734815  0.57873432  1
  O  O209  1  0.56994846  0.50404795  0.59123452  1
  O  O210  1  0.15962313  0.81857842  0.26412063  1
  O  O211  1  0.67199408  0.84366167  0.25306407  1
  O  O212  1  0.25775101  0.67708097  0.26697791  1
  O  O213  1  0.76094714  0.65967073  0.25843892  1
  O  O214  1  0.08254628  0.46900562  0.26039922  1
  O  O215  1  0.58596591  0.45649003  0.25372151  1
  O  O216  1  0.17359792  0.49813142  0.75185710  1
  O  O217  1  0.65888971  0.50209083  0.76380768  1
  O  O218  1  0.08595346  0.71733155  0.75482037  1
  O  O219  1  0.58557978  0.70739329  0.76239995  1
  O  O220  1  0.26061188  0.85366588  0.76191382  1
  O  O221  1  0.75900392  0.83925507  0.76875686  1
