# generated using pymatgen
data_La2MgTiZnO6
_symmetry_space_group_name_H-M   'P 1'
_cell_length_a   6.50321145
_cell_length_b   6.50321067
_cell_length_c   6.50321094
_cell_angle_alpha   53.76275999
_cell_angle_beta   53.76275994
_cell_angle_gamma   53.76276374
_symmetry_Int_Tables_number   1
_chemical_formula_structural   La2MgTiZnO6
_chemical_formula_sum   'La2 Mg1 Ti1 Zn1 O6'
_cell_volume   166.12003595
_cell_formula_units_Z   1
loop_
 _symmetry_equiv_pos_site_id
 _symmetry_equiv_pos_as_xyz
  1  'x, y, z'
loop_
 _atom_site_type_symbol
 _atom_site_label
 _atom_site_symmetry_multiplicity
 _atom_site_fract_x
 _atom_site_fract_y
 _atom_site_fract_z
 _atom_site_occupancy
  La  La0  1  0.72068524  0.72068524  0.72068524  1
  La  La1  1  0.31818320  0.31818320  0.31818320  1
  Mg  Mg2  1  0.08809498  0.08809498  0.08809498  1
  Ti  Ti3  1  0.91690034  0.91690034  0.91690034  1
  Zn  Zn4  1  0.50825040  0.50825040  0.50825040  1
  O  O5  1  0.38884509  0.72932866  0.15875320  1
  O  O6  1  0.72932866  0.15875320  0.38884509  1
  O  O7  1  0.15875320  0.38884509  0.72932866  1
  O  O8  1  0.64587033  0.27314996  0.87098660  1
  O  O9  1  0.87098660  0.64587033  0.27314996  1
  O  O10  1  0.27314996  0.87098660  0.64587033  1
