# generated using pymatgen
data_Na2ScTaSi(PO6)2
_symmetry_space_group_name_H-M   'P 1'
_cell_length_a   8.91840409
_cell_length_b   8.91840378
_cell_length_c   22.81087318
_cell_angle_alpha   89.83596190
_cell_angle_beta   90.16403810
_cell_angle_gamma   119.64156568
_symmetry_Int_Tables_number   1
_chemical_formula_structural   Na2ScTaSi(PO6)2
_chemical_formula_sum   'Na12 Sc6 Ta6 Si6 P12 O72'
_cell_volume   1576.89119374
_cell_formula_units_Z   6
loop_
 _symmetry_equiv_pos_site_id
 _symmetry_equiv_pos_as_xyz
  1  'x, y, z'
loop_
 _atom_site_type_symbol
 _atom_site_label
 _atom_site_symmetry_multiplicity
 _atom_site_fract_x
 _atom_site_fract_y
 _atom_site_fract_z
 _atom_site_occupancy
  Na  Na0  1  0.99036796  0.62925126  0.24760319  1
  Na  Na1  1  0.37074874  0.00963204  0.74760319  1
  Na  Na2  1  0.65557927  0.96495559  0.58334419  1
  Na  Na3  1  0.03504441  0.34442073  0.08334419  1
  Na  Na4  1  0.97854385  0.67810155  0.91676789  1
  Na  Na5  1  0.32189845  0.02145615  0.41676789  1
  Na  Na6  1  0.00031518  0.99567666  0.49535555  1
  Na  Na7  1  0.00432334  0.99968482  0.99535555  1
  Na  Na8  1  0.66898872  0.32913269  0.82893979  1
  Na  Na9  1  0.67086731  0.33101128  0.32893979  1
  Na  Na10  1  0.34585926  0.67514314  0.16188560  1
  Na  Na11  1  0.32485686  0.65414074  0.66188560  1
  Sc  Sc12  1  0.99149441  0.00116515  0.35284200  1
  Sc  Sc13  1  0.99883485  0.00850559  0.85284200  1
  Sc  Sc14  1  0.66902519  0.33141684  0.68577767  1
  Sc  Sc15  1  0.66858316  0.33097481  0.18577767  1
  Sc  Sc16  1  0.33351953  0.67509483  0.01931054  1
  Sc  Sc17  1  0.32490517  0.66648047  0.51931054  1
  Ta  Ta18  1  0.00314067  0.99947325  0.64685764  1
  Ta  Ta19  1  0.00052675  0.99685933  0.14685764  1
  Ta  Ta20  1  0.66152815  0.33069471  0.98005765  1
  Ta  Ta21  1  0.66930529  0.33847185  0.48005765  1
  Ta  Ta22  1  0.32881552  0.65923684  0.31325081  1
  Ta  Ta23  1  0.34076316  0.67118448  0.81325081  1
  Si  Si24  1  0.99880526  0.29003848  0.25017433  1
  Si  Si25  1  0.70996152  0.00119474  0.75017433  1
  Si  Si26  1  0.37398669  0.04237043  0.58415090  1
  Si  Si27  1  0.95762957  0.62601331  0.08415090  1
  Si  Si28  1  0.33426426  0.96147013  0.91682286  1
  Si  Si29  1  0.03852987  0.66573574  0.41682286  1
  P  P30  1  0.29255500  0.00183081  0.25238042  1
  P  P31  1  0.70806374  0.71197053  0.25049369  1
  P  P32  1  0.28802947  0.29193626  0.75049369  1
  P  P33  1  0.99816919  0.70744500  0.75238042  1
  P  P34  1  0.95770856  0.33334164  0.58442916  1
  P  P35  1  0.66920511  0.62404845  0.58468790  1
  P  P36  1  0.66665836  0.04229144  0.08442916  1
  P  P37  1  0.37595155  0.33079489  0.08468790  1
  P  P38  1  0.62221205  0.66463403  0.91798295  1
  P  P39  1  0.04393166  0.37728545  0.91860055  1
  P  P40  1  0.62271455  0.95606834  0.41860055  1
  P  P41  1  0.33536597  0.37778795  0.41798295  1
  O  O42  1  0.20874998  0.01985684  0.30778559  1
  O  O43  1  0.82441299  0.79114426  0.30358834  1
  O  O44  1  0.97661172  0.17626303  0.30655011  1
  O  O45  1  0.20885574  0.17558701  0.80358834  1
  O  O46  1  0.98014316  0.79125002  0.80778559  1
  O  O47  1  0.82373697  0.02338828  0.80655011  1
  O  O48  1  0.80136127  0.97166254  0.69039639  1
  O  O49  1  0.16889222  0.19781290  0.69514666  1
  O  O50  1  0.03391134  0.83374420  0.69755206  1
  O  O51  1  0.80218710  0.83110778  0.19514666  1
  O  O52  1  0.02833746  0.19863873  0.19039639  1
  O  O53  1  0.16625580  0.96608866  0.19755206  1
  O  O54  1  0.87430148  0.35796852  0.63820550  1
  O  O55  1  0.48978311  0.12732305  0.64177596  1
  O  O56  1  0.64620947  0.51675281  0.63829018  1
  O  O57  1  0.87267695  0.51021689  0.14177596  1
  O  O58  1  0.64203148  0.12569852  0.13820550  1
  O  O59  1  0.48324719  0.35379053  0.13829018  1
  O  O60  1  0.46658971  0.30282681  0.02903476  1
  O  O61  1  0.83406423  0.52995828  0.02490790  1
  O  O62  1  0.69791528  0.16469609  0.02940020  1
  O  O63  1  0.47004172  0.16593577  0.52490790  1
  O  O64  1  0.69717319  0.53341029  0.52903476  1
  O  O65  1  0.83530391  0.30208472  0.52940020  1
  O  O66  1  0.53743049  0.68723188  0.97160240  1
  O  O67  1  0.14559611  0.45597373  0.97460307  1
  O  O68  1  0.29935538  0.83593769  0.97163143  1
  O  O69  1  0.54402627  0.85440389  0.47460307  1
  O  O70  1  0.31276812  0.46256951  0.47160240  1
  O  O71  1  0.16406231  0.70064462  0.47163143  1
  O  O72  1  0.13656650  0.63745735  0.35761996  1
  O  O73  1  0.50107214  0.86564006  0.36404741  1
  O  O74  1  0.36377698  0.49582565  0.36217523  1
  O  O75  1  0.13435994  0.49892786  0.86404741  1
  O  O76  1  0.36254265  0.86343350  0.85761996  1
  O  O77  1  0.50417435  0.63622302  0.86217523  1
  O  O78  1  0.02537694  0.83855387  0.40977071  1
  O  O79  1  0.80376023  0.98324043  0.41157189  1
  O  O80  1  0.18594168  0.19429339  0.41007330  1
  O  O81  1  0.01675957  0.19623977  0.91157189  1
  O  O82  1  0.16144613  0.97462306  0.90977071  1
  O  O83  1  0.80570661  0.81405832  0.91007330  1
  O  O84  1  0.96130405  0.15769583  0.58937036  1
  O  O85  1  0.18136046  0.02657264  0.59071068  1
  O  O86  1  0.83669982  0.80863501  0.58989962  1
  O  O87  1  0.97342736  0.81863954  0.09071068  1
  O  O88  1  0.84230417  0.03869595  0.08937036  1
  O  O89  1  0.19136499  0.16330018  0.08989962  1
  O  O90  1  0.66768324  0.15750987  0.74600498  1
  O  O91  1  0.46687950  0.31297449  0.74196649  1
  O  O92  1  0.84413606  0.53089488  0.74324394  1
  O  O93  1  0.68702551  0.53312050  0.24196649  1
  O  O94  1  0.84249013  0.33231676  0.24600498  1
  O  O95  1  0.46910512  0.15586394  0.24324394  1
  O  O96  1  0.63895343  0.49592740  0.92275035  1
  O  O97  1  0.86267388  0.37095451  0.92332810  1
  O  O98  1  0.51205822  0.15065576  0.92416098  1
  O  O99  1  0.62904549  0.13732612  0.42332810  1
  O  O100  1  0.50407260  0.36104657  0.42275035  1
  O  O101  1  0.84934424  0.48794178  0.42416098  1
  O  O102  1  0.34372337  0.48226465  0.07604119  1
  O  O103  1  0.14419171  0.63769365  0.07834577  1
  O  O104  1  0.51621718  0.86088500  0.07681724  1
  O  O105  1  0.36230635  0.85580829  0.57834577  1
  O  O106  1  0.51773535  0.65627663  0.57604119  1
  O  O107  1  0.13911500  0.48378282  0.57681724  1
  O  O108  1  0.30132569  0.82863612  0.25629303  1
  O  O109  1  0.53005574  0.70278111  0.25683964  1
  O  O110  1  0.17924328  0.48621820  0.25678330  1
  O  O111  1  0.29721889  0.46994426  0.75683964  1
  O  O112  1  0.17136388  0.69867431  0.75629303  1
  O  O113  1  0.51378180  0.82075672  0.75678330  1
