# generated using pymatgen
data_Na6Ga8Si3(S3O16)3
_symmetry_space_group_name_H-M   'P 1'
_cell_length_a   17.22980448
_cell_length_b   8.59232871
_cell_length_c   22.18707985
_cell_angle_alpha   90.00817360
_cell_angle_beta   89.43505708
_cell_angle_gamma   119.85206806
_symmetry_Int_Tables_number   1
_chemical_formula_structural   Na6Ga8Si3(S3O16)3
_chemical_formula_sum   'Na18 Ga24 Si9 S27 O144'
_cell_volume   2848.65464006
_cell_formula_units_Z   3
loop_
 _symmetry_equiv_pos_site_id
 _symmetry_equiv_pos_as_xyz
  1  'x, y, z'
loop_
 _atom_site_type_symbol
 _atom_site_label
 _atom_site_symmetry_multiplicity
 _atom_site_fract_x
 _atom_site_fract_y
 _atom_site_fract_z
 _atom_site_occupancy
  Na  Na0  1  0.00377013  0.64224261  0.25274228  1
  Na  Na1  1  0.50212523  0.36517539  0.74632860  1
  Na  Na2  1  0.16312054  0.30162310  0.91316146  1
  Na  Na3  1  0.66301732  0.30128403  0.91342725  1
  Na  Na4  1  0.16417670  0.02673331  0.41673568  1
  Na  Na5  1  0.66267869  0.02260241  0.41628990  1
  Na  Na6  1  0.99661608  0.99324769  0.50042298  1
  Na  Na7  1  0.49584072  0.99982045  0.50191646  1
  Na  Na8  1  0.99714628  0.00094079  0.99829723  1
  Na  Na9  1  0.49631309  0.99956608  0.99901507  1
  Na  Na10  1  0.33262150  0.33289229  0.83085602  1
  Na  Na11  1  0.83800421  0.33469710  0.83067411  1
  Na  Na12  1  0.33877274  0.34239548  0.33369735  1
  Na  Na13  1  0.83153897  0.33079451  0.33446400  1
  Na  Na14  1  0.17137703  0.67455282  0.16803310  1
  Na  Na15  1  0.66460016  0.67195318  0.16963171  1
  Na  Na16  1  0.16692228  0.65944012  0.66827430  1
  Na  Na17  1  0.66602346  0.66066656  0.66453591  1
  Ga  Ga18  1  0.00359160  0.99223843  0.35294931  1
  Ga  Ga19  1  0.50399095  0.99006985  0.35117928  1
  Ga  Ga20  1  0.00404156  0.02086073  0.84805791  1
  Ga  Ga21  1  0.50310877  0.01653805  0.84891137  1
  Ga  Ga22  1  0.00488327  0.00957296  0.65146603  1
  Ga  Ga23  1  0.50383295  0.02312541  0.64721002  1
  Ga  Ga24  1  0.00434826  0.99880465  0.15174643  1
  Ga  Ga25  1  0.50285544  0.99644263  0.15396190  1
  Ga  Ga26  1  0.32978942  0.33566362  0.68246409  1
  Ga  Ga27  1  0.82962455  0.33410283  0.68624887  1
  Ga  Ga28  1  0.33149446  0.32717507  0.18800271  1
  Ga  Ga29  1  0.82386223  0.31682632  0.18613953  1
  Ga  Ga30  1  0.34057361  0.33412253  0.98118943  1
  Ga  Ga31  1  0.84026883  0.33402920  0.98109961  1
  Ga  Ga32  1  0.34935842  0.35150617  0.48431839  1
  Ga  Ga33  1  0.83989644  0.34691937  0.48237373  1
  Ga  Ga34  1  0.16314022  0.65717385  0.01396483  1
  Ga  Ga35  1  0.66174353  0.65592642  0.01499211  1
  Ga  Ga36  1  0.16415203  0.67020583  0.51702105  1
  Ga  Ga37  1  0.65047146  0.65273041  0.51987049  1
  Ga  Ga38  1  0.16495910  0.67733139  0.31641803  1
  Ga  Ga39  1  0.65773988  0.67385960  0.31452872  1
  Ga  Ga40  1  0.15691145  0.64158055  0.81111045  1
  Ga  Ga41  1  0.66230633  0.65252245  0.81295349  1
  Si  Si42  1  0.14882099  0.00526020  0.24970031  1
  Si  Si43  1  0.64653316  0.99918870  0.24962165  1
  Si  Si44  1  0.14941159  0.29242328  0.74830004  1
  Si  Si45  1  0.64991906  0.29209783  0.75027177  1
  Si  Si46  1  0.47745592  0.33031409  0.58619596  1
  Si  Si47  1  0.01854230  0.37425475  0.91733654  1
  Si  Si48  1  0.51838078  0.37377072  0.91656326  1
  Si  Si49  1  0.01835372  0.65979114  0.41723567  1
  Si  Si50  1  0.51716040  0.66265968  0.41683691  1
  S  S51  1  0.35342946  0.70888215  0.24967391  1
  S  S52  1  0.85265727  0.71021138  0.24923327  1
  S  S53  1  0.00022009  0.28647507  0.24976329  1
  S  S54  1  0.50040144  0.28820037  0.24989962  1
  S  S55  1  0.99992062  0.71240815  0.75018732  1
  S  S56  1  0.50039453  0.71851546  0.75034620  1
  S  S57  1  0.35138392  0.99256689  0.75082730  1
  S  S58  1  0.85373139  0.99816009  0.74949866  1
  S  S59  1  0.97770199  0.33138868  0.58433005  1
  S  S60  1  0.18682106  0.04030429  0.58176338  1
  S  S61  1  0.69089078  0.04492809  0.58240375  1
  S  S62  1  0.33142608  0.62749043  0.58273479  1
  S  S63  1  0.83491114  0.62996365  0.58397003  1
  S  S64  1  0.47779850  0.62436838  0.08425996  1
  S  S65  1  0.97806227  0.62442543  0.08460190  1
  S  S66  1  0.33321820  0.03795668  0.08367344  1
  S  S67  1  0.83330174  0.03705725  0.08336382  1
  S  S68  1  0.18897884  0.33524865  0.08274767  1
  S  S69  1  0.68831322  0.33506887  0.08202774  1
  S  S70  1  0.31396216  0.67144068  0.91714417  1
  S  S71  1  0.81400663  0.67182330  0.91740600  1
  S  S72  1  0.16647514  0.95268764  0.91675066  1
  S  S73  1  0.66646063  0.95276064  0.91704451  1
  S  S74  1  0.31409526  0.95719659  0.41661453  1
  S  S75  1  0.81301442  0.95390730  0.41753274  1
  S  S76  1  0.16670274  0.38040751  0.41658955  1
  S  S77  1  0.66683529  0.38139391  0.41594472  1
  O  O78  1  0.10543630  0.04044911  0.31015837  1
  O  O79  1  0.60688181  0.04312266  0.31014534  1
  O  O80  1  0.40802856  0.78877135  0.30358487  1
  O  O81  1  0.91010750  0.78828256  0.30284310  1
  O  O82  1  0.48159129  0.17444503  0.30399555  1
  O  O83  1  0.98172864  0.17448354  0.30398363  1
  O  O84  1  0.11017709  0.17464707  0.81102280  1
  O  O85  1  0.60980586  0.17669048  0.81284694  1
  O  O86  1  0.48435463  0.79529530  0.80611368  1
  O  O87  1  0.98160842  0.78889914  0.80502150  1
  O  O88  1  0.40870834  0.02853547  0.80525190  1
  O  O89  1  0.90762381  0.02778146  0.80459115  1
  O  O90  1  0.38998701  0.95725382  0.69645913  1
  O  O91  1  0.89148904  0.96031548  0.69471981  1
  O  O92  1  0.08368950  0.20619832  0.69093117  1
  O  O93  1  0.58177090  0.20590451  0.69475128  1
  O  O94  1  0.01323383  0.81858860  0.69439540  1
  O  O95  1  0.51266290  0.82368467  0.69499950  1
  O  O96  1  0.39032456  0.82071245  0.19391712  1
  O  O97  1  0.89116518  0.82214195  0.19381197  1
  O  O98  1  0.01306687  0.20683378  0.19354906  1
  O  O99  1  0.51331680  0.20832304  0.19333512  1
  O  O100  1  0.08113689  0.95150937  0.19192450  1
  O  O101  1  0.58554874  0.96140421  0.18959243  1
  O  O102  1  0.43392104  0.36667716  0.64712991  1
  O  O103  1  0.93683307  0.36351900  0.63865793  1
  O  O104  1  0.24087327  0.11983617  0.63586035  1
  O  O105  1  0.74674303  0.12890571  0.63618806  1
  O  O106  1  0.31241266  0.51472073  0.63735789  1
  O  O107  1  0.81902580  0.51566451  0.63807466  1
  O  O108  1  0.43690581  0.51000807  0.13841621  1
  O  O109  1  0.93749770  0.51260600  0.14000722  1
  O  O110  1  0.31713525  0.11958974  0.13773171  1
  O  O111  1  0.81778024  0.11873367  0.13779581  1
  O  O112  1  0.24461665  0.36337878  0.13620133  1
  O  O113  1  0.74495396  0.36611707  0.13562044  1
  O  O114  1  0.22858344  0.30393947  0.02680970  1
  O  O115  1  0.72922162  0.30435076  0.02654165  1
  O  O116  1  0.42274346  0.54444824  0.02967984  1
  O  O117  1  0.92203263  0.54266553  0.03078248  1
  O  O118  1  0.34915176  0.15004609  0.02878274  1
  O  O119  1  0.84935575  0.15015321  0.02887871  1
  O  O120  1  0.22495762  0.14936874  0.52596120  1
  O  O121  1  0.73045679  0.15796995  0.52647135  1
  O  O122  1  0.34532252  0.54671218  0.52750878  1
  O  O123  1  0.85165934  0.54988349  0.52907012  1
  O  O124  1  0.41626095  0.28894946  0.52678741  1
  O  O125  1  0.92292473  0.30111659  0.52958083  1
  O  O126  1  0.27629290  0.70694357  0.97311505  1
  O  O127  1  0.77575768  0.70685592  0.97299100  1
  O  O128  1  0.08405754  0.45266813  0.97638036  1
  O  O129  1  0.58505771  0.45491205  0.97481575  1
  O  O130  1  0.15360093  0.84770017  0.97341109  1
  O  O131  1  0.65391211  0.84745257  0.97330453  1
  O  O132  1  0.27564316  0.84467633  0.47135004  1
  O  O133  1  0.77474296  0.84333465  0.47206020  1
  O  O134  1  0.15255082  0.46036332  0.47192829  1
  O  O135  1  0.65526282  0.46194384  0.47148096  1
  O  O136  1  0.08645295  0.71204096  0.47393985  1
  O  O137  1  0.58700998  0.72209430  0.47311712  1
  O  O138  1  0.05951104  0.62511793  0.35514569  1
  O  O139  1  0.55969347  0.62111767  0.35790751  1
  O  O140  1  0.25707847  0.87672887  0.36233124  1
  O  O141  1  0.75815717  0.87853738  0.36250863  1
  O  O142  1  0.18399873  0.49130117  0.36153549  1
  O  O143  1  0.68557060  0.49195508  0.36097259  1
  O  O144  1  0.06301718  0.50271580  0.85974852  1
  O  O145  1  0.56171273  0.49713729  0.85670781  1
  O  O146  1  0.18513230  0.87804253  0.86288525  1
  O  O147  1  0.68521106  0.87803964  0.86283048  1
  O  O148  1  0.25722413  0.63657705  0.86389113  1
  O  O149  1  0.75687013  0.63576396  0.86387006  1
  O  O150  1  0.01094063  0.84385746  0.41199229  1
  O  O151  1  0.51009198  0.84658173  0.41160667  1
  O  O152  1  0.40399383  0.98135161  0.40808422  1
  O  O153  1  0.90472637  0.98185755  0.40887958  1
  O  O154  1  0.08340743  0.20117155  0.41179698  1
  O  O155  1  0.58451952  0.20157016  0.41123307  1
  O  O156  1  0.01008895  0.17465733  0.91167316  1
  O  O157  1  0.51023781  0.17459371  0.91163211  1
  O  O158  1  0.08422061  0.96753096  0.91282196  1
  O  O159  1  0.58436139  0.96710191  0.91294127  1
  O  O160  1  0.40456999  0.82601645  0.90994663  1
  O  O161  1  0.90429818  0.82622273  0.90956780  1
  O  O162  1  0.48591696  0.14893437  0.58819844  1
  O  O163  1  0.98492561  0.16620810  0.58899684  1
  O  O164  1  0.09502329  0.01735967  0.58784605  1
  O  O165  1  0.60030327  0.02177313  0.58845852  1
  O  O166  1  0.41343899  0.80259891  0.59009468  1
  O  O167  1  0.91732872  0.80890402  0.59086155  1
  O  O168  1  0.48518175  0.80402357  0.08899461  1
  O  O169  1  0.98511356  0.80434963  0.08893284  1
  O  O170  1  0.41475026  0.02112528  0.09030355  1
  O  O171  1  0.91502986  0.02106987  0.09019417  1
  O  O172  1  0.09777453  0.17354891  0.08844393  1
  O  O173  1  0.59809704  0.17462200  0.08788136  1
  O  O174  1  0.34677517  0.16004912  0.74540625  1
  O  O175  1  0.84848477  0.16427435  0.74223683  1
  O  O176  1  0.24804478  0.31026906  0.74112316  1
  O  O177  1  0.74857977  0.31235951  0.74392587  1
  O  O178  1  0.42221515  0.53369798  0.74707902  1
  O  O179  1  0.92153770  0.52934832  0.74363459  1
  O  O180  1  0.34825442  0.53220977  0.24180247  1
  O  O181  1  0.85036041  0.53415447  0.24152437  1
  O  O182  1  0.42120557  0.31304482  0.24290995  1
  O  O183  1  0.92230889  0.31725382  0.24285430  1
  O  O184  1  0.24665811  0.18293101  0.24266149  1
  O  O185  1  0.74576483  0.18108708  0.24398272  1
  O  O186  1  0.31712613  0.50095128  0.92529281  1
  O  O187  1  0.81702472  0.50128802  0.92522330  1
  O  O188  1  0.42010320  0.35579203  0.92329921  1
  O  O189  1  0.91975248  0.35510371  0.92376065  1
  O  O190  1  0.24443413  0.13963751  0.92417546  1
  O  O191  1  0.74451132  0.13920196  0.92396095  1
  O  O192  1  0.31594487  0.13147948  0.42232113  1
  O  O193  1  0.81792388  0.13297531  0.42420906  1
  O  O194  1  0.24346001  0.34917520  0.42302393  1
  O  O195  1  0.74465077  0.34866180  0.42249572  1
  O  O196  1  0.41754808  0.48814657  0.42119139  1
  O  O197  1  0.91969278  0.48311339  0.42343376  1
  O  O198  1  0.18137659  0.50048818  0.07803581  1
  O  O199  1  0.68185985  0.50147498  0.07753818  1
  O  O200  1  0.06866574  0.64443632  0.07846860  1
  O  O201  1  0.56871000  0.64421669  0.07802968  1
  O  O202  1  0.25165597  0.85832832  0.07653786  1
  O  O203  1  0.75192364  0.85813414  0.07644607  1
  O  O204  1  0.17968988  0.85938194  0.57753596  1
  O  O205  1  0.68651696  0.86907252  0.57718694  1
  O  O206  1  0.24984581  0.64649651  0.57559501  1
  O  O207  1  0.75539682  0.64885318  0.57649730  1
  O  O208  1  0.06827694  0.49258264  0.57807993  1
  O  O209  1  0.57763500  0.50837183  0.58076714  1
  O  O210  1  0.15611857  0.82118965  0.25483711  1
  O  O211  1  0.66015128  0.82480380  0.25415520  1
  O  O212  1  0.26254756  0.68451427  0.25696357  1
  O  O213  1  0.76269655  0.68374672  0.25713713  1
  O  O214  1  0.08239859  0.46511509  0.25408106  1
  O  O215  1  0.58333587  0.46371099  0.25437974  1
  O  O216  1  0.15979396  0.49177781  0.75389114  1
  O  O217  1  0.65671329  0.49054566  0.75509189  1
  O  O218  1  0.08345870  0.70348205  0.75518531  1
  O  O219  1  0.58314833  0.70275927  0.75497887  1
  O  O220  1  0.26133247  0.83669894  0.75937801  1
  O  O221  1  0.76308240  0.84064229  0.75781332  1
