# generated using pymatgen
data_Na6Ti3ZnSi2(PO6)4
_symmetry_space_group_name_H-M   'P 1'
_cell_length_a   15.43006193
_cell_length_b   8.89677287
_cell_length_c   8.87349586
_cell_angle_alpha   90.36226001
_cell_angle_beta   124.73985198
_cell_angle_gamma   89.91814156
_symmetry_Int_Tables_number   1
_chemical_formula_structural   Na6Ti3ZnSi2(PO6)4
_chemical_formula_sum   'Na12 Ti6 Zn2 Si4 P8 O48'
_cell_volume   1000.97519533
_cell_formula_units_Z   2
loop_
 _symmetry_equiv_pos_site_id
 _symmetry_equiv_pos_as_xyz
  1  'x, y, z'
loop_
 _atom_site_type_symbol
 _atom_site_label
 _atom_site_symmetry_multiplicity
 _atom_site_fract_x
 _atom_site_fract_y
 _atom_site_fract_z
 _atom_site_occupancy
  Na  Na0  1  0.24945373  0.74791601  0.99820692  1
  Na  Na1  1  0.74657212  0.74828672  0.48743879  1
  Na  Na2  1  0.74945373  0.24791601  0.99820692  1
  Na  Na3  1  0.24657212  0.24828672  0.48743879  1
  Na  Na4  1  0.50795343  0.09635866  0.76822119  1
  Na  Na5  1  0.49982702  0.88829273  0.23616160  1
  Na  Na6  1  0.00795343  0.59635866  0.76822119  1
  Na  Na7  1  0.99982702  0.38829273  0.23616160  1
  Na  Na8  1  0.80269723  0.92815400  0.21716519  1
  Na  Na9  1  0.18360005  0.07378637  0.79475699  1
  Na  Na10  1  0.30269723  0.42815400  0.21716519  1
  Na  Na11  1  0.68360005  0.57378637  0.79475699  1
  Ti  Ti12  1  0.10238678  0.74550286  0.55787063  1
  Ti  Ti13  1  0.89239207  0.75462781  0.93446230  1
  Ti  Ti14  1  0.89797128  0.25484857  0.44271893  1
  Ti  Ti15  1  0.60238678  0.24550286  0.55787063  1
  Ti  Ti16  1  0.39239207  0.25462781  0.93446230  1
  Ti  Ti17  1  0.39797128  0.75484857  0.44271893  1
  Zn  Zn18  1  0.10398036  0.24301827  0.05774605  1
  Zn  Zn19  1  0.60398036  0.74301827  0.05774605  1
  Si  Si20  1  0.64957679  0.89899990  0.74995248  1
  Si  Si21  1  0.35381011  0.10012883  0.25289848  1
  Si  Si22  1  0.14957679  0.39899990  0.74995248  1
  Si  Si23  1  0.85381011  0.60012883  0.25289848  1
  P  P24  1  0.99648942  0.95671897  0.74543464  1
  P  P25  1  0.00148368  0.03986604  0.25559715  1
  P  P26  1  0.49648942  0.45671897  0.74543464  1
  P  P27  1  0.50148368  0.53986604  0.25559715  1
  P  P28  1  0.35442116  0.89440631  0.75868279  1
  P  P29  1  0.64584962  0.11483346  0.24557123  1
  P  P30  1  0.85442116  0.39440631  0.75868279  1
  P  P31  1  0.14584962  0.61483346  0.24557123  1
  O  O32  1  0.15526825  0.58127212  0.72804967  1
  O  O33  1  0.85065747  0.57134484  0.75207626  1
  O  O34  1  0.85465081  0.41475659  0.26210576  1
  O  O35  1  0.15366277  0.44305831  0.25781216  1
  O  O36  1  0.65526825  0.08127212  0.72804967  1
  O  O37  1  0.35065747  0.07134484  0.75207626  1
  O  O38  1  0.35465081  0.91475659  0.26210576  1
  O  O39  1  0.65366277  0.94305831  0.25781216  1
  O  O40  1  0.42896084  0.55507012  0.56990601  1
  O  O41  1  0.56901036  0.55126937  0.91547425  1
  O  O42  1  0.56242845  0.44267994  0.42974040  1
  O  O43  1  0.43859194  0.43051145  0.08424474  1
  O  O44  1  0.92896084  0.05507012  0.56990601  1
  O  O45  1  0.06901036  0.05126937  0.91547425  1
  O  O46  1  0.06242845  0.94267994  0.42974040  1
  O  O47  1  0.93859194  0.93051145  0.08424474  1
  O  O48  1  0.25145979  0.84183880  0.73453655  1
  O  O49  1  0.74777161  0.81318172  0.75998389  1
  O  O50  1  0.74246248  0.18075735  0.25648526  1
  O  O51  1  0.26249174  0.18573365  0.25173444  1
  O  O52  1  0.75145979  0.34183880  0.73453655  1
  O  O53  1  0.24777161  0.31318172  0.75998389  1
  O  O54  1  0.24246248  0.68075735  0.25648526  1
  O  O55  1  0.76249174  0.68573365  0.25173444  1
  O  O56  1  0.36074170  0.84813681  0.59254717  1
  O  O57  1  0.64982443  0.87644073  0.92949766  1
  O  O58  1  0.64453659  0.17011946  0.41129300  1
  O  O59  1  0.35611242  0.14046287  0.07046245  1
  O  O60  1  0.86074170  0.34813681  0.59254717  1
  O  O61  1  0.14982443  0.37644073  0.92949766  1
  O  O62  1  0.14453659  0.67011946  0.41129300  1
  O  O63  1  0.85611242  0.64046287  0.07046245  1
  O  O64  1  0.45023891  0.83687266  0.93726471  1
  O  O65  1  0.53843854  0.82224337  0.57040383  1
  O  O66  1  0.54224537  0.16868556  0.06568875  1
  O  O67  1  0.46924015  0.16133236  0.42928847  1
  O  O68  1  0.95023891  0.33687266  0.93726471  1
  O  O69  1  0.03843854  0.32224337  0.57040383  1
  O  O70  1  0.04224537  0.66868556  0.06568875  1
  O  O71  1  0.96924015  0.66133236  0.42928847  1
  O  O72  1  0.07417629  0.85238072  0.72990231  1
  O  O73  1  0.92144739  0.84716060  0.75567994  1
  O  O74  1  0.91256805  0.12916467  0.25347277  1
  O  O75  1  0.07454881  0.14978041  0.24946419  1
  O  O76  1  0.57417629  0.35238072  0.72990231  1
  O  O77  1  0.42144739  0.34716060  0.75567994  1
  O  O78  1  0.41256805  0.62916467  0.25347277  1
  O  O79  1  0.57454881  0.64978041  0.24946419  1
