# generated using pymatgen
data_Na12Nb2Zn4Si6(SO12)3
_symmetry_space_group_name_H-M   'P 1'
_cell_length_a   9.23178550
_cell_length_b   9.22234229
_cell_length_c   22.18190014
_cell_angle_alpha   89.99659756
_cell_angle_beta   90.00000000
_cell_angle_gamma   120.03387777
_symmetry_Int_Tables_number   1
_chemical_formula_structural   Na12Nb2Zn4Si6(SO12)3
_chemical_formula_sum   'Na24 Nb4 Zn8 Si12 S6 O72'
_cell_volume   1634.96311803
_cell_formula_units_Z   2
loop_
 _symmetry_equiv_pos_site_id
 _symmetry_equiv_pos_as_xyz
  1  'x, y, z'
loop_
 _atom_site_type_symbol
 _atom_site_label
 _atom_site_symmetry_multiplicity
 _atom_site_fract_x
 _atom_site_fract_y
 _atom_site_fract_z
 _atom_site_occupancy
  Na  Na0  1  0.64661634  0.02063931  0.25296919  1
  Na  Na1  1  0.35314999  0.34146851  0.24955374  1
  Na  Na2  1  0.99290789  0.63190419  0.23903329  1
  Na  Na3  1  0.63899630  0.63190419  0.73903329  1
  Na  Na4  1  0.98831852  0.34146851  0.74955374  1
  Na  Na5  1  0.37402297  0.02063931  0.75296919  1
  Na  Na6  1  0.30183068  0.34530728  0.58632036  1
  Na  Na7  1  0.03667770  0.71035391  0.57857227  1
  Na  Na8  1  0.66595161  0.94450635  0.58270524  1
  Na  Na9  1  0.27855574  0.94450635  0.08270524  1
  Na  Na10  1  0.67367721  0.71035391  0.07857227  1
  Na  Na11  1  0.04347760  0.34530728  0.08632036  1
  Na  Na12  1  0.98620517  0.69836278  0.91425080  1
  Na  Na13  1  0.71408418  0.02508794  0.90880088  1
  Na  Na14  1  0.30711617  0.27899001  0.90922824  1
  Na  Na15  1  0.97187283  0.27899001  0.40922824  1
  Na  Na16  1  0.31100276  0.02508794  0.40880088  1
  Na  Na17  1  0.71215661  0.69836278  0.41425080  1
  Na  Na18  1  0.99186400  0.99340591  0.49371768  1
  Na  Na19  1  0.00154191  0.99340591  0.99371768  1
  Na  Na20  1  0.65424528  0.31947806  0.82397572  1
  Na  Na21  1  0.66523378  0.31947806  0.32397572  1
  Na  Na22  1  0.31438404  0.66418592  0.16228100  1
  Na  Na23  1  0.34980088  0.66418592  0.66228100  1
  Nb  Nb24  1  0.67657798  0.34565100  0.97531929  1
  Nb  Nb25  1  0.66907402  0.34565100  0.47531929  1
  Nb  Nb26  1  0.32394526  0.66547048  0.31748986  1
  Nb  Nb27  1  0.34152422  0.66547048  0.81748986  1
  Zn  Zn28  1  0.01851557  0.01842321  0.34935851  1
  Zn  Zn29  1  -0.00009236  0.01842321  0.84935851  1
  Zn  Zn30  1  0.98024605  0.00076153  0.65897831  1
  Zn  Zn31  1  0.02051549  0.00076153  0.15897831  1
  Zn  Zn32  1  0.64674153  0.32798811  0.68542091  1
  Zn  Zn33  1  0.68124758  0.32798811  0.18542091  1
  Zn  Zn34  1  0.31976016  0.66793292  0.00727990  1
  Zn  Zn35  1  0.34817176  0.66793292  0.50727990  1
  Si  Si36  1  0.30197172  0.00036941  0.24950401  1
  Si  Si37  1  0.00224234  0.29275953  0.24939270  1
  Si  Si38  1  0.29051719  0.29275953  0.74939270  1
  Si  Si39  1  0.69839770  0.00036941  0.74950401  1
  Si  Si40  1  0.66988031  0.63305607  0.58780418  1
  Si  Si41  1  0.96317676  0.63305607  0.08780418  1
  Si  Si42  1  0.62795901  0.67089476  0.92278626  1
  Si  Si43  1  0.04312321  0.37327791  0.92056394  1
  Si  Si44  1  0.33211879  0.96248537  0.92039438  1
  Si  Si45  1  0.63036558  0.96248537  0.42039438  1
  Si  Si46  1  0.33015370  0.37327791  0.42056394  1
  Si  Si47  1  0.04293474  0.67089476  0.42278626  1
  S  S48  1  0.69804963  0.70522663  0.25034128  1
  S  S49  1  0.00717700  0.70522663  0.75034128  1
  S  S50  1  0.95500759  0.33411013  0.58382335  1
  S  S51  1  0.37526823  0.04123447  0.58307836  1
  S  S52  1  0.66596725  0.04123447  0.08307836  1
  S  S53  1  0.37910354  0.33411013  0.08382335  1
  O  O54  1  0.21914022  0.02901011  0.30930587  1
  O  O55  1  0.79897770  0.78237876  0.30485489  1
  O  O56  1  0.96874603  0.17934383  0.30896353  1
  O  O57  1  0.21059780  0.17934383  0.80896353  1
  O  O58  1  0.98340106  0.78237876  0.80485489  1
  O  O59  1  0.80986989  0.02901011  0.80930587  1
  O  O60  1  0.76088190  0.94464518  0.68936931  1
  O  O61  1  0.17557508  0.21557086  0.68835193  1
  O  O62  1  0.03201148  0.80629216  0.69488082  1
  O  O63  1  0.77428068  0.80629216  0.19488082  1
  O  O64  1  0.03999577  0.21557086  0.18835193  1
  O  O65  1  0.18376329  0.94464518  0.18936931  1
  O  O66  1  0.87119209  0.34469613  0.63896902  1
  O  O67  1  0.47358984  0.11687432  0.63862033  1
  O  O68  1  0.64833044  0.51570023  0.64503342  1
  O  O69  1  0.86737079  0.51570023  0.14503342  1
  O  O70  1  0.64328548  0.11687432  0.13862033  1
  O  O71  1  0.47350504  0.34469613  0.13896902  1
  O  O72  1  0.47082930  0.31991482  0.02881856  1
  O  O73  1  0.83481635  0.51775490  0.02710758  1
  O  O74  1  0.67673353  0.14790528  0.02879581  1
  O  O75  1  0.47117275  0.14790528  0.52879581  1
  O  O76  1  0.68293955  0.51775490  0.52710758  1
  O  O77  1  0.84908652  0.31991482  0.52881856  1
  O  O78  1  0.54377937  0.69782930  0.98147456  1
  O  O79  1  0.14922920  0.44905341  0.98091246  1
  O  O80  1  0.30284388  0.85815801  0.98146805  1
  O  O81  1  0.55531313  0.85815801  0.48146805  1
  O  O82  1  0.29982321  0.44905341  0.48091246  1
  O  O83  1  0.15404893  0.69782930  0.48147456  1
  O  O84  1  0.13532331  0.63501074  0.36304967  1
  O  O85  1  0.49894383  0.86357819  0.36219726  1
  O  O86  1  0.36878648  0.50134883  0.36154533  1
  O  O87  1  0.13256135  0.50134883  0.86154533  1
  O  O88  1  0.36463336  0.86357819  0.86219726  1
  O  O89  1  0.49968644  0.63501074  0.86304967  1
  O  O90  1  0.00287306  0.81877570  0.41117477  1
  O  O91  1  0.81483403  0.98853940  0.41040579  1
  O  O92  1  0.17831040  0.18448150  0.41376285  1
  O  O93  1  0.00617110  0.18448150  0.91376285  1
  O  O94  1  0.17370537  0.98853940  0.91040579  1
  O  O95  1  0.81590264  0.81877570  0.91117477  1
  O  O96  1  0.97016738  0.18082901  0.58125135  1
  O  O97  1  0.21185111  0.03547282  0.58281183  1
  O  O98  1  0.84678825  0.81275625  0.58345195  1
  O  O99  1  0.96596800  0.81275625  0.08345195  1
  O  O100  1  0.82362170  0.03547282  0.08281183  1
  O  O101  1  0.21066163  0.18082901  0.08125135  1
  O  O102  1  0.67592060  0.16589229  0.74293185  1
  O  O103  1  0.48457004  0.33105086  0.74809499  1
  O  O104  1  0.86271196  0.53149693  0.74576922  1
  O  O105  1  0.66878597  0.53149693  0.24576922  1
  O  O106  1  0.84648182  0.33105086  0.24809499  1
  O  O107  1  0.48997269  0.16589229  0.24293185  1
  O  O108  1  0.62990433  0.48803957  0.92389113  1
  O  O109  1  0.85303660  0.36242481  0.92280670  1
  O  O110  1  0.51062934  0.14913013  0.92372949  1
  O  O111  1  0.63850179  0.14913013  0.42372949  1
  O  O112  1  0.50938921  0.36242481  0.42280670  1
  O  O113  1  0.85813624  0.48803957  0.42389113  1
  O  O114  1  0.36630117  0.48803197  0.08062850  1
  O  O115  1  0.14663728  0.64716366  0.08271370  1
  O  O116  1  0.51832550  0.87060428  0.07933386  1
  O  O117  1  0.35227779  0.87060428  0.57933386  1
  O  O118  1  0.50052537  0.64716366  0.58271370  1
  O  O119  1  0.12172981  0.48803197  0.58062850  1
  O  O120  1  0.32554466  0.82871059  0.25830402  1
  O  O121  1  0.52750347  0.69254674  0.25468052  1
  O  O122  1  0.18031008  0.48565675  0.25759542  1
  O  O123  1  0.30534567  0.48565675  0.75759542  1
  O  O124  1  0.16504227  0.69254674  0.75468052  1
  O  O125  1  0.50316493  0.82871059  0.75830402  1
