# generated using pymatgen
data_Na3In2(AsO4)3
_symmetry_space_group_name_H-M   'P 1'
_cell_length_a   9.12429512
_cell_length_b   9.12429512
_cell_length_c   6.86822947
_cell_angle_alpha   73.87572775
_cell_angle_beta   73.87572775
_cell_angle_gamma   92.97643089
_symmetry_Int_Tables_number   1
_chemical_formula_structural   Na3In2(AsO4)3
_chemical_formula_sum   'Na6 In4 As6 O24'
_cell_volume   522.51149472
_cell_formula_units_Z   2
loop_
 _symmetry_equiv_pos_site_id
 _symmetry_equiv_pos_as_xyz
  1  'x, y, z'
loop_
 _atom_site_type_symbol
 _atom_site_label
 _atom_site_symmetry_multiplicity
 _atom_site_fract_x
 _atom_site_fract_y
 _atom_site_fract_z
 _atom_site_occupancy
  Na  Na0  1  0.50000000  0.50000000  -0.00000000  1
  Na  Na1  1  0.27841842  0.72158158  0.75000000  1
  Na  Na2  1  0.01485287  0.98514713  0.75000000  1
  Na  Na3  1  0.98514713  0.01485287  0.25000000  1
  Na  Na4  1  0.72158158  0.27841842  0.25000000  1
  Na  Na5  1  0.50000000  0.50000000  0.50000000  1
  In  In6  1  0.37649052  0.06445256  0.85651778  1
  In  In7  1  0.06445256  0.37649052  0.35651778  1
  In  In8  1  0.62350948  0.93554744  0.14348222  1
  In  In9  1  0.93554744  0.62350948  0.64348222  1
  As  As10  1  0.86699661  0.65853479  0.13177638  1
  As  As11  1  0.72070578  0.27929422  0.75000000  1
  As  As12  1  0.65853479  0.86699661  0.63177638  1
  As  As13  1  0.27929422  0.72070578  0.25000000  1
  As  As14  1  0.13300339  0.34146521  0.86822362  1
  As  As15  1  0.34146521  0.13300339  0.36822362  1
  O  O16  1  0.15342677  0.15872422  0.38618246  1
  O  O17  1  -0.00173614  0.33019548  0.10226235  1
  O  O18  1  0.84127578  0.84657323  0.11381754  1
  O  O19  1  0.66980452  0.00173614  0.39773765  1
  O  O20  1  0.74911060  0.15998769  0.97048198  1
  O  O21  1  0.70452906  0.54453121  0.18193505  1
  O  O22  1  0.40728960  0.04936287  0.17000149  1
  O  O23  1  0.33019548  -0.00173614  0.60226235  1
  O  O24  1  0.95063713  0.59271040  0.32999851  1
  O  O25  1  0.46044774  0.73639164  0.27191889  1
  O  O26  1  0.59271040  0.95063713  0.82999851  1
  O  O27  1  0.26360836  0.53955226  0.22808111  1
  O  O28  1  0.84657323  0.84127578  0.61381754  1
  O  O29  1  0.04936387  0.40728960  0.67000149  1
  O  O30  1  0.29547094  0.45546879  0.81806495  1
  O  O31  1  0.73639164  0.46044774  0.77191889  1
  O  O32  1  0.15998769  0.74911060  0.47048198  1
  O  O33  1  0.84001231  0.25088940  0.52951802  1
  O  O34  1  0.00173614  0.66980452  0.89773765  1
  O  O35  1  0.54453121  0.70452906  0.68193505  1
  O  O36  1  0.53955226  0.26360836  0.72808111  1
  O  O37  1  0.15872422  0.15342677  0.88618246  1
  O  O38  1  0.25088940  0.84001231  0.02951802  1
  O  O39  1  0.45546879  0.29547094  0.31806495  1
