# generated using pymatgen
data_Na8Mg3Ti(PO4)6
_symmetry_space_group_name_H-M   'P 1'
_cell_length_a   8.96663404
_cell_length_b   8.96663373
_cell_length_c   22.03244442
_cell_angle_alpha   90.00000000
_cell_angle_beta   90.00000000
_cell_angle_gamma   120.00000113
_symmetry_Int_Tables_number   1
_chemical_formula_structural   Na8Mg3Ti(PO4)6
_chemical_formula_sum   'Na24 Mg9 Ti3 P18 O72'
_cell_volume   1534.09475506
_cell_formula_units_Z   3
loop_
 _symmetry_equiv_pos_site_id
 _symmetry_equiv_pos_as_xyz
  1  'x, y, z'
loop_
 _atom_site_type_symbol
 _atom_site_label
 _atom_site_symmetry_multiplicity
 _atom_site_fract_x
 _atom_site_fract_y
 _atom_site_fract_z
 _atom_site_occupancy
  Na  Na0  1  0.63489751  0.99942048  0.25211500  1
  Na  Na1  1  0.36452298  0.36510249  0.25211500  1
  Na  Na2  1  0.00057952  0.63547702  0.25211500  1
  Na  Na3  1  0.64155132  0.63446396  0.74531688  1
  Na  Na4  1  0.99291264  0.35844868  0.74531688  1
  Na  Na5  1  0.36553604  0.00708736  0.74531688  1
  Na  Na6  1  0.29809847  0.33463007  0.58127968  1
  Na  Na7  1  0.03653260  0.70190153  0.58127968  1
  Na  Na8  1  0.66536993  0.96346740  0.58127968  1
  Na  Na9  1  0.29711655  0.96365521  0.08943126  1
  Na  Na10  1  0.66653967  0.70288345  0.08943126  1
  Na  Na11  1  0.03634479  0.33346033  0.08943126  1
  Na  Na12  1  0.96971755  0.67271381  0.91504531  1
  Na  Na13  1  0.70299526  0.03028245  0.91504531  1
  Na  Na14  1  0.32728619  0.29700474  0.91504531  1
  Na  Na15  1  0.97509300  0.30098590  0.41162783  1
  Na  Na16  1  0.32589190  0.02490700  0.41162783  1
  Na  Na17  1  0.69901410  0.67410810  0.41162783  1
  Na  Na18  1  -0.00000000  -0.00000000  0.49767792  1
  Na  Na19  1  -0.00000000  -0.00000000  0.00268935  1
  Na  Na20  1  0.66666700  0.33333300  0.83009093  1
  Na  Na21  1  0.66666700  0.33333300  0.32811706  1
  Na  Na22  1  0.33333300  0.66666700  0.17240378  1
  Na  Na23  1  0.33333300  0.66666700  0.66051979  1
  Mg  Mg24  1  -0.00000000  -0.00000000  0.34761712  1
  Mg  Mg25  1  -0.00000000  -0.00000000  0.84899752  1
  Mg  Mg26  1  -0.00000000  -0.00000000  0.64840076  1
  Mg  Mg27  1  -0.00000000  -0.00000000  0.15409753  1
  Mg  Mg28  1  0.66666700  0.33333300  0.68224557  1
  Mg  Mg29  1  0.66666700  0.33333300  0.18663602  1
  Mg  Mg30  1  0.33333300  0.66666700  0.01811301  1
  Mg  Mg31  1  0.33333300  0.66666700  0.51523185  1
  Mg  Mg32  1  0.33333300  0.66666700  0.31625485  1
  Ti  Ti33  1  0.66666700  0.33333300  0.98556726  1
  Ti  Ti34  1  0.66666700  0.33333300  0.48142482  1
  Ti  Ti35  1  0.33333300  0.66666700  0.81463912  1
  P  P36  1  0.29531669  0.99904998  0.24954259  1
  P  P37  1  0.70373329  0.70468331  0.24954259  1
  P  P38  1  0.00095002  0.29626671  0.24954259  1
  P  P39  1  0.29367842  0.29502056  0.75128835  1
  P  P40  1  0.00134214  0.70632158  0.75128835  1
  P  P41  1  0.70497944  -0.00134214  0.75128835  1
  P  P42  1  0.95976986  0.33448569  0.58435500  1
  P  P43  1  0.37471683  0.04023014  0.58435500  1
  P  P44  1  0.66551431  0.62528317  0.58435500  1
  P  P45  1  0.96018526  0.62492655  0.08406099  1
  P  P46  1  0.66474228  0.03981474  0.08406099  1
  P  P47  1  0.37507345  0.33525772  0.08406099  1
  P  P48  1  0.62513807  0.66675442  0.91797870  1
  P  P49  1  0.04161535  0.37486193  0.91797870  1
  P  P50  1  0.33324558  0.95838465  0.91797870  1
  P  P51  1  0.62778968  0.96190219  0.41821431  1
  P  P52  1  0.33411151  0.37221032  0.41821431  1
  P  P53  1  0.03809781  0.66588849  0.41821431  1
  O  O54  1  0.21250020  0.02883045  0.30622197  1
  O  O55  1  0.81633025  0.78749980  0.30622197  1
  O  O56  1  0.97116955  0.18366975  0.30622197  1
  O  O57  1  0.21355252  0.18615912  0.80840236  1
  O  O58  1  0.97260660  0.78644748  0.80840236  1
  O  O59  1  0.81384088  0.02739340  0.80840236  1
  O  O60  1  0.77872086  0.95933564  0.69502002  1
  O  O61  1  0.18061478  0.22127914  0.69502002  1
  O  O62  1  0.04066436  0.81938522  0.69502002  1
  O  O63  1  0.78423759  0.81512625  0.19171158  1
  O  O64  1  0.03088866  0.21576241  0.19171158  1
  O  O65  1  0.18487375  0.96911134  0.19171158  1
  O  O66  1  0.87901235  0.36310879  0.64142939  1
  O  O67  1  0.48409744  0.12098765  0.64142939  1
  O  O68  1  0.63689121  0.51590256  0.64142939  1
  O  O69  1  0.87500359  0.51144814  0.13831684  1
  O  O70  1  0.63644555  0.12499641  0.13831684  1
  O  O71  1  0.48855186  0.36355445  0.13831684  1
  O  O72  1  0.47243390  0.31027143  0.02544522  1
  O  O73  1  0.83783853  0.52756610  0.02544522  1
  O  O74  1  0.68972857  0.16216147  0.02544522  1
  O  O75  1  0.47016746  0.16015655  0.52815874  1
  O  O76  1  0.68999009  0.52983254  0.52815874  1
  O  O77  1  0.83984345  0.31000991  0.52815874  1
  O  O78  1  0.54355746  0.69537352  0.97304969  1
  O  O79  1  0.15181507  0.45644254  0.97304969  1
  O  O80  1  0.30462648  0.84818493  0.97304969  1
  O  O81  1  0.54747343  0.85259517  0.47517716  1
  O  O82  1  0.30512075  0.45252657  0.47517716  1
  O  O83  1  0.14740483  0.69487925  0.47517716  1
  O  O84  1  0.11189093  0.62645984  0.36194877  1
  O  O85  1  0.51456791  0.88810907  0.36194877  1
  O  O86  1  0.37354016  0.48543209  0.36194877  1
  O  O87  1  0.13108246  0.49396840  0.86062581  1
  O  O88  1  0.36288494  0.86891754  0.86062581  1
  O  O89  1  0.50603160  0.63711506  0.86062581  1
  O  O90  1  0.01168334  0.82317660  0.41245503  1
  O  O91  1  0.81149325  0.98831666  0.41245503  1
  O  O92  1  0.17682340  0.18850675  0.41245503  1
  O  O93  1  0.01726358  0.19299047  0.91001815  1
  O  O94  1  0.17572689  0.98273642  0.91001815  1
  O  O95  1  0.80700953  0.82427311  0.91001815  1
  O  O96  1  0.97206549  0.16848612  0.58644467  1
  O  O97  1  0.19642062  0.02793451  0.58644467  1
  O  O98  1  0.83151388  0.80357938  0.58644467  1
  O  O99  1  0.97130523  0.80234000  0.08331703  1
  O  O100  1  0.83103476  0.02869477  0.08331703  1
  O  O101  1  0.19766000  0.16896524  0.08331703  1
  O  O102  1  0.67849679  0.15612454  0.74591755  1
  O  O103  1  0.47762875  0.32150321  0.74591755  1
  O  O104  1  0.84387546  0.52237125  0.74591755  1
  O  O105  1  0.68547582  0.52320288  0.24459817  1
  O  O106  1  0.83772805  0.31452418  0.24459817  1
  O  O107  1  0.47679712  0.16227195  0.24459817  1
  O  O108  1  0.63942508  0.49840481  0.92081258  1
  O  O109  1  0.85898074  0.36057492  0.92081258  1
  O  O110  1  0.50159519  0.14101926  0.92081258  1
  O  O111  1  0.64738651  0.14897440  0.42628261  1
  O  O112  1  0.50158889  0.35261349  0.42628261  1
  O  O113  1  0.85102560  0.49841111  0.42628261  1
  O  O114  1  0.35678820  0.49524088  0.07539592  1
  O  O115  1  0.13845168  0.64321180  0.07539592  1
  O  O116  1  0.50475912  0.86154832  0.07539592  1
  O  O117  1  0.35517948  0.85993117  0.57764648  1
  O  O118  1  0.50475069  0.64482052  0.57764648  1
  O  O119  1  0.14006883  0.49524931  0.57764648  1
  O  O120  1  0.31374827  0.83621925  0.25496612  1
  O  O121  1  0.52246998  0.68625173  0.25496612  1
  O  O122  1  0.16378075  0.47753002  0.25496612  1
  O  O123  1  0.31331693  0.48219296  0.75947416  1
  O  O124  1  0.16887503  0.68668307  0.75947416  1
  O  O125  1  0.51780704  0.83112497  0.75947416  1
