# generated using pymatgen
data_MgCr2(SbO3)4
_symmetry_space_group_name_H-M   'P 1'
_cell_length_a   5.01887247
_cell_length_b   5.01493213
_cell_length_c   9.59847449
_cell_angle_alpha   90.00794909
_cell_angle_beta   90.00200843
_cell_angle_gamma   90.95536294
_symmetry_Int_Tables_number   1
_chemical_formula_structural   MgCr2(SbO3)4
_chemical_formula_sum   'Mg1 Cr2 Sb4 O12'
_cell_volume   241.55334438
_cell_formula_units_Z   1
loop_
 _symmetry_equiv_pos_site_id
 _symmetry_equiv_pos_as_xyz
  1  'x, y, z'
loop_
 _atom_site_type_symbol
 _atom_site_label
 _atom_site_symmetry_multiplicity
 _atom_site_fract_x
 _atom_site_fract_y
 _atom_site_fract_z
 _atom_site_occupancy
  Mg  Mg0  1  0.00000800  0.50001700  0.98905800  1
  Cr  Cr1  1  0.00008600  0.00002500  0.00535600  1
  Cr  Cr2  1  0.49994600  0.49991400  0.49257300  1
  Sb  Sb3  1  0.99993200  0.99997500  0.33964300  1
  Sb  Sb4  1  0.49996900  0.50008900  0.80953200  1
  Sb  Sb5  1  0.50003200  0.49999900  0.16685700  1
  Sb  Sb6  1  0.99996000  0.99999300  0.66714700  1
  O  O7  1  0.14050500  0.78816600  0.83632100  1
  O  O8  1  0.18562200  0.80002000  0.51137500  1
  O  O9  1  0.18316500  0.74324300  0.13742700  1
  O  O10  1  0.33533100  0.30920000  0.33152800  1
  O  O11  1  0.30995600  0.27172800  0.01519300  1
  O  O12  1  0.30909600  0.28246700  0.65174500  1
  O  O13  1  0.66464400  0.69063600  0.33160200  1
  O  O14  1  0.69013500  0.72839700  0.01525900  1
  O  O15  1  0.69077500  0.71759000  0.65172900  1
  O  O16  1  0.85962200  0.21172000  0.83635500  1
  O  O17  1  0.81422900  0.19994600  0.51140300  1
  O  O18  1  0.81698700  0.25687500  0.13739600  1
