# generated using pymatgen
data_K6Mg(SbO4)2
_symmetry_space_group_name_H-M   'P 1'
_cell_length_a   6.38380259
_cell_length_b   6.66149760
_cell_length_c   7.93561431
_cell_angle_alpha   82.38468291
_cell_angle_beta   91.29660891
_cell_angle_gamma   103.62540635
_symmetry_Int_Tables_number   1
_chemical_formula_structural   K6Mg(SbO4)2
_chemical_formula_sum   'K6 Mg1 Sb2 O8'
_cell_volume   325.06439814
_cell_formula_units_Z   1
loop_
 _symmetry_equiv_pos_site_id
 _symmetry_equiv_pos_as_xyz
  1  'x, y, z'
loop_
 _atom_site_type_symbol
 _atom_site_label
 _atom_site_symmetry_multiplicity
 _atom_site_fract_x
 _atom_site_fract_y
 _atom_site_fract_z
 _atom_site_occupancy
  K  K0  1  0.68118330  0.89513920  0.32519106  1
  K  K1  1  0.33408002  0.09194285  0.63948090  1
  K  K2  1  0.28186743  0.50295228  0.36009491  1
  K  K3  1  0.86560609  0.68091538  0.66240144  1
  K  K4  1  0.20301361  0.01772624  0.15041158  1
  K  K5  1  0.78620116  0.05263561  0.87973017  1
  Mg  Mg6  1  0.83040401  0.29412726  0.41233095  1
  Sb  Sb7  1  0.76316823  0.49009025  0.11340286  1
  Sb  Sb8  1  0.34114389  0.53180982  0.88970647  1
  O  O9  1  0.97499591  0.70859986  0.97630156  1
  O  O10  1  0.58669932  0.37147589  0.90680935  1
  O  O11  1  0.54557104  0.27424076  0.29106329  1
  O  O12  1  0.88469028  0.60206383  0.33509872  1
  O  O13  1  0.43451227  0.72525336  0.68409866  1
  O  O14  1  0.94875285  0.12181512  0.57432975  1
  O  O15  1  0.93467373  0.27240086  0.16320838  1
  O  O16  1  0.52010385  0.67681143  0.07383998  1
