# generated using pymatgen
data_Rb2CdO2
_symmetry_space_group_name_H-M   'P 1'
_cell_length_a   6.29971944
_cell_length_b   6.39054469
_cell_length_c   10.57636650
_cell_angle_alpha   90.00000000
_cell_angle_beta   90.00000000
_cell_angle_gamma   90.00000000
_symmetry_Int_Tables_number   1
_chemical_formula_structural   Rb2CdO2
_chemical_formula_sum   'Rb8 Cd4 O8'
_cell_volume   425.79011679
_cell_formula_units_Z   4
loop_
 _symmetry_equiv_pos_site_id
 _symmetry_equiv_pos_as_xyz
  1  'x, y, z'
loop_
 _atom_site_type_symbol
 _atom_site_label
 _atom_site_symmetry_multiplicity
 _atom_site_fract_x
 _atom_site_fract_y
 _atom_site_fract_z
 _atom_site_occupancy
  Rb  Rb0  1  0.39751843  0.10867858  0.65576498  1
  Rb  Rb1  1  0.60248157  0.39132142  0.15576498  1
  Rb  Rb2  1  0.89751843  0.89132142  0.65576498  1
  Rb  Rb3  1  0.10248157  0.60867858  0.15576498  1
  Rb  Rb4  1  0.60248157  0.89132142  0.34423502  1
  Rb  Rb5  1  0.39751843  0.60867858  0.84423502  1
  Rb  Rb6  1  0.89751843  0.39132142  0.84423502  1
  Rb  Rb7  1  0.10248157  0.10867858  0.34423502  1
  Cd  Cd8  1  0.75000000  0.46388086  0.50000000  1
  Cd  Cd9  1  0.25000000  0.53611914  0.50000000  1
  Cd  Cd10  1  0.75000000  0.96388086  0.00000000  1
  Cd  Cd11  1  0.25000000  0.03611914  0.00000000  1
  O  O12  1  0.51764291  0.18996195  0.90402352  1
  O  O13  1  0.01764291  0.81003805  0.90402352  1
  O  O14  1  0.51764291  0.68996195  0.59597648  1
  O  O15  1  0.48235709  0.31003805  0.40402352  1
  O  O16  1  0.48235709  0.81003805  0.09597648  1
  O  O17  1  0.98235709  0.18996195  0.09597648  1
  O  O18  1  0.01764291  0.31003805  0.59597648  1
  O  O19  1  0.98235709  0.68996195  0.40402352  1
