# generated using pymatgen
data_Na10Sc4Ti4Si7S5O48
_symmetry_space_group_name_H-M   'P 1'
_cell_length_a   17.97190329
_cell_length_b   9.01214781
_cell_length_c   22.45257621
_cell_angle_alpha   90.01980100
_cell_angle_beta   88.42494426
_cell_angle_gamma   119.99191005
_symmetry_Int_Tables_number   1
_chemical_formula_structural   Na10Sc4Ti4Si7S5O48
_chemical_formula_sum   'Na30 Sc12 Ti12 Si21 S15 O144'
_cell_volume   3148.02729544
_cell_formula_units_Z   3
loop_
 _symmetry_equiv_pos_site_id
 _symmetry_equiv_pos_as_xyz
  1  'x, y, z'
loop_
 _atom_site_type_symbol
 _atom_site_label
 _atom_site_symmetry_multiplicity
 _atom_site_fract_x
 _atom_site_fract_y
 _atom_site_fract_z
 _atom_site_occupancy
  Na  Na0  1  0.18518962  0.36922952  0.24278979  1
  Na  Na1  1  0.68532793  0.36994249  0.24340741  1
  Na  Na2  1  0.99368688  0.63037096  0.25315931  1
  Na  Na3  1  0.49430050  0.63025211  0.25290252  1
  Na  Na4  1  0.49400843  0.35509131  0.75678261  1
  Na  Na5  1  0.18487700  0.00061591  0.74601395  1
  Na  Na6  1  0.68558915  0.00142492  0.74522838  1
  Na  Na7  1  0.65552791  0.34163293  0.58137337  1
  Na  Na8  1  0.01877204  0.70399918  0.57945117  1
  Na  Na9  1  0.82769471  0.96209825  0.58924956  1
  Na  Na10  1  0.48832698  0.67271590  0.91510772  1
  Na  Na11  1  0.99046820  0.67433352  0.91469822  1
  Na  Na12  1  0.85266818  0.03583640  0.91071442  1
  Na  Na13  1  0.15908155  0.29730554  0.92147520  1
  Na  Na14  1  0.48927473  0.30815869  0.41417785  1
  Na  Na15  1  0.98626261  0.30338052  0.41376550  1
  Na  Na16  1  0.35209798  0.66865612  0.41022047  1
  Na  Na17  1  0.85275995  0.66939559  0.41182708  1
  Na  Na18  1  0.02000797  0.01064184  0.49848331  1
  Na  Na19  1  0.51275171  0.99153554  0.49793854  1
  Na  Na20  1  0.00927497  0.01215816  0.00270561  1
  Na  Na21  1  0.51081681  0.03060026  0.99693147  1
  Na  Na22  1  0.34050574  0.33259356  0.83253006  1
  Na  Na23  1  0.84301476  0.34241650  0.82684735  1
  Na  Na24  1  0.33501102  0.32591369  0.32932118  1
  Na  Na25  1  0.83416754  0.32460606  0.33198627  1
  Na  Na26  1  0.17568061  0.66581622  0.16097252  1
  Na  Na27  1  0.67554106  0.66663914  0.16115861  1
  Na  Na28  1  0.17521367  0.67194884  0.66898512  1
  Na  Na29  1  0.67361443  0.68158223  0.66576950  1
  Sc  Sc30  1  0.00057771  0.99585020  0.35246084  1
  Sc  Sc31  1  0.50123480  0.99785124  0.35177072  1
  Sc  Sc32  1  0.99794422  0.99970671  0.85022519  1
  Sc  Sc33  1  0.49615758  0.00554921  0.85453601  1
  Sc  Sc34  1  0.33221756  0.32506954  0.68644792  1
  Sc  Sc35  1  0.83426085  0.33242790  0.68651756  1
  Sc  Sc36  1  0.33332772  0.34297100  0.18428560  1
  Sc  Sc37  1  0.83321259  0.34208468  0.18449413  1
  Sc  Sc38  1  0.16022871  0.64956240  0.01925746  1
  Sc  Sc39  1  0.65811601  0.64717970  0.01983819  1
  Sc  Sc40  1  0.16366667  0.67189244  0.51798702  1
  Sc  Sc41  1  0.65975302  0.66978439  0.51960655  1
  Ti  Ti42  1  0.99659853  0.97590532  0.64840467  1
  Ti  Ti43  1  0.49625239  0.97270334  0.64943743  1
  Ti  Ti44  1  0.99853628  0.02123575  0.14736573  1
  Ti  Ti45  1  0.49822413  0.01937238  0.14748388  1
  Ti  Ti46  1  0.32645638  0.30851948  0.97814053  1
  Ti  Ti47  1  0.82164162  0.31647069  0.97806221  1
  Ti  Ti48  1  0.32383989  0.33138036  0.47777934  1
  Ti  Ti49  1  0.82572283  0.34874941  0.47976328  1
  Ti  Ti50  1  0.16219048  0.63810743  0.31227374  1
  Ti  Ti51  1  0.66182200  0.63879691  0.31286598  1
  Ti  Ti52  1  0.15957879  0.68305642  0.81203327  1
  Ti  Ti53  1  0.66303355  0.68777810  0.81310840  1
  Si  Si54  1  0.35359889  0.71637489  0.25096239  1
  Si  Si55  1  0.85374272  0.71657714  0.25076085  1
  Si  Si56  1  0.99635284  0.28972028  0.25329845  1
  Si  Si57  1  0.49649529  0.29054325  0.25302133  1
  Si  Si58  1  0.99620401  0.69857112  0.75290013  1
  Si  Si59  1  0.49698380  0.70223696  0.75447037  1
  Si  Si60  1  0.35285843  0.99066356  0.74999301  1
  Si  Si61  1  0.85237742  0.99409428  0.75190567  1
  Si  Si62  1  0.18613356  0.04115073  0.58671465  1
  Si  Si63  1  0.68525748  0.04406622  0.58609384  1
  Si  Si64  1  0.83235695  0.62746996  0.58428464  1
  Si  Si65  1  0.18576335  0.32989906  0.08550318  1
  Si  Si66  1  0.68393689  0.32942447  0.08731962  1
  Si  Si67  1  0.01927136  0.37595710  0.91726695  1
  Si  Si68  1  0.51947393  0.37486718  0.91695000  1
  Si  Si69  1  0.16658796  0.95781450  0.91831810  1
  Si  Si70  1  0.66414354  0.95755495  0.91998742  1
  Si  Si71  1  0.16445238  0.37061190  0.41899666  1
  Si  Si72  1  0.66430293  0.36810731  0.41993086  1
  Si  Si73  1  0.01929977  0.66320974  0.41807918  1
  Si  Si74  1  0.51900363  0.66479705  0.41697260  1
  S  S75  1  0.14542335  0.99576734  0.24797700  1
  S  S76  1  0.64545937  0.99560835  0.24772619  1
  S  S77  1  0.14464182  0.29699500  0.74829810  1
  S  S78  1  0.64372578  0.29149806  0.74796552  1
  S  S79  1  0.47716555  0.32532947  0.58222927  1
  S  S80  1  0.97987540  0.32965267  0.58112770  1
  S  S81  1  0.33482391  0.62557784  0.58204605  1
  S  S82  1  0.47923371  0.63349834  0.08270044  1
  S  S83  1  0.97913828  0.63218610  0.08207656  1
  S  S84  1  0.33474930  0.04437107  0.08365916  1
  S  S85  1  0.83467209  0.04452774  0.08241168  1
  S  S86  1  0.31006484  0.66165095  0.91697212  1
  S  S87  1  0.80911433  0.65856680  0.91698737  1
  S  S88  1  0.30996060  0.96134954  0.41603990  1
  S  S89  1  0.80973626  0.95918503  0.41618986  1
  O  O90  1  0.10780718  0.02768010  0.30255767  1
  O  O91  1  0.60798211  0.02796154  0.30242097  1
  O  O92  1  0.41065565  0.78772466  0.30985734  1
  O  O93  1  0.91125781  0.78773678  0.30951227  1
  O  O94  1  0.48792109  0.18636576  0.31311824  1
  O  O95  1  0.98855299  0.18623889  0.31325213  1
  O  O96  1  0.10794042  0.19424942  0.80474515  1
  O  O97  1  0.60280998  0.18293862  0.80114238  1
  O  O98  1  0.48847741  0.79092635  0.81363454  1
  O  O99  1  0.99153602  0.79229486  0.81286355  1
  O  O100  1  0.41780790  0.04263030  0.80377872  1
  O  O101  1  0.90563725  0.01977436  0.81154845  1
  O  O102  1  0.40775767  0.97250839  0.69083098  1
  O  O103  1  0.90632267  0.97753426  0.69232199  1
  O  O104  1  0.09076541  0.20556151  0.69744741  1
  O  O105  1  0.59165052  0.21048295  0.69372797  1
  O  O106  1  0.01425021  0.82776562  0.69271493  1
  O  O107  1  0.51527747  0.83268876  0.69458495  1
  O  O108  1  0.40956999  0.84347733  0.19381095  1
  O  O109  1  0.91018172  0.84475622  0.19361078  1
  O  O110  1  0.01676052  0.19832526  0.19472679  1
  O  O111  1  0.51607167  0.19711315  0.19476833  1
  O  O112  1  0.09059394  0.97157617  0.19610562  1
  O  O113  1  0.59047943  0.97128240  0.19610452  1
  O  O114  1  0.43625649  0.34554655  0.63682703  1
  O  O115  1  0.93771435  0.35509053  0.63392788  1
  O  O116  1  0.23953187  0.12898755  0.64497960  1
  O  O117  1  0.74009422  0.12148288  0.64517195  1
  O  O118  1  0.32492600  0.52104579  0.63470942  1
  O  O119  1  0.81805419  0.49911723  0.63773947  1
  O  O120  1  0.43800563  0.52978014  0.13793418  1
  O  O121  1  0.93783606  0.52970368  0.13731306  1
  O  O122  1  0.32506693  0.12677231  0.13677682  1
  O  O123  1  0.82584288  0.13016262  0.13523136  1
  O  O124  1  0.23676676  0.34199992  0.14511698  1
  O  O125  1  0.73572733  0.34182470  0.14648448  1
  O  O126  1  0.23972943  0.30736428  0.02632450  1
  O  O127  1  0.74023888  0.30727104  0.02880676  1
  O  O128  1  0.42874530  0.54389395  0.02991918  1
  O  O129  1  0.92866520  0.54286475  0.02908323  1
  O  O130  1  0.34691961  0.15137637  0.02847272  1
  O  O131  1  0.84689302  0.14832004  0.02643310  1
  O  O132  1  0.24253571  0.17265221  0.52787493  1
  O  O133  1  0.73995000  0.18266486  0.52882789  1
  O  O134  1  0.34672721  0.54580207  0.52577875  1
  O  O135  1  0.85000870  0.54170504  0.52178639  1
  O  O136  1  0.42801311  0.31465614  0.52873110  1
  O  O137  1  0.92923301  0.30830290  0.52688879  1
  O  O138  1  0.27078120  0.68338465  0.97170964  1
  O  O139  1  0.77040399  0.68531642  0.97105809  1
  O  O140  1  0.08290152  0.45516175  0.97209447  1
  O  O141  1  0.57693667  0.46471858  0.97327045  1
  O  O142  1  0.15174195  0.83342410  0.97316551  1
  O  O143  1  0.65754706  0.83921399  0.97451907  1
  O  O144  1  0.27118383  0.85887205  0.47043944  1
  O  O145  1  0.77227307  0.85874125  0.47178092  1
  O  O146  1  0.15628351  0.47427116  0.47377595  1
  O  O147  1  0.65386571  0.45956028  0.47832468  1
  O  O148  1  0.07282614  0.68894224  0.47751707  1
  O  O149  1  0.57733550  0.69196586  0.47275124  1
  O  O150  1  0.07283457  0.63976827  0.35951111  1
  O  O151  1  0.56742601  0.63434472  0.35679354  1
  O  O152  1  0.25898865  0.88227932  0.36343306  1
  O  O153  1  0.75745177  0.87351850  0.36434676  1
  O  O154  1  0.18373590  0.49171175  0.35652812  1
  O  O155  1  0.68058417  0.49264413  0.35863580  1
  O  O156  1  0.07082896  0.51032792  0.85965595  1
  O  O157  1  0.56727251  0.50506724  0.85689192  1
  O  O158  1  0.18063074  0.87346867  0.85519572  1
  O  O159  1  0.68457178  0.87599915  0.85705844  1
  O  O160  1  0.25760181  0.63711836  0.86438935  1
  O  O161  1  0.75922218  0.63632267  0.86398693  1
  O  O162  1  0.99864448  0.81835415  0.41305279  1
  O  O163  1  0.49616605  0.81708991  0.41238835  1
  O  O164  1  0.39743427  0.98114561  0.41110604  1
  O  O165  1  0.89695501  0.97660872  0.41084574  1
  O  O166  1  0.07986810  0.18599047  0.41362218  1
  O  O167  1  0.57919720  0.18406304  0.41305074  1
  O  O168  1  0.00285801  0.18156189  0.91122223  1
  O  O169  1  0.50244275  0.18292134  0.91190278  1
  O  O170  1  0.08555256  0.99073983  0.91278443  1
  O  O171  1  0.57996587  0.97362290  0.91342994  1
  O  O172  1  0.39805271  0.80910924  0.91193017  1
  O  O173  1  0.89787276  0.81265930  0.91224151  1
  O  O174  1  0.48640393  0.17059042  0.58573489  1
  O  O175  1  0.98622023  0.17213183  0.58713405  1
  O  O176  1  0.09056932  0.02740940  0.58967421  1
  O  O177  1  0.59165628  0.04008949  0.58994728  1
  O  O178  1  0.41628255  0.79715062  0.58557192  1
  O  O179  1  0.92200526  0.81669640  0.58939037  1
  O  O180  1  0.48494386  0.80325230  0.08729294  1
  O  O181  1  0.98509464  0.80238764  0.08625970  1
  O  O182  1  0.41595361  0.03455459  0.08645378  1
  O  O183  1  0.91628496  0.03463216  0.08600565  1
  O  O184  1  0.08950438  0.14958449  0.09036390  1
  O  O185  1  0.58868148  0.14902829  0.09099413  1
  O  O186  1  0.33661803  0.15425758  0.74296313  1
  O  O187  1  0.83048680  0.14765168  0.74566893  1
  O  O188  1  0.23124745  0.31333417  0.74225439  1
  O  O189  1  0.72945553  0.30933081  0.74295131  1
  O  O190  1  0.42019672  0.50937328  0.74443559  1
  O  O191  1  0.91560543  0.51165949  0.74574300  1
  O  O192  1  0.33690457  0.52032085  0.24355346  1
  O  O193  1  0.83725236  0.52069839  0.24313659  1
  O  O194  1  0.41928231  0.32937857  0.24433579  1
  O  O195  1  0.91945522  0.32940539  0.24430262  1
  O  O196  1  0.23216278  0.14696952  0.24160962  1
  O  O197  1  0.73228168  0.14689448  0.24140717  1
  O  O198  1  0.31809560  0.50181925  0.92173799  1
  O  O199  1  0.82265936  0.50690171  0.92353694  1
  O  O200  1  0.42589454  0.37484320  0.92634283  1
  O  O201  1  0.92560661  0.36921607  0.92564441  1
  O  O202  1  0.25486260  0.15220379  0.92343418  1
  O  O203  1  0.75588629  0.14785528  0.92530853  1
  O  O204  1  0.32311768  0.13926409  0.42239399  1
  O  O205  1  0.82289714  0.13562989  0.42118445  1
  O  O206  1  0.25601767  0.36447382  0.42427428  1
  O  O207  1  0.75653005  0.36588717  0.42131928  1
  O  O208  1  0.42435050  0.47992413  0.42466232  1
  O  O209  1  0.92601050  0.47733052  0.42178370  1
  O  O210  1  0.17506108  0.49723757  0.08050836  1
  O  O211  1  0.67470351  0.49725476  0.08126920  1
  O  O212  1  0.06582715  0.65180361  0.07937030  1
  O  O213  1  0.56618031  0.65436983  0.08044790  1
  O  O214  1  0.25969913  0.87285223  0.07815704  1
  O  O215  1  0.76027540  0.87251441  0.07848412  1
  O  O216  1  0.16880289  0.84600176  0.58068875  1
  O  O217  1  0.67678021  0.85827148  0.57804058  1
  O  O218  1  0.26015704  0.64877765  0.57768760  1
  O  O219  1  0.75066034  0.65530830  0.57876631  1
  O  O220  1  0.06621203  0.48415031  0.57743434  1
  O  O221  1  0.56530200  0.47816171  0.58008883  1
  O  O222  1  0.15039245  0.83688661  0.25403590  1
  O  O223  1  0.65058037  0.83719254  0.25394328  1
  O  O224  1  0.25736783  0.69877159  0.25654506  1
  O  O225  1  0.75739825  0.69818493  0.25672608  1
  O  O226  1  0.08848648  0.48174138  0.25579844  1
  O  O227  1  0.58884626  0.48173088  0.25561615  1
  O  O228  1  0.15382122  0.46774008  0.75344440  1
  O  O229  1  0.64944849  0.46110712  0.75327462  1
  O  O230  1  0.09009866  0.69981042  0.75419312  1
  O  O231  1  0.58941614  0.69639520  0.75493723  1
  O  O232  1  0.25805223  0.81660142  0.75537136  1
  O  O233  1  0.75695899  0.81267498  0.75670586  1
