# generated using pymatgen
data_MgFe12(OF)12
_symmetry_space_group_name_H-M   'P 1'
_cell_length_a   9.68585300
_cell_length_b   14.67435808
_cell_length_c   3.06883515
_cell_angle_alpha   89.94192080
_cell_angle_beta   89.92622162
_cell_angle_gamma   90.48169105
_symmetry_Int_Tables_number   1
_chemical_formula_structural   MgFe12(OF)12
_chemical_formula_sum   'Mg1 Fe12 O12 F12'
_cell_volume   436.16881315
_cell_formula_units_Z   1
loop_
 _symmetry_equiv_pos_site_id
 _symmetry_equiv_pos_as_xyz
  1  'x, y, z'
loop_
 _atom_site_type_symbol
 _atom_site_label
 _atom_site_symmetry_multiplicity
 _atom_site_fract_x
 _atom_site_fract_y
 _atom_site_fract_z
 _atom_site_occupancy
  Mg  Mg0  1  0.48568400  0.82693200  0.48373400  1
  Fe  Fe1  1  0.99640500  0.02011700  0.00273500  1
  Fe  Fe2  1  0.02562600  0.33343200  0.99578000  1
  Fe  Fe3  1  0.00123600  0.65651200  0.99919900  1
  Fe  Fe4  1  0.23009200  0.16842100  0.49844000  1
  Fe  Fe5  1  0.25267600  0.48423900  0.49344900  1
  Fe  Fe6  1  0.20909000  0.85835600  0.49591900  1
  Fe  Fe7  1  0.49656500  0.34331700  0.99236700  1
  Fe  Fe8  1  0.52645200  0.01455000  0.99365200  1
  Fe  Fe9  1  0.53447200  0.64936500  0.98579300  1
  Fe  Fe10  1  0.75310900  0.16265900  0.49717400  1
  Fe  Fe11  1  0.73720300  0.48597500  0.48847100  1
  Fe  Fe12  1  0.75589700  0.83434500  0.50476000  1
  O  O13  1  0.10209000  0.27215200  0.49592400  1
  O  O14  1  0.08354600  0.94849500  0.50251200  1
  O  O15  1  0.15722600  0.10703800  0.99894900  1
  O  O16  1  0.15059200  0.43918200  0.99384400  1
  O  O17  1  0.34443700  0.87441400  0.99273600  1
  O  O18  1  0.40251700  0.39481300  0.49249400  1
  O  O19  1  0.59027800  0.94375400  0.49367900  1
  O  O20  1  0.62037500  0.59440500  0.48595000  1
  O  O21  1  0.64963500  0.11565700  0.99696800  1
  O  O22  1  0.65851000  0.42615800  0.98901200  1
  O  O23  1  0.61193900  0.77447800  0.98810000  1
  O  O24  1  0.89931300  0.07738200  0.50223300  1
  F  F25  1  0.12244700  0.60085200  0.49750900  1
  F  F26  1  0.12581500  0.77429300  0.99939000  1
  F  F27  1  0.35559900  0.23027900  0.99563900  1
  F  F28  1  0.36111600  0.55597500  0.99078700  1
  F  F29  1  0.40091900  0.06811300  0.49621000  1
  F  F30  1  0.40157200  0.70400300  0.48804200  1
  F  F31  1  0.59601500  0.27053900  0.49381300  1
  F  F32  1  0.84494100  0.24324300  0.99705300  1
  F  F33  1  0.85296700  0.90508500  0.00789300  1
  F  F34  1  0.85967000  0.55028300  0.98870600  1
  F  F35  1  0.90726800  0.39678400  0.49288400  1
  F  F36  1  0.88956400  0.72310200  0.50070100  1
