# generated using pymatgen
data_Sc3TaSiS5O24
_symmetry_space_group_name_H-M   'P 1'
_cell_length_a   8.88054728
_cell_length_b   8.88714187
_cell_length_c   22.84885331
_cell_angle_alpha   90.20946172
_cell_angle_beta   90.06614384
_cell_angle_gamma   120.04713154
_symmetry_Int_Tables_number   1
_chemical_formula_structural   Sc3TaSiS5O24
_chemical_formula_sum   'Sc9 Ta3 Si3 S15 O72'
_cell_volume   1560.93545804
_cell_formula_units_Z   3
loop_
 _symmetry_equiv_pos_site_id
 _symmetry_equiv_pos_as_xyz
  1  'x, y, z'
loop_
 _atom_site_type_symbol
 _atom_site_label
 _atom_site_symmetry_multiplicity
 _atom_site_fract_x
 _atom_site_fract_y
 _atom_site_fract_z
 _atom_site_occupancy
  Sc  Sc0  1  0.01209773  0.00329391  0.35243436  1
  Sc  Sc1  1  0.99295177  0.99884840  0.85913256  1
  Sc  Sc2  1  0.99910492  0.99888206  0.64620903  1
  Sc  Sc3  1  0.00950713  0.99682971  0.14356427  1
  Sc  Sc4  1  0.66811077  0.33369854  0.68868000  1
  Sc  Sc5  1  0.65670703  0.32351354  0.18832396  1
  Sc  Sc6  1  0.66579283  0.33260249  0.47849649  1
  Sc  Sc7  1  0.33707752  0.65982593  0.02016455  1
  Sc  Sc8  1  0.33336789  0.66594217  0.52277654  1
  Ta  Ta9  1  0.67303709  0.33909208  0.97540701  1
  Ta  Ta10  1  0.33389609  0.67088147  0.30848583  1
  Ta  Ta11  1  0.33035654  0.65716321  0.81570062  1
  Si  Si12  1  0.28994544  0.00686757  0.24905084  1
  Si  Si13  1  0.62387599  0.66921096  0.91893432  1
  Si  Si14  1  0.04661121  0.37560745  0.91875557  1
  S  S15  1  0.71238157  0.71072176  0.25032218  1
  S  S16  1  0.99838970  0.28820053  0.25046174  1
  S  S17  1  0.29009436  0.28996928  0.75018640  1
  S  S18  1  0.00234943  0.71108061  0.75002120  1
  S  S19  1  0.70770621  0.99883516  0.74997265  1
  S  S20  1  0.95573037  0.33241890  0.58332977  1
  S  S21  1  0.37688978  0.04431367  0.58335053  1
  S  S22  1  0.66723004  0.62267262  0.58343605  1
  S  S23  1  0.95538643  0.62078780  0.08389755  1
  S  S24  1  0.66657643  0.04428134  0.08321205  1
  S  S25  1  0.37876957  0.33367757  0.08326124  1
  S  S26  1  0.33372169  0.95437656  0.91764330  1
  S  S27  1  0.62201888  0.95381015  0.41691697  1
  S  S28  1  0.33324372  0.37914646  0.41702772  1
  S  S29  1  0.04551170  0.66624896  0.41689271  1
  O  O30  1  0.20026035  0.02762075  0.30780716  1
  O  O31  1  0.81461807  0.79098643  0.30363868  1
  O  O32  1  0.97116651  0.18386065  0.30343263  1
  O  O33  1  0.21369996  0.18445630  0.80165797  1
  O  O34  1  0.97303464  0.78849124  0.80163805  1
  O  O35  1  0.81668707  0.03015466  0.80131377  1
  O  O36  1  0.78614885  0.96715243  0.69693409  1
  O  O37  1  0.18061555  0.21371958  0.69698013  1
  O  O38  1  0.03145526  0.81961813  0.69688376  1
  O  O39  1  0.77933046  0.82023543  0.19848726  1
  O  O40  1  0.03652440  0.21774993  0.19841366  1
  O  O41  1  0.16350866  0.96030390  0.19304298  1
  O  O42  1  0.87565490  0.36294359  0.63551653  1
  O  O43  1  0.48756686  0.12488301  0.63564636  1
  O  O44  1  0.63723541  0.51280858  0.63549811  1
  O  O45  1  0.87262354  0.51245905  0.13547789  1
  O  O46  1  0.64144292  0.12854501  0.13551247  1
  O  O47  1  0.48830821  0.36158728  0.13555523  1
  O  O48  1  0.46434545  0.30470355  0.03072679  1
  O  O49  1  0.83811855  0.53076556  0.03018580  1
  O  O50  1  0.69194771  0.15877240  0.03042119  1
  O  O51  1  0.45807749  0.15401216  0.53076845  1
  O  O52  1  0.69620698  0.54166392  0.53063033  1
  O  O53  1  0.84539637  0.30351618  0.53058688  1
  O  O54  1  0.53499458  0.70051104  0.97396577  1
  O  O55  1  0.16164102  0.47059540  0.97429080  1
  O  O56  1  0.30523251  0.84916879  0.96920233  1
  O  O57  1  0.53823797  0.84418168  0.46866723  1
  O  O58  1  0.30695215  0.46251024  0.46925093  1
  O  O59  1  0.15629158  0.69493075  0.46883262  1
  O  O60  1  0.13298426  0.63798821  0.36395583  1
  O  O61  1  0.50547057  0.86514179  0.36366515  1
  O  O62  1  0.36090526  0.49152310  0.36427984  1
  O  O63  1  0.13680970  0.50654350  0.85916610  1
  O  O64  1  0.36765069  0.87397072  0.86328770  1
  O  O65  1  0.49416994  0.63503922  0.85934597  1
  O  O66  1  0.02507101  0.81802186  0.40844450  1
  O  O67  1  0.79224533  0.97195252  0.40729248  1
  O  O68  1  0.17760349  0.20813336  0.40935218  1
  O  O69  1  0.02438742  0.19181097  0.90462371  1
  O  O70  1  0.18655804  0.97805734  0.90636902  1
  O  O71  1  0.81196482  0.82443267  0.90481147  1
  O  O72  1  0.97475457  0.17785228  0.59178422  1
  O  O73  1  0.20312181  0.02533960  0.59179906  1
  O  O74  1  0.82222407  0.79679047  0.59175803  1
  O  O75  1  0.96348221  0.79045203  0.08829170  1
  O  O76  1  0.82359563  0.03037980  0.09048425  1
  O  O77  1  0.20555643  0.17719323  0.08950241  1
  O  O78  1  0.68663322  0.15247255  0.74016846  1
  O  O79  1  0.46630716  0.31600397  0.74042811  1
  O  O80  1  0.84943647  0.53519913  0.74020580  1
  O  O81  1  0.68710662  0.53699579  0.24246953  1
  O  O82  1  0.85362090  0.31958480  0.24275219  1
  O  O83  1  0.48366084  0.16581862  0.24126447  1
  O  O84  1  0.63372912  0.48822668  0.92876306  1
  O  O85  1  0.85180616  0.35724888  0.92816912  1
  O  O86  1  0.49458650  0.13003600  0.92539794  1
  O  O87  1  0.63490808  0.12540746  0.42367565  1
  O  O88  1  0.48989477  0.36263285  0.42435888  1
  O  O89  1  0.87350576  0.50814983  0.42357978  1
  O  O90  1  0.36142294  0.48761792  0.07678381  1
  O  O91  1  0.12679099  0.64236654  0.07492939  1
  O  O92  1  0.51054834  0.87508604  0.07548943  1
  O  O93  1  0.35833191  0.87045517  0.57442976  1
  O  O94  1  0.51212224  0.64159887  0.57462991  1
  O  O95  1  0.12956672  0.48799458  0.57458267  1
  O  O96  1  0.31011037  0.82784266  0.26388610  1
  O  O97  1  0.52940004  0.68855029  0.26222039  1
  O  O98  1  0.16246160  0.46852931  0.26233214  1
  O  O99  1  0.30824238  0.46916524  0.75791833  1
  O  O100  1  0.16154835  0.69392504  0.75784844  1
  O  O101  1  0.52993949  0.84276059  0.75848917  1
