# generated using pymatgen
data_MgHg4(WO4)2
_symmetry_space_group_name_H-M   'P 1'
_cell_length_a   5.27037067
_cell_length_b   7.71587213
_cell_length_c   9.22447704
_cell_angle_alpha   110.77869652
_cell_angle_beta   117.08840246
_cell_angle_gamma   92.79951091
_symmetry_Int_Tables_number   1
_chemical_formula_structural   MgHg4(WO4)2
_chemical_formula_sum   'Mg1 Hg4 W2 O8'
_cell_volume   302.10935926
_cell_formula_units_Z   1
loop_
 _symmetry_equiv_pos_site_id
 _symmetry_equiv_pos_as_xyz
  1  'x, y, z'
loop_
 _atom_site_type_symbol
 _atom_site_label
 _atom_site_symmetry_multiplicity
 _atom_site_fract_x
 _atom_site_fract_y
 _atom_site_fract_z
 _atom_site_occupancy
  Mg  Mg0  1  0.91647140  0.11766415  0.52146906  1
  Hg  Hg1  1  0.45597232  0.76479351  0.55439478  1
  Hg  Hg2  1  0.16273444  0.54547504  0.20950162  1
  Hg  Hg3  1  0.53598767  0.28048754  0.63414923  1
  Hg  Hg4  1  0.12699175  0.51136294  0.71205982  1
  W  W5  1  0.21097176  0.08490302  0.93434411  1
  W  W6  1  0.79259449  0.92163524  0.06023803  1
  O  O7  1  0.10084178  0.01286241  0.69237525  1
  O  O8  1  0.12534966  0.32162182  0.97044988  1
  O  O9  1  0.85086353  0.98903783  0.28723428  1
  O  O10  1  0.84613510  0.68219642  0.01343942  1
  O  O11  1  0.79074664  0.91643702  0.82951074  1
  O  O12  1  0.62134901  0.17487585  0.05948476  1
  O  O13  1  0.36176858  0.83298066  0.91701794  1
  O  O14  1  0.17622187  0.07580956  0.14004510  1
