# generated using pymatgen
data_ScNb3(PO4)6
_symmetry_space_group_name_H-M   'P 1'
_cell_length_a   8.82860495
_cell_length_b   8.82860467
_cell_length_c   22.77440800
_cell_angle_alpha   90.00000000
_cell_angle_beta   90.00000000
_cell_angle_gamma   120.00000109
_symmetry_Int_Tables_number   1
_chemical_formula_structural   ScNb3(PO4)6
_chemical_formula_sum   'Sc3 Nb9 P18 O72'
_cell_volume   1537.31150701
_cell_formula_units_Z   3
loop_
 _symmetry_equiv_pos_site_id
 _symmetry_equiv_pos_as_xyz
  1  'x, y, z'
loop_
 _atom_site_type_symbol
 _atom_site_label
 _atom_site_symmetry_multiplicity
 _atom_site_fract_x
 _atom_site_fract_y
 _atom_site_fract_z
 _atom_site_occupancy
  Sc  Sc0  1  -0.00000000  -0.00000000  0.35768004  1
  Sc  Sc1  1  0.66666700  0.33333300  0.68964148  1
  Sc  Sc2  1  0.66666700  0.33333300  0.19069386  1
  Nb  Nb3  1  -0.00000000  -0.00000000  0.85652813  1
  Nb  Nb4  1  -0.00000000  -0.00000000  0.64040169  1
  Nb  Nb5  1  -0.00000000  -0.00000000  0.14728587  1
  Nb  Nb6  1  0.66666700  0.33333300  0.97843670  1
  Nb  Nb7  1  0.66666700  0.33333300  0.47441961  1
  Nb  Nb8  1  0.33333300  0.66666700  0.02480131  1
  Nb  Nb9  1  0.33333300  0.66666700  0.52198571  1
  Nb  Nb10  1  0.33333300  0.66666700  0.30745236  1
  Nb  Nb11  1  0.33333300  0.66666700  0.80746224  1
  P  P12  1  0.28661006  0.00167621  0.25179675  1
  P  P13  1  0.71506615  0.71338994  0.25179675  1
  P  P14  1  0.99832379  0.28493385  0.25179675  1
  P  P15  1  0.28345161  0.28220737  0.74972749  1
  P  P16  1  0.99875576  0.71654839  0.74972749  1
  P  P17  1  0.71779263  0.00124424  0.74972749  1
  P  P18  1  0.95124122  0.33535187  0.58331498  1
  P  P19  1  0.38411165  0.04875878  0.58331498  1
  P  P20  1  0.66464813  0.61588835  0.58331498  1
  P  P21  1  0.95136942  0.62096879  0.08397024  1
  P  P22  1  0.66960037  0.04863058  0.08397024  1
  P  P23  1  0.37903121  0.33039963  0.08397024  1
  P  P24  1  0.61599502  0.66557827  0.91642090  1
  P  P25  1  0.04958224  0.38400498  0.91642090  1
  P  P26  1  0.33442173  0.95041776  0.91642090  1
  P  P27  1  0.61689387  0.94992847  0.41620068  1
  P  P28  1  0.33303360  0.38310613  0.41620068  1
  P  P29  1  0.05007153  0.66696640  0.41620068  1
  O  O30  1  0.20143802  0.02606665  0.30515151  1
  O  O31  1  0.82462863  0.79856198  0.30515151  1
  O  O32  1  0.97393335  0.17537137  0.30515151  1
  O  O33  1  0.18985835  0.16970082  0.80521562  1
  O  O34  1  0.97984247  0.81014165  0.80521562  1
  O  O35  1  0.83029918  0.02015753  0.80521562  1
  O  O36  1  0.80132291  0.96633833  0.69572478  1
  O  O37  1  0.16501542  0.19867709  0.69572478  1
  O  O38  1  0.03366167  0.83498458  0.69572478  1
  O  O39  1  0.80210199  0.83424520  0.19529604  1
  O  O40  1  0.03214321  0.19789801  0.19529604  1
  O  O41  1  0.16575480  0.96785679  0.19529604  1
  O  O42  1  0.87681818  0.36820422  0.63828648  1
  O  O43  1  0.49138704  0.12318182  0.63828648  1
  O  O44  1  0.63179578  0.50861296  0.63828648  1
  O  O45  1  0.87829107  0.50767567  0.13673710  1
  O  O46  1  0.62938560  0.12170893  0.13673710  1
  O  O47  1  0.49232433  0.37061440  0.13673710  1
  O  O48  1  0.46898048  0.30539774  0.02778476  1
  O  O49  1  0.83641826  0.53101952  0.02778476  1
  O  O50  1  0.69460226  0.16358174  0.02778476  1
  O  O51  1  0.46634215  0.16411132  0.52857143  1
  O  O52  1  0.69777017  0.53365785  0.52857143  1
  O  O53  1  0.83588868  0.30222983  0.52857143  1
  O  O54  1  0.53220284  0.69630854  0.97076604  1
  O  O55  1  0.16410470  0.46779716  0.97076604  1
  O  O56  1  0.30369146  0.83589530  0.97076604  1
  O  O57  1  0.52363858  0.83743728  0.47138426  1
  O  O58  1  0.31379770  0.47636142  0.47138426  1
  O  O59  1  0.16256272  0.68620230  0.47138426  1
  O  O60  1  0.13391877  0.63204977  0.36225820  1
  O  O61  1  0.49813000  0.86608123  0.36225820  1
  O  O62  1  0.36795023  0.50187000  0.36225820  1
  O  O63  1  0.13504527  0.49865547  0.86187757  1
  O  O64  1  0.36360920  0.86495473  0.86187757  1
  O  O65  1  0.50134453  0.63639080  0.86187757  1
  O  O66  1  0.02701954  0.82315913  0.41087542  1
  O  O67  1  0.79613959  0.97298046  0.41087542  1
  O  O68  1  0.17684087  0.20386041  0.41087542  1
  O  O69  1  0.02680286  0.19998249  0.90623018  1
  O  O70  1  0.17317963  0.97319714  0.90623018  1
  O  O71  1  0.80001751  0.82682037  0.90623018  1
  O  O72  1  0.97404605  0.17061887  0.59298681  1
  O  O73  1  0.19657282  0.02595395  0.59298681  1
  O  O74  1  0.82938113  0.80342718  0.59298681  1
  O  O75  1  0.97514594  0.80481957  0.09097624  1
  O  O76  1  0.82967363  0.02485406  0.09097624  1
  O  O77  1  0.19518043  0.17032637  0.09097624  1
  O  O78  1  0.69468109  0.15736638  0.74382620  1
  O  O79  1  0.46268629  0.30531891  0.74382620  1
  O  O80  1  0.84263362  0.53731371  0.74382620  1
  O  O81  1  0.68724565  0.53405402  0.23986512  1
  O  O82  1  0.84680937  0.31275435  0.23986512  1
  O  O83  1  0.46594598  0.15319063  0.23986512  1
  O  O84  1  0.63879601  0.50500882  0.92696121  1
  O  O85  1  0.86621381  0.36120399  0.92696121  1
  O  O86  1  0.49499118  0.13378619  0.92696121  1
  O  O87  1  0.63058846  0.13223886  0.42782161  1
  O  O88  1  0.50165139  0.36941154  0.42782161  1
  O  O89  1  0.86776114  0.49834861  0.42782161  1
  O  O90  1  0.35472944  0.49168540  0.06941134  1
  O  O91  1  0.13695496  0.64527056  0.06941134  1
  O  O92  1  0.50831460  0.86304504  0.06941134  1
  O  O93  1  0.35312133  0.86283112  0.57114589  1
  O  O94  1  0.50970879  0.64687867  0.57114589  1
  O  O95  1  0.13716888  0.49029121  0.57114589  1
  O  O96  1  0.29925559  0.83064802  0.25922488  1
  O  O97  1  0.53139143  0.70074441  0.25922488  1
  O  O98  1  0.16935198  0.46860857  0.25922488  1
  O  O99  1  0.29733070  0.46487826  0.76126060  1
  O  O100  1  0.16754655  0.70266930  0.76126060  1
  O  O101  1  0.53512174  0.83245345  0.76126060  1
