# generated using pymatgen
data_NaZnGa(SO4)3
_symmetry_space_group_name_H-M   'P 1'
_cell_length_a   8.56170837
_cell_length_b   8.56170811
_cell_length_c   22.33557446
_cell_angle_alpha   90.00000000
_cell_angle_beta   90.00000000
_cell_angle_gamma   120.00000103
_symmetry_Int_Tables_number   1
_chemical_formula_structural   NaZnGa(SO4)3
_chemical_formula_sum   'Na6 Zn6 Ga6 S18 O72'
_cell_volume   1417.90979461
_cell_formula_units_Z   6
loop_
 _symmetry_equiv_pos_site_id
 _symmetry_equiv_pos_as_xyz
  1  'x, y, z'
loop_
 _atom_site_type_symbol
 _atom_site_label
 _atom_site_symmetry_multiplicity
 _atom_site_fract_x
 _atom_site_fract_y
 _atom_site_fract_z
 _atom_site_occupancy
  Na  Na0  1  0.00000000  -0.00000000  0.49837485  1
  Na  Na1  1  0.00000000  -0.00000000  0.99837485  1
  Na  Na2  1  0.66666700  0.33333300  0.83170785  1
  Na  Na3  1  0.66666700  0.33333300  0.33170785  1
  Na  Na4  1  0.33333300  0.66666700  0.16504185  1
  Na  Na5  1  0.33333300  0.66666700  0.66504185  1
  Zn  Zn6  1  0.00000000  -0.00000000  0.35069520  1
  Zn  Zn7  1  0.00000000  -0.00000000  0.85069520  1
  Zn  Zn8  1  0.66666700  0.33333300  0.68402820  1
  Zn  Zn9  1  0.66666700  0.33333300  0.18402820  1
  Zn  Zn10  1  0.33333300  0.66666700  0.01736220  1
  Zn  Zn11  1  0.33333300  0.66666700  0.51736220  1
  Ga  Ga12  1  -0.00000000  -0.00000000  0.65005141  1
  Ga  Ga13  1  0.00000000  -0.00000000  0.15005141  1
  Ga  Ga14  1  0.66666700  0.33333300  0.98338441  1
  Ga  Ga15  1  0.66666700  0.33333300  0.48338441  1
  Ga  Ga16  1  0.33333300  0.66666700  0.31671841  1
  Ga  Ga17  1  0.33333300  0.66666700  0.81671841  1
  S  S18  1  0.29153944  0.99620117  0.25068314  1
  S  S19  1  0.70466173  0.70846056  0.25068314  1
  S  S20  1  0.00379883  0.29533827  0.25068314  1
  S  S21  1  0.29153944  0.29533827  0.75068314  1
  S  S22  1  0.00379883  0.70846056  0.75068314  1
  S  S23  1  0.70466173  0.99620117  0.75068314  1
  S  S24  1  0.95820644  0.32953417  0.58401614  1
  S  S25  1  0.37132873  0.04179356  0.58401614  1
  S  S26  1  0.67046583  0.62867127  0.58401614  1
  S  S27  1  0.95820644  0.62867127  0.08401614  1
  S  S28  1  0.67046583  0.04179356  0.08401614  1
  S  S29  1  0.37132873  0.32953417  0.08401614  1
  S  S30  1  0.62487244  0.66286817  0.91735014  1
  S  S31  1  0.03799473  0.37512756  0.91735014  1
  S  S32  1  0.33713183  0.96200527  0.91735014  1
  S  S33  1  0.62487244  0.96200527  0.41735014  1
  S  S34  1  0.33713183  0.37512756  0.41735014  1
  S  S35  1  0.03799473  0.66286817  0.41735014  1
  O  O36  1  0.21122291  0.02355377  0.30435735  1
  O  O37  1  0.81233086  0.78877709  0.30435735  1
  O  O38  1  0.97644623  0.18766914  0.30435735  1
  O  O39  1  0.21122291  0.18766914  0.80435735  1
  O  O40  1  0.97644623  0.78877709  0.80435735  1
  O  O41  1  0.81233086  0.02355377  0.80435735  1
  O  O42  1  0.78555808  0.96466443  0.69547192  1
  O  O43  1  0.17910635  0.21444192  0.69547192  1
  O  O44  1  0.03533557  0.82089365  0.69547192  1
  O  O45  1  0.78555808  0.82089365  0.19547192  1
  O  O46  1  0.03533557  0.21444192  0.19547192  1
  O  O47  1  0.17910635  0.96466443  0.19547192  1
  O  O48  1  0.87788991  0.35688677  0.63769035  1
  O  O49  1  0.47899786  0.12211009  0.63769035  1
  O  O50  1  0.64311323  0.52100214  0.63769035  1
  O  O51  1  0.87788991  0.52100214  0.13769035  1
  O  O52  1  0.64311323  0.12211009  0.13769035  1
  O  O53  1  0.47899786  0.35688677  0.13769035  1
  O  O54  1  0.45222508  0.29799743  0.02880492  1
  O  O55  1  0.84577335  0.54777492  0.02880492  1
  O  O56  1  0.70200257  0.15422665  0.02880492  1
  O  O57  1  0.45222508  0.15422665  0.52880492  1
  O  O58  1  0.70200257  0.54777492  0.52880492  1
  O  O59  1  0.84577335  0.29799743  0.52880492  1
  O  O60  1  0.54455591  0.69022077  0.97102435  1
  O  O61  1  0.14566386  0.45544409  0.97102435  1
  O  O62  1  0.30977923  0.85433614  0.97102435  1
  O  O63  1  0.54455591  0.85433614  0.47102435  1
  O  O64  1  0.30977923  0.45544409  0.47102435  1
  O  O65  1  0.14566386  0.69022077  0.47102435  1
  O  O66  1  0.11889108  0.63133143  0.36213892  1
  O  O67  1  0.51243935  0.88110892  0.36213892  1
  O  O68  1  0.36866857  0.48756065  0.36213892  1
  O  O69  1  0.11889108  0.48756065  0.86213892  1
  O  O70  1  0.36866857  0.88110892  0.86213892  1
  O  O71  1  0.51243935  0.63133143  0.86213892  1
  O  O72  1  0.01503097  0.82098237  0.41059378  1
  O  O73  1  0.80595139  0.98496903  0.41059378  1
  O  O74  1  0.17901763  0.19404861  0.41059378  1
  O  O75  1  0.01503097  0.19404861  0.91059378  1
  O  O76  1  0.17901763  0.98496903  0.91059378  1
  O  O77  1  0.80595139  0.82098237  0.91059378  1
  O  O78  1  0.97288590  0.16208425  0.58918666  1
  O  O79  1  0.18919835  0.02711410  0.58918666  1
  O  O80  1  0.83791575  0.81080165  0.58918666  1
  O  O81  1  0.97288590  0.81080165  0.08918666  1
  O  O82  1  0.83791575  0.02711410  0.08918666  1
  O  O83  1  0.18919835  0.16208425  0.08918666  1
  O  O84  1  0.68169797  0.15431537  0.74392678  1
  O  O85  1  0.47261839  0.31830203  0.74392678  1
  O  O86  1  0.84568463  0.52738161  0.74392678  1
  O  O87  1  0.68169797  0.52738161  0.24392678  1
  O  O88  1  0.84568463  0.31830203  0.24392678  1
  O  O89  1  0.47261839  0.15431537  0.24392678  1
  O  O90  1  0.63955290  0.49541725  0.92251966  1
  O  O91  1  0.85586535  0.36044710  0.92251966  1
  O  O92  1  0.50458275  0.14413465  0.92251966  1
  O  O93  1  0.63955290  0.14413465  0.42251966  1
  O  O94  1  0.50458275  0.36044710  0.42251966  1
  O  O95  1  0.85586535  0.49541725  0.42251966  1
  O  O96  1  0.34836397  0.48764937  0.07726078  1
  O  O97  1  0.13928439  0.65163603  0.07726078  1
  O  O98  1  0.51235063  0.86071561  0.07726078  1
  O  O99  1  0.34836397  0.86071561  0.57726078  1
  O  O100  1  0.51235063  0.65163603  0.57726078  1
  O  O101  1  0.13928439  0.48764937  0.57726078  1
  O  O102  1  0.30621890  0.82875125  0.25585366  1
  O  O103  1  0.52253135  0.69378110  0.25585366  1
  O  O104  1  0.17124875  0.47746865  0.25585366  1
  O  O105  1  0.30621890  0.47746865  0.75585366  1
  O  O106  1  0.17124875  0.69378110  0.75585366  1
  O  O107  1  0.52253135  0.82875125  0.75585366  1
