# generated using pymatgen
data_Na5Sc4P5SO24
_symmetry_space_group_name_H-M   'P 1'
_cell_length_a   8.97304071
_cell_length_b   8.99992172
_cell_length_c   22.84321782
_cell_angle_alpha   90.10981641
_cell_angle_beta   89.95919988
_cell_angle_gamma   119.90943883
_symmetry_Int_Tables_number   1
_chemical_formula_structural   Na5Sc4P5SO24
_chemical_formula_sum   'Na15 Sc12 P15 S3 O72'
_cell_volume   1599.04638570
_cell_formula_units_Z   3
loop_
 _symmetry_equiv_pos_site_id
 _symmetry_equiv_pos_as_xyz
  1  'x, y, z'
loop_
 _atom_site_type_symbol
 _atom_site_label
 _atom_site_symmetry_multiplicity
 _atom_site_fract_x
 _atom_site_fract_y
 _atom_site_fract_z
 _atom_site_occupancy
  Na  Na0  1  0.64336195  0.00055979  0.25049504  1
  Na  Na1  1  0.99626735  0.36113032  0.74992543  1
  Na  Na2  1  0.36375292  -0.00052277  0.75031079  1
  Na  Na3  1  0.02859517  0.69799225  0.58264084  1
  Na  Na4  1  0.66705972  0.96950973  0.58393245  1
  Na  Na5  1  0.30303575  0.97231289  0.08150567  1
  Na  Na6  1  0.03047623  0.33460638  0.08371362  1
  Na  Na7  1  0.97517022  0.66641118  0.91675768  1
  Na  Na8  1  0.70282510  0.66996032  0.41794906  1
  Na  Na9  1  0.01686499  0.01582932  0.49969372  1
  Na  Na10  1  0.99686007  0.00665287  0.99861191  1
  Na  Na11  1  0.65653426  0.32682882  0.83432891  1
  Na  Na12  1  0.68141926  0.33902894  0.33331733  1
  Na  Na13  1  0.33665296  0.64962684  0.16767015  1
  Na  Na14  1  0.34429528  0.65411534  0.66664434  1
  Sc  Sc15  1  0.99381945  0.99843670  0.35132267  1
  Sc  Sc16  1  0.00484837  0.01032473  0.85108478  1
  Sc  Sc17  1  0.00337712  0.00399721  0.64954542  1
  Sc  Sc18  1  0.98923643  0.99503116  0.14904716  1
  Sc  Sc19  1  0.66471345  0.34094870  0.68377032  1
  Sc  Sc20  1  0.67332735  0.34854958  0.18450014  1
  Sc  Sc21  1  0.66098874  0.32338313  0.98226061  1
  Sc  Sc22  1  0.66951922  0.32531197  0.48190814  1
  Sc  Sc23  1  0.33478559  0.66460599  0.01770957  1
  Sc  Sc24  1  0.33127359  0.66783466  0.51729844  1
  Sc  Sc25  1  0.32160191  0.66013019  0.31530709  1
  Sc  Sc26  1  0.33612757  0.66881081  0.81576652  1
  P  P27  1  0.70319059  0.70407279  0.25195874  1
  P  P28  1  0.00045825  0.29402188  0.24879182  1
  P  P29  1  0.29433642  0.29493432  0.75022747  1
  P  P30  1  0.99820198  0.70541524  0.75118836  1
  P  P31  1  0.70523367  0.99915086  0.74873571  1
  P  P32  1  0.96249162  0.33362225  0.58472527  1
  P  P33  1  0.37276543  0.04081831  0.58372468  1
  P  P34  1  0.66550848  0.62739354  0.58125290  1
  P  P35  1  0.96055991  0.62918739  0.08089380  1
  P  P36  1  0.66448585  0.03931026  0.08519374  1
  P  P37  1  0.37355276  0.33309883  0.08384679  1
  P  P38  1  0.03825905  0.37171088  0.91681390  1
  P  P39  1  0.33341465  0.96166866  0.91667862  1
  P  P40  1  0.62475360  0.96019468  0.41541377  1
  P  P41  1  0.03735541  0.66788005  0.41762755  1
  S  S42  1  0.29403427  0.00110904  0.24961183  1
  S  S43  1  0.62788479  0.66666974  0.91658574  1
  S  S44  1  0.33205025  0.37253889  0.41655498  1
  O  O45  1  0.20795305  0.02101328  0.30153989  1
  O  O46  1  0.81052483  0.78673028  0.30805008  1
  O  O47  1  0.97437520  0.17572868  0.30175502  1
  O  O48  1  0.21096400  0.17913017  0.80424977  1
  O  O49  1  0.97653299  0.79044651  0.80660720  1
  O  O50  1  0.82389644  0.02869545  0.80155665  1
  O  O51  1  0.78488649  0.97518441  0.69203850  1
  O  O52  1  0.17842046  0.21141823  0.69620651  1
  O  O53  1  0.02809318  0.81704716  0.69595583  1
  O  O54  1  0.79393434  0.82246252  0.19873829  1
  O  O55  1  0.02435181  0.21293412  0.19217285  1
  O  O56  1  0.19361117  0.97844373  0.19509530  1
  O  O57  1  0.88245267  0.36393841  0.64056964  1
  O  O58  1  0.48192283  0.11898676  0.63977633  1
  O  O59  1  0.64229892  0.51628372  0.63543898  1
  O  O60  1  0.87551680  0.51106405  0.13430045  1
  O  O61  1  0.63422357  0.11847995  0.14095334  1
  O  O62  1  0.48349236  0.35767302  0.13835998  1
  O  O63  1  0.45789643  0.30285930  0.02969653  1
  O  O64  1  0.85517362  0.54918728  0.02489751  1
  O  O65  1  0.69696520  0.15764058  0.03175545  1
  O  O66  1  0.46182464  0.15279984  0.53016927  1
  O  O67  1  0.69408368  0.54619549  0.52579983  1
  O  O68  1  0.84425041  0.30384693  0.53140891  1
  O  O69  1  0.54625115  0.68909285  0.96947950  1
  O  O70  1  0.14703979  0.45787186  0.97236253  1
  O  O71  1  0.30857256  0.84937490  0.97154063  1
  O  O72  1  0.54215892  0.84675094  0.47063917  1
  O  O73  1  0.30772732  0.45323598  0.46962279  1
  O  O74  1  0.14110448  0.68812344  0.47410991  1
  O  O75  1  0.12803017  0.64318275  0.36434459  1
  O  O76  1  0.51829746  0.87158426  0.36007025  1
  O  O77  1  0.36008029  0.48209509  0.36423981  1
  O  O78  1  0.12561897  0.48408933  0.86189918  1
  O  O79  1  0.35579703  0.87549441  0.86103149  1
  O  O80  1  0.52383563  0.64456124  0.86386732  1
  O  O81  1  0.01791403  0.82961436  0.41155709  1
  O  O82  1  0.80515527  0.97346583  0.41124086  1
  O  O83  1  0.18073491  0.20015933  0.41012815  1
  O  O84  1  0.01622091  0.19128232  0.91178259  1
  O  O85  1  0.16287668  0.96715982  0.91203141  1
  O  O86  1  0.80352778  0.82005290  0.91182353  1
  O  O87  1  0.97390404  0.16809168  0.58913437  1
  O  O88  1  0.18743785  0.01088714  0.58845859  1
  O  O89  1  0.82991080  0.80732255  0.58789128  1
  O  O90  1  0.99039761  0.81307627  0.08931484  1
  O  O91  1  0.83104659  0.02681469  0.08936405  1
  O  O92  1  0.19239543  0.16910120  0.08936038  1
  O  O93  1  0.68720695  0.16284182  0.74469653  1
  O  O94  1  0.47157016  0.30607926  0.74409616  1
  O  O95  1  0.84283553  0.52150080  0.74553177  1
  O  O96  1  0.68422006  0.52538082  0.24553947  1
  O  O97  1  0.83079076  0.30125989  0.24481999  1
  O  O98  1  0.47068294  0.15348866  0.24561663  1
  O  O99  1  0.65002149  0.51330724  0.92133183  1
  O  O100  1  0.86204861  0.36569715  0.92152144  1
  O  O101  1  0.49211938  0.14167782  0.92160835  1
  O  O102  1  0.64358327  0.13905418  0.42107116  1
  O  O103  1  0.49293636  0.36204174  0.42196551  1
  O  O104  1  0.85244812  0.51062243  0.42129175  1
  O  O105  1  0.34549490  0.48929280  0.07785126  1
  O  O106  1  0.14277541  0.64554794  0.07695504  1
  O  O107  1  0.50131213  0.86200973  0.07674710  1
  O  O108  1  0.35700577  0.85979759  0.57751952  1
  O  O109  1  0.50834594  0.65496856  0.57699604  1
  O  O110  1  0.13946064  0.49833261  0.57718453  1
  O  O111  1  0.31617257  0.84622179  0.25466043  1
  O  O112  1  0.52635517  0.69627626  0.25643934  1
  O  O113  1  0.15916158  0.47371997  0.25569618  1
  O  O114  1  0.30726691  0.47211482  0.75711249  1
  O  O115  1  0.16381853  0.68835910  0.75567901  1
  O  O116  1  0.52199313  0.84219332  0.75550456  1
