# generated using pymatgen
data_Sr5(Br4Cl)2
_symmetry_space_group_name_H-M   'P 1'
_cell_length_a   11.52698369
_cell_length_b   11.52698369
_cell_length_c   7.05660709
_cell_angle_alpha   90.00000000
_cell_angle_beta   90.00000000
_cell_angle_gamma   90.00000000
_symmetry_Int_Tables_number   1
_chemical_formula_structural   Sr5(Br4Cl)2
_chemical_formula_sum   'Sr10 Br16 Cl4'
_cell_volume   937.62093156
_cell_formula_units_Z   2
loop_
 _symmetry_equiv_pos_site_id
 _symmetry_equiv_pos_as_xyz
  1  'x, y, z'
loop_
 _atom_site_type_symbol
 _atom_site_label
 _atom_site_symmetry_multiplicity
 _atom_site_fract_x
 _atom_site_fract_y
 _atom_site_fract_z
 _atom_site_occupancy
  Sr  Sr0  1  0.50000000  -0.00000000  0.14176576  1
  Sr  Sr1  1  0.00000000  0.50000000  0.85823424  1
  Sr  Sr2  1  0.84537955  0.85731536  0.75091455  1
  Sr  Sr3  1  0.35731536  0.65462045  0.75091455  1
  Sr  Sr4  1  0.64268464  0.34537955  0.75091455  1
  Sr  Sr5  1  0.15462045  0.14268464  0.75091455  1
  Sr  Sr6  1  0.65462045  0.64268464  0.24908545  1
  Sr  Sr7  1  0.14268464  0.84537955  0.24908545  1
  Sr  Sr8  1  0.85731536  0.15462045  0.24908545  1
  Sr  Sr9  1  0.34537955  0.35731536  0.24908545  1
  Br  Br10  1  0.70957111  0.08963032  0.89419655  1
  Br  Br11  1  0.58963032  0.79042889  0.89419655  1
  Br  Br12  1  0.41036968  0.20957111  0.89419655  1
  Br  Br13  1  0.29042889  0.91036968  0.89419655  1
  Br  Br14  1  0.79042889  0.41036968  0.10580345  1
  Br  Br15  1  0.91036968  0.70957111  0.10580345  1
  Br  Br16  1  0.21470100  0.40820353  0.62710173  1
  Br  Br17  1  0.90820353  0.28529900  0.62710173  1
  Br  Br18  1  0.09179647  0.71470100  0.62710173  1
  Br  Br19  1  0.78529900  0.59179647  0.62710173  1
  Br  Br20  1  0.28529900  0.09179647  0.37289827  1
  Br  Br21  1  0.59179647  0.21470100  0.37289827  1
  Br  Br22  1  0.40820353  0.78529900  0.37289827  1
  Br  Br23  1  0.71470100  0.90820353  0.37289827  1
  Br  Br24  1  0.20957111  0.58963032  0.10580345  1
  Br  Br25  1  0.08963032  0.29042889  0.10580345  1
  Cl  Cl26  1  0.00000000  -0.00000000  0.50000000  1
  Cl  Cl27  1  0.50000000  0.50000000  0.50000000  1
  Cl  Cl28  1  0.00000000  -0.00000000  0.00000000  1
  Cl  Cl29  1  0.50000000  0.50000000  0.00000000  1
