# generated using pymatgen
data_H4I3N
_symmetry_space_group_name_H-M   'P 1'
_cell_length_a   6.64729181
_cell_length_b   9.73736877
_cell_length_c   10.81842220
_cell_angle_alpha   90.00000000
_cell_angle_beta   90.00000000
_cell_angle_gamma   90.00000000
_symmetry_Int_Tables_number   1
_chemical_formula_structural   H4I3N
_chemical_formula_sum   'H16 I12 N4'
_cell_volume   700.24543826
_cell_formula_units_Z   4
loop_
 _symmetry_equiv_pos_site_id
 _symmetry_equiv_pos_as_xyz
  1  'x, y, z'
loop_
 _atom_site_type_symbol
 _atom_site_label
 _atom_site_symmetry_multiplicity
 _atom_site_fract_x
 _atom_site_fract_y
 _atom_site_fract_z
 _atom_site_occupancy
  H  H0  1  0.62333603  0.46724361  0.17396823  1
  H  H1  1  0.12333603  0.53275639  0.82603177  1
  H  H2  1  0.37666397  0.96724361  0.32603177  1
  H  H3  1  0.87666397  0.03275639  0.67396823  1
  H  H4  1  0.37666397  0.53275639  0.82603177  1
  H  H5  1  0.87666397  0.46724361  0.17396823  1
  H  H6  1  0.62333603  0.03275639  0.67396823  1
  H  H7  1  0.12333603  0.96724361  0.32603177  1
  H  H8  1  0.25000000  0.39279435  0.77665489  1
  H  H9  1  0.25000000  0.06491501  0.42757464  1
  H  H10  1  0.75000000  0.89279435  0.72334511  1
  H  H11  1  0.25000000  0.10720565  0.27665489  1
  H  H12  1  0.25000000  0.43508499  0.92757464  1
  H  H13  1  0.75000000  0.56491501  0.07242536  1
  H  H14  1  0.75000000  0.93508499  0.57242536  1
  H  H15  1  0.75000000  0.60720565  0.22334511  1
  I  I16  1  0.25000000  0.94720783  0.87811493  1
  I  I17  1  0.75000000  0.23688954  0.91993736  1
  I  I18  1  0.75000000  0.26311046  0.41993736  1
  I  I19  1  0.25000000  0.73688954  0.58006264  1
  I  I20  1  0.25000000  0.76311046  0.08006264  1
  I  I21  1  0.75000000  0.05279217  0.12188507  1
  I  I22  1  0.75000000  0.44720783  0.62188507  1
  I  I23  1  0.25000000  0.55279217  0.37811493  1
  I  I24  1  0.25000000  0.15432276  0.65806257  1
  I  I25  1  0.75000000  0.84567724  0.34193743  1
  I  I26  1  0.75000000  0.65432276  0.84193743  1
  I  I27  1  0.25000000  0.34567724  0.15806257  1
  N  N28  1  0.25000000  0.02655420  0.33859891  1
  N  N29  1  0.75000000  0.52655420  0.16140109  1
  N  N30  1  0.75000000  0.97344580  0.66140109  1
  N  N31  1  0.25000000  0.47344580  0.83859891  1
