# generated using pymatgen
data_Na7CaIn3Si3(SO8)3
_symmetry_space_group_name_H-M   'P 1'
_cell_length_a   9.33971442
_cell_length_b   9.35184991
_cell_length_c   22.85216835
_cell_angle_alpha   90.39418718
_cell_angle_beta   89.90570584
_cell_angle_gamma   119.82214191
_symmetry_Int_Tables_number   1
_chemical_formula_structural   Na7CaIn3Si3(SO8)3
_chemical_formula_sum   'Na21 Ca3 In9 Si9 S9 O72'
_cell_volume   1731.62380104
_cell_formula_units_Z   3
loop_
 _symmetry_equiv_pos_site_id
 _symmetry_equiv_pos_as_xyz
  1  'x, y, z'
loop_
 _atom_site_type_symbol
 _atom_site_label
 _atom_site_symmetry_multiplicity
 _atom_site_fract_x
 _atom_site_fract_y
 _atom_site_fract_z
 _atom_site_occupancy
  Na  Na0  1  0.63548283  0.98883712  0.23992254  1
  Na  Na1  1  0.38733221  0.38273627  0.23741419  1
  Na  Na2  1  0.97792669  0.63527271  0.25646734  1
  Na  Na3  1  0.61914546  0.62575107  0.73818244  1
  Na  Na4  1  0.99437594  0.34281014  0.75073801  1
  Na  Na5  1  0.39030170  0.02083909  0.75950744  1
  Na  Na6  1  0.01570831  0.69819324  0.57407327  1
  Na  Na7  1  0.66812465  0.95462404  0.58358412  1
  Na  Na8  1  0.31956412  0.98368207  0.07891469  1
  Na  Na9  1  0.64973992  0.69261152  0.09163372  1
  Na  Na10  1  0.68986208  0.03572221  0.91663809  1
  Na  Na11  1  0.33398697  0.28296497  0.91813787  1
  Na  Na12  1  0.95545031  0.29867863  0.41279459  1
  Na  Na13  1  0.33273555  0.01431602  0.41667468  1
  Na  Na14  1  0.72865814  0.69065419  0.41609132  1
  Na  Na15  1  0.98234017  0.97972774  0.49690736  1
  Na  Na16  1  0.01251430  0.01173655  0.00542012  1
  Na  Na17  1  0.64833070  0.31277225  0.83065333  1
  Na  Na18  1  0.68083071  0.35329388  0.33339105  1
  Na  Na19  1  0.35139362  0.65990094  0.15840580  1
  Na  Na20  1  0.36058672  0.64747082  0.66792021  1
  Ca  Ca21  1  0.99177438  0.99004985  0.35191806  1
  Ca  Ca22  1  0.65660924  0.33532272  0.68291620  1
  Ca  Ca23  1  0.65870745  0.33178937  0.17543895  1
  In  In24  1  0.00958273  0.00149516  0.84925014  1
  In  In25  1  0.99294431  0.00328329  0.65370321  1
  In  In26  1  0.98263033  0.00486563  0.14668622  1
  In  In27  1  0.64384985  0.30576190  0.99020221  1
  In  In28  1  0.67836341  0.35104624  0.48427731  1
  In  In29  1  0.33028584  0.67113879  0.01556677  1
  In  In30  1  0.34828580  0.67132595  0.51447753  1
  In  In31  1  0.35107406  0.68584094  0.32145472  1
  In  In32  1  0.34198030  0.67244859  0.81722063  1
  Si  Si33  1  0.69278768  0.69489356  0.25219983  1
  Si  Si34  1  0.29311925  0.29949268  0.75358174  1
  Si  Si35  1  0.70203512  0.99528026  0.75357527  1
  Si  Si36  1  0.67024034  0.64462007  0.58421814  1
  Si  Si37  1  0.66536496  0.02243524  0.08195225  1
  Si  Si38  1  0.35129668  0.33360794  0.08262998  1
  Si  Si39  1  0.32673501  0.96235054  0.91644015  1
  Si  Si40  1  0.63658966  0.98164511  0.42035395  1
  Si  Si41  1  0.04431879  0.66245617  0.41874953  1
  S  S42  1  0.29570903  0.99627687  0.24978833  1
  S  S43  1  0.00934238  0.30811937  0.25251783  1
  S  S44  1  0.00486710  0.70474001  0.74915470  1
  S  S45  1  0.97143799  0.33449179  0.58272159  1
  S  S46  1  0.35995356  0.02843050  0.58222452  1
  S  S47  1  0.96501113  0.63145572  0.08268245  1
  S  S48  1  0.63574115  0.66351304  0.91696752  1
  S  S49  1  0.03357947  0.37248649  0.91581097  1
  S  S50  1  0.33641706  0.37108479  0.41614190  1
  O  O51  1  0.22130210  0.01833387  0.30378288  1
  O  O52  1  0.79609987  0.77518042  0.31162774  1
  O  O53  1  0.99312434  0.21571184  0.30659418  1
  O  O54  1  0.22018692  0.18948012  0.81296339  1
  O  O55  1  0.97628834  0.78370110  0.80055047  1
  O  O56  1  0.81277048  0.01169247  0.81204413  1
  O  O57  1  0.77513139  0.95955836  0.69266767  1
  O  O58  1  0.17102074  0.20907658  0.69701063  1
  O  O59  1  0.03110680  0.80349701  0.69490942  1
  O  O60  1  0.78196605  0.81453791  0.19398392  1
  O  O61  1  0.03436388  0.22416434  0.20096469  1
  O  O62  1  0.19527311  0.98285734  0.19734489  1
  O  O63  1  0.89123729  0.35356432  0.63568643  1
  O  O64  1  0.46210203  0.10739985  0.63461508  1
  O  O65  1  0.65377211  0.54848370  0.64386465  1
  O  O66  1  0.89624406  0.54428542  0.13807770  1
  O  O67  1  0.64258923  0.10291844  0.14168742  1
  O  O68  1  0.46605069  0.37920601  0.14083462  1
  O  O69  1  0.43500574  0.30111775  0.02292165  1
  O  O70  1  0.85518112  0.54237042  0.03207353  1
  O  O71  1  0.69705432  0.13409773  0.02245833  1
  O  O72  1  0.44063720  0.12456177  0.52852872  1
  O  O73  1  0.69896568  0.55757975  0.52479788  1
  O  O74  1  0.86598879  0.30953721  0.52966899  1
  O  O75  1  0.55344258  0.68815718  0.96869059  1
  O  O76  1  0.14406265  0.45803345  0.96571531  1
  O  O77  1  0.30962917  0.85797323  0.97527666  1
  O  O78  1  0.55535881  0.85756353  0.47570279  1
  O  O79  1  0.30868307  0.44863734  0.46808418  1
  O  O80  1  0.14738398  0.67224524  0.47820364  1
  O  O81  1  0.12671654  0.62898166  0.35943555  1
  O  O82  1  0.52415947  0.90644105  0.36011939  1
  O  O83  1  0.36155519  0.46990099  0.36211698  1
  O  O84  1  0.10989131  0.46120378  0.86005451  1
  O  O85  1  0.35744613  0.87860752  0.85744130  1
  O  O86  1  0.53089618  0.63146062  0.86320638  1
  O  O87  1  0.03572225  0.83300755  0.41876844  1
  O  O88  1  0.82567123  0.01638234  0.41771355  1
  O  O89  1  0.19126223  0.20453046  0.41089270  1
  O  O90  1  0.01381466  0.20257250  0.91483593  1
  O  O91  1  0.16638054  0.99273111  0.91441128  1
  O  O92  1  0.79707887  0.81880599  0.91141515  1
  O  O93  1  0.98688332  0.18385756  0.58483515  1
  O  O94  1  0.19109080  0.00746552  0.58654739  1
  O  O95  1  0.84463599  0.83158684  0.58413698  1
  O  O96  1  0.98254234  0.79987974  0.08483247  1
  O  O97  1  0.81848516  0.98179735  0.08062082  1
  O  O98  1  0.18138218  0.15038248  0.08971306  1
  O  O99  1  0.69147876  0.16503395  0.75169877  1
  O  O100  1  0.48095544  0.33063608  0.75001141  1
  O  O101  1  0.86008253  0.53710991  0.74430371  1
  O  O102  1  0.67301159  0.51040742  0.24823356  1
  O  O103  1  0.85781704  0.32200797  0.24651959  1
  O  O104  1  0.46625979  0.13831691  0.24600590  1
  O  O105  1  0.65590004  0.51661935  0.92324919  1
  O  O106  1  0.86759404  0.35653322  0.92117656  1
  O  O107  1  0.50015928  0.14934071  0.91781982  1
  O  O108  1  0.63406963  0.15787349  0.42713772  1
  O  O109  1  0.48789739  0.35627280  0.42188895  1
  O  O110  1  0.85535630  0.49894754  0.41855637  1
  O  O111  1  0.33513747  0.49888633  0.07257949  1
  O  O112  1  0.13385962  0.65462051  0.07661125  1
  O  O113  1  0.49104644  0.84210125  0.07826149  1
  O  O114  1  0.34064581  0.85901616  0.57908708  1
  O  O115  1  0.50733721  0.67096328  0.57919279  1
  O  O116  1  0.13481289  0.48742057  0.57751288  1
  O  O117  1  0.30120156  0.83787896  0.25166080  1
  O  O118  1  0.50427518  0.67990345  0.25338733  1
  O  O119  1  0.15845495  0.47678084  0.25416864  1
  O  O120  1  0.29729452  0.48051636  0.75696787  1
  O  O121  1  0.15633705  0.69074916  0.75543117  1
  O  O122  1  0.51498645  0.82926800  0.75448069  1
