# generated using pymatgen
data_Na5Zn2Ge2P5SO24
_symmetry_space_group_name_H-M   'P 1'
_cell_length_a   8.73339576
_cell_length_b   8.72576792
_cell_length_c   21.86427972
_cell_angle_alpha   90.56331384
_cell_angle_beta   89.37376966
_cell_angle_gamma   120.14877128
_symmetry_Int_Tables_number   1
_chemical_formula_structural   Na5Zn2Ge2P5SO24
_chemical_formula_sum   'Na15 Zn6 Ge6 P15 S3 O72'
_cell_volume   1440.68215144
_cell_formula_units_Z   3
loop_
 _symmetry_equiv_pos_site_id
 _symmetry_equiv_pos_as_xyz
  1  'x, y, z'
loop_
 _atom_site_type_symbol
 _atom_site_label
 _atom_site_symmetry_multiplicity
 _atom_site_fract_x
 _atom_site_fract_y
 _atom_site_fract_z
 _atom_site_occupancy
  Na  Na0  1  0.63377638  0.00102298  0.25279609  1
  Na  Na1  1  0.37360208  0.37581396  0.24632882  1
  Na  Na2  1  0.99316275  0.61869439  0.25309427  1
  Na  Na3  1  0.64228187  0.63041778  0.74699391  1
  Na  Na4  1  0.98694863  0.35765076  0.74766544  1
  Na  Na5  1  0.37190915  0.01593634  0.74775045  1
  Na  Na6  1  0.30554862  0.96391456  0.07439976  1
  Na  Na7  1  0.03779681  0.34812838  0.07560696  1
  Na  Na8  1  0.70536672  0.67682634  0.41785749  1
  Na  Na9  1  0.00807391  0.00773436  0.50017526  1
  Na  Na10  1  0.99590694  0.99583990  0.98842184  1
  Na  Na11  1  0.66679225  0.33102072  0.83359133  1
  Na  Na12  1  0.67847016  0.32386636  0.33675636  1
  Na  Na13  1  0.34941679  0.66383452  0.16079166  1
  Na  Na14  1  0.33495880  0.66624612  0.66207190  1
  Zn  Zn15  1  0.98869360  0.99878938  0.35682482  1
  Zn  Zn16  1  0.00847690  0.00897289  0.85275954  1
  Zn  Zn17  1  0.67007113  0.33673851  0.67572771  1
  Zn  Zn18  1  0.66998790  0.33777141  0.17827388  1
  Zn  Zn19  1  0.33340635  0.66645570  0.01474469  1
  Zn  Zn20  1  0.32930295  0.66780888  0.32197233  1
  Ge  Ge21  1  0.00041541  0.99981570  0.64570946  1
  Ge  Ge22  1  0.98761596  0.99771731  0.14320416  1
  Ge  Ge23  1  0.66945691  0.32741229  0.98169983  1
  Ge  Ge24  1  0.67864290  0.32898731  0.48964810  1
  Ge  Ge25  1  0.33137293  0.67397399  0.51984872  1
  Ge  Ge26  1  0.32589227  0.67014321  0.81832682  1
  P  P27  1  0.70999248  0.71007846  0.25103532  1
  P  P28  1  0.00175547  0.28797548  0.24869246  1
  P  P29  1  0.28962522  0.29567758  0.75010675  1
  P  P30  1  0.00406625  0.71437666  0.75063079  1
  P  P31  1  0.70701581  0.99334656  0.75130282  1
  P  P32  1  0.97254735  0.33375030  0.58458063  1
  P  P33  1  0.36865963  0.03823077  0.58430127  1
  P  P34  1  0.66509384  0.63381844  0.58253867  1
  P  P35  1  0.95323403  0.63157112  0.08429415  1
  P  P36  1  0.67000703  0.03908778  0.08507029  1
  P  P37  1  0.37189463  0.32803457  0.08543891  1
  P  P38  1  0.03120161  0.37406487  0.91964498  1
  P  P39  1  0.34111917  0.96865666  0.91994624  1
  P  P40  1  0.62061549  0.96752733  0.41966902  1
  P  P41  1  0.03479012  0.65716093  0.42005338  1
  S  S42  1  0.28485593  -0.00192909  0.24867494  1
  S  S43  1  0.62217152  0.65581279  0.91677981  1
  S  S44  1  0.33991381  0.37284981  0.41980813  1
  O  O45  1  0.19877036  0.01855161  0.30281453  1
  O  O46  1  0.81703500  0.78463258  0.30945350  1
  O  O47  1  0.97688090  0.17265653  0.30338832  1
  O  O48  1  0.21631964  0.18042663  0.80569559  1
  O  O49  1  0.96563794  0.79103567  0.80647093  1
  O  O50  1  0.82145679  0.02943427  0.80652164  1
  O  O51  1  0.78828308  0.94942866  0.69245715  1
  O  O52  1  0.16257477  0.21272040  0.69282500  1
  O  O53  1  0.04835859  0.83804039  0.69238985  1
  O  O54  1  0.80552648  0.83478791  0.19365365  1
  O  O55  1  0.03153714  0.20306996  0.18702768  1
  O  O56  1  0.18209980  0.97662184  0.19044491  1
  O  O57  1  0.90384309  0.37096986  0.64373989  1
  O  O58  1  0.46920567  0.10563969  0.64403721  1
  O  O59  1  0.63028374  0.52943175  0.64127495  1
  O  O60  1  0.88644848  0.53125757  0.14434918  1
  O  O61  1  0.63958274  0.11160691  0.14499938  1
  O  O62  1  0.46270806  0.34649035  0.14642025  1
  O  O63  1  0.46666638  0.28842251  0.03083988  1
  O  O64  1  0.82842452  0.53623564  0.02904799  1
  O  O65  1  0.71266285  0.17292137  0.03077169  1
  O  O66  1  0.46759465  0.16722207  0.53015037  1
  O  O67  1  0.69574101  0.53832812  0.52596534  1
  O  O68  1  0.84509656  0.29821083  0.52986282  1
  O  O69  1  0.53770067  0.67515829  0.97143438  1
  O  O70  1  0.13334207  0.45703735  0.97778782  1
  O  O71  1  0.32736923  0.86856974  0.97783225  1
  O  O72  1  0.51742256  0.83016494  0.47126931  1
  O  O73  1  0.31621846  0.46708163  0.47216624  1
  O  O74  1  0.15786354  0.67679088  0.47340820  1
  O  O75  1  0.09839038  0.62238151  0.35852933  1
  O  O76  1  0.52430764  0.90147708  0.35829266  1
  O  O77  1  0.37178917  0.47385255  0.36158124  1
  O  O78  1  0.12391722  0.49489764  0.86018460  1
  O  O79  1  0.37372856  0.87874815  0.86000700  1
  O  O80  1  0.51241004  0.62965383  0.85873381  1
  O  O81  1  0.00952005  0.81820394  0.42084357  1
  O  O82  1  0.80374665  0.98515672  0.42106601  1
  O  O83  1  0.18454497  0.19392311  0.41736406  1
  O  O84  1  0.00003456  0.18883186  0.91211558  1
  O  O85  1  0.18122882  0.98948123  0.91273988  1
  O  O86  1  0.79918946  0.80909544  0.91052802  1
  O  O87  1  0.98728175  0.16336632  0.58766792  1
  O  O88  1  0.18178421  0.02094432  0.58685113  1
  O  O89  1  0.83769766  0.82009401  0.58568045  1
  O  O90  1  0.96975121  0.82038281  0.08699616  1
  O  O91  1  0.84927204  0.03570697  0.08613079  1
  O  O92  1  0.18309504  0.14821536  0.08561044  1
  O  O93  1  0.67640446  0.14997619  0.74229740  1
  O  O94  1  0.47781007  0.32877263  0.74025080  1
  O  O95  1  0.84873550  0.52557516  0.74130304  1
  O  O96  1  0.68514214  0.52311915  0.24433992  1
  O  O97  1  0.83461671  0.30529046  0.24513235  1
  O  O98  1  0.46461657  0.15613557  0.24566802  1
  O  O99  1  0.62983385  0.48750931  0.91907601  1
  O  O100  1  0.84854292  0.37275653  0.92212059  1
  O  O101  1  0.51873353  0.15547286  0.92204898  1
  O  O102  1  0.63246104  0.15113081  0.43073989  1
  O  O103  1  0.50620619  0.36424927  0.42666470  1
  O  O104  1  0.84331086  0.48553876  0.42932342  1
  O  O105  1  0.33935700  0.48145202  0.07751087  1
  O  O106  1  0.14139400  0.66213834  0.07700043  1
  O  O107  1  0.51262205  0.85558630  0.07617782  1
  O  O108  1  0.34363412  0.84883754  0.57369909  1
  O  O109  1  0.50140218  0.65769777  0.57152660  1
  O  O110  1  0.16020319  0.49784948  0.57260756  1
  O  O111  1  0.30035192  0.83592632  0.24975387  1
  O  O112  1  0.52795181  0.69918854  0.25235088  1
  O  O113  1  0.16987711  0.47253866  0.24975428  1
  O  O114  1  0.29859556  0.48269453  0.75653216  1
  O  O115  1  0.18169775  0.70389723  0.75593678  1
  O  O116  1  0.51821579  0.81571569  0.75648489  1
