# generated using pymatgen
data_MgMn3TeO8
_symmetry_space_group_name_H-M   'P 1'
_cell_length_a   6.20133901
_cell_length_b   6.36047727
_cell_length_c   6.20121020
_cell_angle_alpha   59.88171876
_cell_angle_beta   58.58960311
_cell_angle_gamma   59.88253087
_symmetry_Int_Tables_number   1
_chemical_formula_structural   MgMn3TeO8
_chemical_formula_sum   'Mg1 Mn3 Te1 O8'
_cell_volume   170.73898280
_cell_formula_units_Z   1
loop_
 _symmetry_equiv_pos_site_id
 _symmetry_equiv_pos_as_xyz
  1  'x, y, z'
loop_
 _atom_site_type_symbol
 _atom_site_label
 _atom_site_symmetry_multiplicity
 _atom_site_fract_x
 _atom_site_fract_y
 _atom_site_fract_z
 _atom_site_occupancy
  Mg  Mg0  1  0.00000000  0.50000000  0.00000000  1
  Mn  Mn1  1  0.00000000  0.50000000  0.50000000  1
  Mn  Mn2  1  0.50000000  0.00000000  0.50000000  1
  Mn  Mn3  1  0.50000000  0.50000000  0.00000000  1
  Te  Te4  1  0.50000000  0.50000000  0.50000000  1
  O  O5  1  0.24442200  0.31588400  0.24442000  1
  O  O6  1  0.26887400  0.28584600  0.72714700  1
  O  O7  1  0.27780700  0.69285500  0.27771400  1
  O  O8  1  0.72719300  0.28580000  0.26890600  1
  O  O9  1  0.27280700  0.71420000  0.73109400  1
  O  O10  1  0.72219300  0.30714500  0.72228600  1
  O  O11  1  0.73112600  0.71415400  0.27285300  1
  O  O12  1  0.75557800  0.68411600  0.75558000  1
