# generated using pymatgen
data_Na5InTe4
_symmetry_space_group_name_H-M   'P 1'
_cell_length_a   7.49192100
_cell_length_b   17.88939500
_cell_length_c   20.36568700
_cell_angle_alpha   90.00000000
_cell_angle_beta   90.00000000
_cell_angle_gamma   90.00000000
_symmetry_Int_Tables_number   1
_chemical_formula_structural   Na5InTe4
_chemical_formula_sum   'Na40 In8 Te32'
_cell_volume   2729.53022331
_cell_formula_units_Z   8
loop_
 _symmetry_equiv_pos_site_id
 _symmetry_equiv_pos_as_xyz
  1  'x, y, z'
loop_
 _atom_site_type_symbol
 _atom_site_label
 _atom_site_symmetry_multiplicity
 _atom_site_fract_x
 _atom_site_fract_y
 _atom_site_fract_z
 _atom_site_occupancy
  Na  Na0  1  0.00000000  0.00000000  0.00000000  1
  Na  Na1  1  0.50000000  0.00000000  0.50000000  1
  Na  Na2  1  0.50000000  0.50000000  0.50000000  1
  Na  Na3  1  0.00000000  0.50000000  0.00000000  1
  Na  Na4  1  0.00000000  0.75000000  0.87207400  1
  Na  Na5  1  0.50000000  0.25000000  0.62792600  1
  Na  Na6  1  0.00000000  0.25000000  0.12792600  1
  Na  Na7  1  0.50000000  0.75000000  0.37207400  1
  Na  Na8  1  0.83214100  0.58483900  0.61759100  1
  Na  Na9  1  0.33214100  0.41516100  0.88240900  1
  Na  Na10  1  0.66785900  0.08483900  0.88240900  1
  Na  Na11  1  0.16785900  0.91516100  0.61759100  1
  Na  Na12  1  0.16785900  0.41516100  0.38240900  1
  Na  Na13  1  0.66785900  0.58483900  0.11759100  1
  Na  Na14  1  0.33214100  0.91516100  0.11759100  1
  Na  Na15  1  0.83214100  0.08483900  0.38240900  1
  Na  Na16  1  0.02495400  0.50838900  0.76559900  1
  Na  Na17  1  0.52495400  0.49161100  0.73440100  1
  Na  Na18  1  0.47504600  0.00838900  0.73440100  1
  Na  Na19  1  0.97504600  0.99161100  0.76559900  1
  Na  Na20  1  0.97504600  0.49161100  0.23440100  1
  Na  Na21  1  0.47504600  0.50838900  0.26559900  1
  Na  Na22  1  0.52495400  0.99161100  0.26559900  1
  Na  Na23  1  0.02495400  0.00838900  0.23440100  1
  Na  Na24  1  0.68082700  0.33081300  0.99697100  1
  Na  Na25  1  0.18082700  0.66918700  0.50302900  1
  Na  Na26  1  0.81917300  0.83081300  0.50302900  1
  Na  Na27  1  0.31917300  0.16918700  0.99697100  1
  Na  Na28  1  0.31917300  0.66918700  0.00302900  1
  Na  Na29  1  0.81917300  0.33081300  0.49697100  1
  Na  Na30  1  0.18082700  0.16918700  0.49697100  1
  Na  Na31  1  0.68082700  0.83081300  0.00302900  1
  Na  Na32  1  0.67392400  0.82008500  0.73960100  1
  Na  Na33  1  0.17392400  0.17991500  0.76039900  1
  Na  Na34  1  0.82607600  0.32008500  0.76039900  1
  Na  Na35  1  0.32607600  0.67991500  0.73960100  1
  Na  Na36  1  0.32607600  0.17991500  0.26039900  1
  Na  Na37  1  0.82607600  0.82008500  0.23960100  1
  Na  Na38  1  0.17392400  0.67991500  0.23960100  1
  Na  Na39  1  0.67392400  0.32008500  0.26039900  1
  In  In40  1  0.64106300  0.58807200  0.87915300  1
  In  In41  1  0.14106300  0.41192800  0.62084700  1
  In  In42  1  0.85893700  0.08807200  0.62084700  1
  In  In43  1  0.35893700  0.91192800  0.87915300  1
  In  In44  1  0.35893700  0.41192800  0.12084700  1
  In  In45  1  0.85893700  0.58807200  0.37915300  1
  In  In46  1  0.14106300  0.91192800  0.37915300  1
  In  In47  1  0.64106300  0.08807200  0.12084700  1
  Te  Te48  1  0.77743300  0.66197100  0.98929100  1
  Te  Te49  1  0.27743300  0.33802900  0.51070900  1
  Te  Te50  1  0.72256700  0.16197100  0.51070900  1
  Te  Te51  1  0.22256700  0.83802900  0.98929100  1
  Te  Te52  1  0.22256700  0.33802900  0.01070900  1
  Te  Te53  1  0.72256700  0.66197100  0.48929100  1
  Te  Te54  1  0.27743300  0.83802900  0.48929100  1
  Te  Te55  1  0.77743300  0.16197100  0.01070900  1
  Te  Te56  1  0.76252300  0.43664400  0.87562800  1
  Te  Te57  1  0.26252300  0.56335600  0.62437200  1
  Te  Te58  1  0.73747700  0.93664400  0.62437200  1
  Te  Te59  1  0.23747700  0.06335600  0.87562800  1
  Te  Te60  1  0.23747700  0.56335600  0.12437200  1
  Te  Te61  1  0.73747700  0.43664400  0.37562800  1
  Te  Te62  1  0.26252300  0.06335600  0.37562800  1
  Te  Te63  1  0.76252300  0.93664400  0.12437200  1
  Te  Te64  1  0.76753100  0.65265400  0.75938900  1
  Te  Te65  1  0.26753100  0.34734600  0.74061100  1
  Te  Te66  1  0.73246900  0.15265400  0.74061100  1
  Te  Te67  1  0.23246900  0.84734600  0.75938900  1
  Te  Te68  1  0.23246900  0.34734600  0.24061100  1
  Te  Te69  1  0.73246900  0.65265400  0.25938900  1
  Te  Te70  1  0.26753100  0.84734600  0.25938900  1
  Te  Te71  1  0.76753100  0.15265400  0.24061100  1
  Te  Te72  1  0.73555500  0.91318700  0.87093900  1
  Te  Te73  1  0.23555500  0.08681300  0.62906100  1
  Te  Te74  1  0.76444500  0.41318700  0.62906100  1
  Te  Te75  1  0.26444500  0.58681300  0.87093900  1
  Te  Te76  1  0.26444500  0.08681300  0.12906100  1
  Te  Te77  1  0.76444500  0.91318700  0.37093900  1
  Te  Te78  1  0.23555500  0.58681300  0.37093900  1
  Te  Te79  1  0.73555500  0.41318700  0.12906100  1
