# generated using pymatgen
data_Na2HfAl(PO4)3
_symmetry_space_group_name_H-M   'P 1'
_cell_length_a   8.76199474
_cell_length_b   8.76199447
_cell_length_c   22.27065547
_cell_angle_alpha   90.19114653
_cell_angle_beta   89.80885340
_cell_angle_gamma   120.53793313
_symmetry_Int_Tables_number   1
_chemical_formula_structural   Na2HfAl(PO4)3
_chemical_formula_sum   'Na12 Hf6 Al6 P18 O72'
_cell_volume   1472.60628724
_cell_formula_units_Z   6
loop_
 _symmetry_equiv_pos_site_id
 _symmetry_equiv_pos_as_xyz
  1  'x, y, z'
loop_
 _atom_site_type_symbol
 _atom_site_label
 _atom_site_symmetry_multiplicity
 _atom_site_fract_x
 _atom_site_fract_y
 _atom_site_fract_z
 _atom_site_occupancy
  Na  Na0  1  0.36290060  0.36201695  0.24834545  1
  Na  Na1  1  0.63798305  0.63709940  0.74834545  1
  Na  Na2  1  0.02956760  0.69534995  0.58167845  1
  Na  Na3  1  0.30465005  0.97043240  0.08167845  1
  Na  Na4  1  0.69623360  0.02868395  0.91501245  1
  Na  Na5  1  0.97131605  0.30376640  0.41501245  1
  Na  Na6  1  0.00006289  0.99886059  0.49602419  1
  Na  Na7  1  0.00113941  0.99993711  0.99602419  1
  Na  Na8  1  0.66672989  0.33219359  0.82935719  1
  Na  Na9  1  0.66780641  0.33327011  0.32935719  1
  Na  Na10  1  0.33339589  0.66552759  0.16269119  1
  Na  Na11  1  0.33447241  0.66660411  0.66269119  1
  Hf  Hf12  1  0.00196923  0.00823901  0.64605385  1
  Hf  Hf13  1  0.99176099  0.99803077  0.14605385  1
  Hf  Hf14  1  0.66863623  0.34157201  0.97938685  1
  Hf  Hf15  1  0.65842799  0.33136377  0.47938685  1
  Hf  Hf16  1  0.33530223  0.67490601  0.31272085  1
  Hf  Hf17  1  0.32509399  0.66469777  0.81272085  1
  Al  Al18  1  0.99874086  0.99305554  0.35243026  1
  Al  Al19  1  0.00694446  0.00125914  0.85243026  1
  Al  Al20  1  0.66540786  0.32638854  0.68576326  1
  Al  Al21  1  0.67361146  0.33459214  0.18576326  1
  Al  Al22  1  0.33207386  0.65972254  0.01909726  1
  Al  Al23  1  0.34027746  0.66792614  0.51909726  1
  P  P24  1  0.29291376  0.00811979  0.24989893  1
  P  P25  1  0.71687872  0.70427431  0.25232791  1
  P  P26  1  0.98554469  0.28333410  0.25257520  1
  P  P27  1  0.29572569  0.28312128  0.75232791  1
  P  P28  1  0.99188021  0.70708624  0.74989893  1
  P  P29  1  0.71666590  0.01445531  0.75257520  1
  P  P30  1  0.95958076  0.34145279  0.58323193  1
  P  P31  1  0.38354572  0.03760731  0.58566091  1
  P  P32  1  0.65221169  0.61666710  0.58590820  1
  P  P33  1  0.96239269  0.61645428  0.08566091  1
  P  P34  1  0.65854721  0.04041924  0.08323193  1
  P  P35  1  0.38333290  0.34778831  0.08590820  1
  P  P36  1  0.62624676  0.67478679  0.91656593  1
  P  P37  1  0.05021172  0.37094131  0.91899491  1
  P  P38  1  0.31887769  0.95000110  0.91924220  1
  P  P39  1  0.62905869  0.94978828  0.41899491  1
  P  P40  1  0.32521321  0.37375324  0.41656593  1
  P  P41  1  0.04999890  0.68112231  0.41924220  1
  O  O42  1  0.20032975  0.03744142  0.30398444  1
  O  O43  1  0.83036565  0.79856401  0.30716697  1
  O  O44  1  0.96619110  0.17459632  0.30950696  1
  O  O45  1  0.20143599  0.16963435  0.80716697  1
  O  O46  1  0.96255858  0.79967025  0.80398444  1
  O  O47  1  0.82540368  0.03380890  0.80950696  1
  O  O48  1  0.79731564  0.97179429  0.69746248  1
  O  O49  1  0.18306919  0.20649683  0.69523908  1
  O  O50  1  0.02316390  0.81573599  0.69180047  1
  O  O51  1  0.79350317  0.81693081  0.19523908  1
  O  O52  1  0.02820571  0.20268436  0.19746248  1
  O  O53  1  0.18426401  0.97683610  0.19180047  1
  O  O54  1  0.86699675  0.37077442  0.63731744  1
  O  O55  1  0.49703265  0.13189701  0.64049997  1
  O  O56  1  0.63285810  0.50792932  0.64283996  1
  O  O57  1  0.86810299  0.50296735  0.14049997  1
  O  O58  1  0.62922558  0.13300325  0.13731744  1
  O  O59  1  0.49207068  0.36714190  0.14283996  1
  O  O60  1  0.46398264  0.30512729  0.03079548  1
  O  O61  1  0.84973619  0.53982983  0.02857208  1
  O  O62  1  0.68983090  0.14906899  0.02513347  1
  O  O63  1  0.46017017  0.15026381  0.52857208  1
  O  O64  1  0.69487271  0.53601736  0.53079548  1
  O  O65  1  0.85093101  0.31016910  0.52513347  1
  O  O66  1  0.53366275  0.70410842  0.97065144  1
  O  O67  1  0.16369865  0.46523101  0.97383397  1
  O  O68  1  0.29952410  0.84126332  0.97617396  1
  O  O69  1  0.53476899  0.83630135  0.47383397  1
  O  O70  1  0.29589158  0.46633725  0.47065144  1
  O  O71  1  0.15873668  0.70047590  0.47617396  1
  O  O72  1  0.13064864  0.63846129  0.36412948  1
  O  O73  1  0.51640219  0.87316383  0.36190608  1
  O  O74  1  0.35649690  0.48240299  0.35846747  1
  O  O75  1  0.12683617  0.48359781  0.86190608  1
  O  O76  1  0.36153871  0.86935136  0.86412948  1
  O  O77  1  0.51759701  0.64350310  0.85846747  1
  O  O78  1  0.03100986  0.84301924  0.40895741  1
  O  O79  1  0.81582108  0.97508249  0.41057461  1
  O  O80  1  0.15666110  0.18881755  0.40903616  1
  O  O81  1  0.02491751  0.18417892  0.91057461  1
  O  O82  1  0.15698076  0.96899014  0.90895741  1
  O  O83  1  0.81118245  0.84333890  0.90903616  1
  O  O84  1  0.97971384  0.17690355  0.58876997  1
  O  O85  1  0.19280882  0.01077399  0.58987009  1
  O  O86  1  0.82471929  0.80305400  0.58997555  1
  O  O87  1  0.98922601  0.80719118  0.08987009  1
  O  O88  1  0.82309645  0.02028616  0.08876997  1
  O  O89  1  0.19694600  0.17528071  0.08997555  1
  O  O90  1  0.69767686  0.17635224  0.74229041  1
  O  O91  1  0.48248808  0.30841549  0.74390761  1
  O  O92  1  0.82332810  0.52215055  0.74236916  1
  O  O93  1  0.69158451  0.51751192  0.24390761  1
  O  O94  1  0.82364776  0.30232314  0.24229041  1
  O  O95  1  0.47784945  0.17667190  0.24236916  1
  O  O96  1  0.64638084  0.51023655  0.92210297  1
  O  O97  1  0.85947582  0.34410699  0.92320309  1
  O  O98  1  0.49138629  0.13638700  0.92330855  1
  O  O99  1  0.65589301  0.14052418  0.42320309  1
  O  O100  1  0.48976345  0.35361916  0.42210297  1
  O  O101  1  0.86361300  0.50861371  0.42330855  1
  O  O102  1  0.36434286  0.50968624  0.07562441  1
  O  O103  1  0.14915408  0.64174949  0.07724161  1
  O  O104  1  0.48999410  0.85548455  0.07570316  1
  O  O105  1  0.35825051  0.85084592  0.57724161  1
  O  O106  1  0.49031376  0.63565714  0.57562441  1
  O  O107  1  0.14451545  0.51000590  0.57570316  1
  O  O108  1  0.31304684  0.84357055  0.25543697  1
  O  O109  1  0.52614182  0.67744099  0.25653709  1
  O  O110  1  0.15805229  0.46972100  0.25664255  1
  O  O111  1  0.32255901  0.47385818  0.75653709  1
  O  O112  1  0.15642945  0.68695316  0.75543697  1
  O  O113  1  0.53027900  0.84194771  0.75664255  1
