# generated using pymatgen
data_Rb4CdBr6
_symmetry_space_group_name_H-M   'P 1'
_cell_length_a   9.32737040
_cell_length_b   9.32737040
_cell_length_c   9.32737104
_cell_angle_alpha   89.32574045
_cell_angle_beta   89.32574045
_cell_angle_gamma   89.32573857
_symmetry_Int_Tables_number   1
_chemical_formula_structural   Rb4CdBr6
_chemical_formula_sum   'Rb8 Cd2 Br12'
_cell_volume   811.31251775
_cell_formula_units_Z   2
loop_
 _symmetry_equiv_pos_site_id
 _symmetry_equiv_pos_as_xyz
  1  'x, y, z'
loop_
 _atom_site_type_symbol
 _atom_site_label
 _atom_site_symmetry_multiplicity
 _atom_site_fract_x
 _atom_site_fract_y
 _atom_site_fract_z
 _atom_site_occupancy
  Rb  Rb0  1  0.75000000  0.37201733  0.12798267  1
  Rb  Rb1  1  0.12798267  0.75000000  0.37201733  1
  Rb  Rb2  1  0.37201733  0.12798267  0.75000000  1
  Rb  Rb3  1  0.25000000  0.62798267  0.87201733  1
  Rb  Rb4  1  0.87201733  0.25000000  0.62798267  1
  Rb  Rb5  1  0.62798267  0.87201733  0.25000000  1
  Rb  Rb6  1  0.75000000  0.75000000  0.75000000  1
  Rb  Rb7  1  0.25000000  0.25000000  0.25000000  1
  Cd  Cd8  1  0.50000000  0.50000000  0.50000000  1
  Cd  Cd9  1  0.00000000  -0.00000000  0.00000000  1
  Br  Br10  1  0.21132523  0.43025489  0.55902683  1
  Br  Br11  1  0.55902683  0.21132523  0.43025489  1
  Br  Br12  1  0.43025489  0.55902683  0.21132523  1
  Br  Br13  1  0.28867477  0.94097317  0.06974511  1
  Br  Br14  1  0.06974511  0.28867477  0.94097317  1
  Br  Br15  1  0.94097317  0.06974511  0.28867477  1
  Br  Br16  1  0.78867477  0.56974511  0.44097317  1
  Br  Br17  1  0.44097317  0.78867477  0.56974511  1
  Br  Br18  1  0.56974511  0.44097317  0.78867477  1
  Br  Br19  1  0.71132523  0.05902683  0.93025489  1
  Br  Br20  1  0.05902683  0.93025489  0.71132523  1
  Br  Br21  1  0.93025489  0.71132523  0.05902683  1
