# generated using pymatgen
data_TaPS6
_symmetry_space_group_name_H-M   'P 1'
_cell_length_a   13.16548205
_cell_length_b   13.16547963
_cell_length_c   13.16556774
_cell_angle_alpha   105.01203644
_cell_angle_beta   105.01218810
_cell_angle_gamma   118.81311592
_symmetry_Int_Tables_number   1
_chemical_formula_structural   TaPS6
_chemical_formula_sum   'Ta8 P8 S48'
_cell_volume   1721.14192288
_cell_formula_units_Z   8
loop_
 _symmetry_equiv_pos_site_id
 _symmetry_equiv_pos_as_xyz
  1  'x, y, z'
loop_
 _atom_site_type_symbol
 _atom_site_label
 _atom_site_symmetry_multiplicity
 _atom_site_fract_x
 _atom_site_fract_y
 _atom_site_fract_z
 _atom_site_occupancy
  Ta  Ta0  1  0.07569888  0.57569873  0.65139898  1
  Ta  Ta1  1  0.82570023  0.67430032  -0.00000055  1
  Ta  Ta2  1  0.67429952  0.82570015  -0.00000020  1
  Ta  Ta3  1  0.92429875  0.42429890  0.34860230  1
  Ta  Ta4  1  0.17430085  0.17430010  0.84860135  1
  Ta  Ta5  1  0.42429978  0.07569821  0.49999987  1
  Ta  Ta6  1  0.57570021  0.92429998  0.50000013  1
  Ta  Ta7  1  0.32569942  0.32569925  0.15139960  1
  P  P8  1  0.87500298  0.55527554  0.18027310  1
  P  P9  1  0.87500218  0.05527798  0.68027397  1
  P  P10  1  0.30527619  0.12500169  0.68027457  1
  P  P11  1  0.44472353  0.62499828  0.31972640  1
  P  P12  1  0.37499744  0.19472349  0.31972586  1
  P  P13  1  0.37499764  0.69472197  0.81972605  1
  P  P14  1  0.94472742  0.62500218  0.81972677  1
  P  P15  1  0.80527734  0.12500205  0.18027342  1
  S  S16  1  0.17229117  0.08276572  0.99727218  1
  S  S17  1  0.22085071  0.50470234  0.72163886  1
  S  S18  1  0.75470915  0.53306616  0.78385460  1
  S  S19  1  0.74921114  0.97085531  0.21614345  1
  S  S20  1  0.78306573  0.49921414  0.27835558  1
  S  S21  1  0.99529576  0.27914858  0.27836039  1
  S  S22  1  0.96693657  0.74529483  0.21614521  1
  S  S23  1  0.52914405  0.75078829  0.78385607  1
  S  S24  1  0.16450579  0.57498193  0.49727328  1
  S  S25  1  0.82498178  0.82770963  0.91047559  1
  S  S26  1  0.91723337  0.91450599  0.08952371  1
  S  S27  1  0.07770844  0.66723327  0.50272828  1
  S  S28  1  0.92501834  0.33549326  0.50272680  1
  S  S29  1  0.67229048  0.67501783  0.08952380  1
  S  S30  1  0.58549389  0.58276634  0.91047586  1
  S  S31  1  0.83276551  0.42229216  0.49727183  1
  S  S32  1  0.08549299  0.17501780  0.00272703  1
  S  S33  1  0.42501772  0.92229013  0.58952409  1
  S  S34  1  0.33276611  0.83549348  0.41047604  1
  S  S35  1  0.00078910  0.71693573  0.72164251  1
  S  S36  1  0.32498173  0.41450608  0.99727282  1
  S  S37  1  0.57770934  0.07498202  0.41047567  1
  S  S38  1  0.66450599  0.16723356  0.58952384  1
  S  S39  1  0.41723391  0.32770863  0.00272829  1
  S  S40  1  0.50366364  0.71187385  0.49711264  1
  S  S41  1  0.96187808  0.96476620  0.70821081  1
  S  S42  1  0.25654968  0.25366384  0.29178887  1
  S  S43  1  0.21476363  0.00655389  0.50288770  1
  S  S44  1  0.78812657  0.99633685  0.50288735  1
  S  S45  1  0.53523393  0.53812180  0.29178898  1
  S  S46  1  0.24633386  0.24344738  0.70821123  1
  S  S47  1  0.49344389  0.28523343  0.49711224  1
  S  S48  1  0.74633626  0.03812652  0.00288723  1
  S  S49  1  0.28812130  0.78523290  0.79178946  1
  S  S50  1  0.99344871  0.49633551  0.20821106  1
  S  S51  1  0.03523934  0.74344970  0.99711391  1
  S  S52  1  0.46187296  0.75366301  0.99711242  1
  S  S53  1  0.71476513  0.21187784  0.20821044  1
  S  S54  1  0.00366447  0.50655124  0.79178931  1
  S  S55  1  0.75655376  0.46476385  0.00288685  1
  S  S56  1  0.24921376  0.03306663  0.77835698  1
  S  S57  1  0.49529456  0.21693345  0.71614531  1
  S  S58  1  0.50078895  0.77914557  0.28385642  1
  S  S59  1  0.46693362  0.25078719  0.22164515  1
  S  S60  1  0.25470453  0.47085192  0.22163932  1
  S  S61  1  0.28306562  0.00470402  0.28385404  1
  S  S62  1  0.72085557  0.99921181  0.71614368  1
  S  S63  1  0.02914904  0.24529657  0.77836121  1
