# generated using pymatgen
data_K2Ge2Se5
_symmetry_space_group_name_H-M   'P 1'
_cell_length_a   11.75550518
_cell_length_b   9.88012652
_cell_length_c   10.26227897
_cell_angle_alpha   89.90747136
_cell_angle_beta   90.00000000
_cell_angle_gamma   90.00000000
_symmetry_Int_Tables_number   1
_chemical_formula_structural   K2Ge2Se5
_chemical_formula_sum   'K8 Ge8 Se20'
_cell_volume   1191.91985160
_cell_formula_units_Z   4
loop_
 _symmetry_equiv_pos_site_id
 _symmetry_equiv_pos_as_xyz
  1  'x, y, z'
loop_
 _atom_site_type_symbol
 _atom_site_label
 _atom_site_symmetry_multiplicity
 _atom_site_fract_x
 _atom_site_fract_y
 _atom_site_fract_z
 _atom_site_occupancy
  K  K0  1  0.49278048  0.63967520  0.66679038  1
  K  K1  1  0.99278048  0.36032480  0.33320962  1
  K  K2  1  0.50721952  0.36032480  0.33320962  1
  K  K3  1  0.00721952  0.63967520  0.66679038  1
  K  K4  1  0.75000000  0.04018812  0.58158007  1
  K  K5  1  0.25000000  0.95981188  0.41841993  1
  K  K6  1  0.75000000  0.40897528  0.89326199  1
  K  K7  1  0.25000000  0.59102472  0.10673801  1
  Ge  Ge8  1  0.08727005  0.23388021  0.73711192  1
  Ge  Ge9  1  0.58727005  0.76611979  0.26288808  1
  Ge  Ge10  1  0.91272995  0.76611979  0.26288808  1
  Ge  Ge11  1  0.41272995  0.23388021  0.73711192  1
  Ge  Ge12  1  0.75000000  0.09046253  0.17951804  1
  Ge  Ge13  1  0.25000000  0.90953747  0.82048196  1
  Ge  Ge14  1  0.75000000  0.79826416  0.94437204  1
  Ge  Ge15  1  0.25000000  0.20173584  0.05562796  1
  Se  Se16  1  0.57516995  0.31642900  0.64365272  1
  Se  Se17  1  0.07516995  0.68357100  0.35634728  1
  Se  Se18  1  0.42483005  0.68357100  0.35634728  1
  Se  Se19  1  0.92483005  0.31642900  0.64365272  1
  Se  Se20  1  0.08321469  0.29789276  0.96060142  1
  Se  Se21  1  0.58321469  0.70210724  0.03939858  1
  Se  Se22  1  0.91678531  0.70210724  0.03939858  1
  Se  Se23  1  0.41678531  0.29789276  0.96060142  1
  Se  Se24  1  0.08428611  0.99383921  0.71097603  1
  Se  Se25  1  0.58428611  0.00616079  0.28902397  1
  Se  Se26  1  0.91571389  0.00616079  0.28902397  1
  Se  Se27  1  0.41571389  0.99383921  0.71097603  1
  Se  Se28  1  0.75000000  0.31905394  0.20053221  1
  Se  Se29  1  0.25000000  0.68094606  0.79946779  1
  Se  Se30  1  0.75000000  0.73365202  0.73082821  1
  Se  Se31  1  0.25000000  0.26634798  0.26917179  1
  Se  Se32  1  0.75000000  0.03727702  0.95471797  1
  Se  Se33  1  0.25000000  0.96272298  0.04528203  1
  Se  Se34  1  0.75000000  0.67347974  0.37220276  1
  Se  Se35  1  0.25000000  0.32652026  0.62779724  1
