# generated using pymatgen
data_MgVCrP2(HO5)2
_symmetry_space_group_name_H-M   'P 1'
_cell_length_a   5.43014825
_cell_length_b   7.50278742
_cell_length_c   5.18773572
_cell_angle_alpha   110.83014517
_cell_angle_beta   93.16817105
_cell_angle_gamma   109.82568205
_symmetry_Int_Tables_number   1
_chemical_formula_structural   MgVCrP2(HO5)2
_chemical_formula_sum   'Mg1 V1 Cr1 P2 H2 O10'
_cell_volume   182.07638362
_cell_formula_units_Z   1
loop_
 _symmetry_equiv_pos_site_id
 _symmetry_equiv_pos_as_xyz
  1  'x, y, z'
loop_
 _atom_site_type_symbol
 _atom_site_label
 _atom_site_symmetry_multiplicity
 _atom_site_fract_x
 _atom_site_fract_y
 _atom_site_fract_z
 _atom_site_occupancy
  Mg  Mg0  1  0.51029208  0.00744478  0.98783343  1
  V  V1  1  0.01013333  0.50793137  0.98831162  1
  Cr  Cr2  1  0.01060234  0.00797672  0.98817299  1
  P  P3  1  0.36278021  0.25954011  0.62902216  1
  P  P4  1  0.65775862  0.75635188  0.34748627  1
  H  H5  1  0.96361735  0.31519030  0.31640493  1
  H  H6  1  0.05694647  0.70014073  0.65978207  1
  O  O7  1  0.12515112  0.76458322  0.86632363  1
  O  O8  1  0.16528231  0.37000999  0.66424244  1
  O  O9  1  0.36287004  0.61386870  0.24872310  1
  O  O10  1  0.31835947  0.12356575  0.30886535  1
  O  O11  1  0.29704883  0.11357566  0.79027059  1
  O  O12  1  0.72474616  0.90242334  0.18644345  1
  O  O13  1  0.70218223  0.89237934  0.66764424  1
  O  O14  1  0.65727352  0.40283988  0.72808176  1
  O  O15  1  0.85462361  0.64537522  0.31235282  1
  O  O16  1  0.89533231  0.25073201  0.11003916  1
