# generated using pymatgen
data_MgVMoO5
_symmetry_space_group_name_H-M   'P 1'
_cell_length_a   3.95173780
_cell_length_b   3.81683132
_cell_length_c   6.48206676
_cell_angle_alpha   91.36850572
_cell_angle_beta   97.89687001
_cell_angle_gamma   89.46825263
_symmetry_Int_Tables_number   1
_chemical_formula_structural   MgVMoO5
_chemical_formula_sum   'Mg1 V1 Mo1 O5'
_cell_volume   96.81321562
_cell_formula_units_Z   1
loop_
 _symmetry_equiv_pos_site_id
 _symmetry_equiv_pos_as_xyz
  1  'x, y, z'
loop_
 _atom_site_type_symbol
 _atom_site_label
 _atom_site_symmetry_multiplicity
 _atom_site_fract_x
 _atom_site_fract_y
 _atom_site_fract_z
 _atom_site_occupancy
  Mg  Mg0  1  0.30716072  0.49227382  0.96040222  1
  V  V1  1  0.20947637  0.04132652  0.30550715  1
  Mo  Mo2  1  0.81796152  0.98485465  0.68733433  1
  O  O3  1  0.17338646  0.99227170  0.99179710  1
  O  O4  1  0.22297373  0.49935235  0.27389526  1
  O  O5  1  0.28609709  0.99961050  0.61185750  1
  O  O6  1  0.72913916  -0.00192553  0.36948066  1
  O  O7  1  0.75380497  0.49223699  0.79972378  1
