# generated using pymatgen
data_Sc2GeO5
_symmetry_space_group_name_H-M   'P 1'
_cell_length_a   7.58823112
_cell_length_b   7.58823112
_cell_length_c   10.67364427
_cell_angle_alpha   87.47273549
_cell_angle_beta   87.47273549
_cell_angle_gamma   87.67946660
_symmetry_Int_Tables_number   1
_chemical_formula_structural   Sc2GeO5
_chemical_formula_sum   'Sc12 Ge6 O30'
_cell_volume   612.94915967
_cell_formula_units_Z   6
loop_
 _symmetry_equiv_pos_site_id
 _symmetry_equiv_pos_as_xyz
  1  'x, y, z'
loop_
 _atom_site_type_symbol
 _atom_site_label
 _atom_site_symmetry_multiplicity
 _atom_site_fract_x
 _atom_site_fract_y
 _atom_site_fract_z
 _atom_site_occupancy
  Sc  Sc0  1  0.00622042  0.30339499  0.06187623  1
  Sc  Sc1  1  0.69660501  0.99377958  0.43812377  1
  Sc  Sc2  1  0.99377958  0.69660501  0.93812377  1
  Sc  Sc3  1  0.30339499  0.00622042  0.56187623  1
  Sc  Sc4  1  0.34817180  0.62915315  0.43002295  1
  Sc  Sc5  1  0.37084685  0.65182820  0.06997705  1
  Sc  Sc6  1  0.65182820  0.37084685  0.56997705  1
  Sc  Sc7  1  0.62915315  0.34817180  0.93002295  1
  Sc  Sc8  1  0.00809038  0.63827624  0.24555045  1
  Sc  Sc9  1  0.36172376  0.99190962  0.25444955  1
  Sc  Sc10  1  0.99190962  0.36172376  0.75444955  1
  Sc  Sc11  1  0.63827624  0.00809038  0.74555045  1
  Ge  Ge12  1  0.64385989  0.35614011  0.25000000  1
  Ge  Ge13  1  0.35614011  0.64385989  0.75000000  1
  Ge  Ge14  1  0.06100272  0.27368344  0.45587666  1
  Ge  Ge15  1  0.72631656  0.93899728  0.04412334  1
  Ge  Ge16  1  0.93899728  0.72631656  0.54412334  1
  Ge  Ge17  1  0.27368344  0.06100272  0.95587666  1
  O  O18  1  0.12502092  0.48055625  0.39622681  1
  O  O19  1  0.51944375  0.87497908  0.10377319  1
  O  O20  1  0.87497908  0.51944375  0.60377319  1
  O  O21  1  0.48055625  0.12502092  0.89622681  1
  O  O22  1  0.87046655  0.77736885  0.38812803  1
  O  O23  1  0.22263115  0.12953345  0.11187197  1
  O  O24  1  0.12953345  0.22263115  0.61187197  1
  O  O25  1  0.77736885  0.87046655  0.88812803  1
  O  O26  1  0.89029919  0.80198960  0.11356699  1
  O  O27  1  0.19801040  0.10970081  0.38643301  1
  O  O28  1  0.10970081  0.19801040  0.88643301  1
  O  O29  1  0.80198960  0.89029919  0.61356699  1
  O  O30  1  0.13135276  0.53605832  0.07490952  1
  O  O31  1  0.46394168  0.86864724  0.42509048  1
  O  O32  1  0.86864724  0.46394168  0.92509048  1
  O  O33  1  0.53605832  0.13135276  0.57490952  1
  O  O34  1  0.86729018  0.40572671  0.21974795  1
  O  O35  1  0.59427329  0.13270982  0.28025205  1
  O  O36  1  0.22536168  0.83844481  0.95339235  1
  O  O37  1  0.16155519  0.77463832  0.54660765  1
  O  O38  1  0.77463832  0.16155519  0.04660765  1
  O  O39  1  0.83844481  0.22536168  0.45339235  1
  O  O40  1  0.73693661  0.26306339  0.75000000  1
  O  O41  1  0.26306339  0.73693661  0.25000000  1
  O  O42  1  0.46425273  0.56087868  0.88507413  1
  O  O43  1  0.43912132  0.53574727  0.61492587  1
  O  O44  1  0.53574727  0.43912132  0.11492587  1
  O  O45  1  0.56087868  0.46425273  0.38507413  1
  O  O46  1  0.40572671  0.86729018  0.71974795  1
  O  O47  1  0.13270982  0.59427329  0.78025205  1
