# generated using pymatgen
data_Na10Y7Ta(PO4)12
_symmetry_space_group_name_H-M   'P 1'
_cell_length_a   18.51955719
_cell_length_b   9.27012625
_cell_length_c   23.44627284
_cell_angle_alpha   89.98748633
_cell_angle_beta   90.07191150
_cell_angle_gamma   120.13466820
_symmetry_Int_Tables_number   1
_chemical_formula_structural   Na10Y7Ta(PO4)12
_chemical_formula_sum   'Na30 Y21 Ta3 P36 O144'
_cell_volume   3481.20309235
_cell_formula_units_Z   3
loop_
 _symmetry_equiv_pos_site_id
 _symmetry_equiv_pos_as_xyz
  1  'x, y, z'
loop_
 _atom_site_type_symbol
 _atom_site_label
 _atom_site_symmetry_multiplicity
 _atom_site_fract_x
 _atom_site_fract_y
 _atom_site_fract_z
 _atom_site_occupancy
  Na  Na0  1  0.31712373  0.99979634  0.25307827  1
  Na  Na1  1  0.68412123  0.36578030  0.25288684  1
  Na  Na2  1  0.31292722  0.62966305  0.75592585  1
  Na  Na3  1  0.81290481  0.62924101  0.75526178  1
  Na  Na4  1  0.15336740  0.33447960  0.58169746  1
  Na  Na5  1  0.65311501  0.33518334  0.58204194  1
  Na  Na6  1  0.01285131  0.69618663  0.58291501  1
  Na  Na7  1  0.51424655  0.69487263  0.58174023  1
  Na  Na8  1  0.33191360  0.96796668  0.58175898  1
  Na  Na9  1  0.83420719  0.97238558  0.58169563  1
  Na  Na10  1  0.15296129  0.97151960  0.08125540  1
  Na  Na11  1  0.65376792  0.97394833  0.08242854  1
  Na  Na12  1  0.33256391  0.69394357  0.08235635  1
  Na  Na13  1  0.83271530  0.69375971  0.08221332  1
  Na  Na14  1  0.01355551  0.33296565  0.08095144  1
  Na  Na15  1  0.51424240  0.33296573  0.08296151  1
  Na  Na16  1  0.66811035  0.03177277  0.41350532  1
  Na  Na17  1  0.34611492  0.66451438  0.41232493  1
  Na  Na18  1  0.00019711  0.99874508  0.49434511  1
  Na  Na19  1  0.49963011  0.01464150  0.49330596  1
  Na  Na20  1  0.99997079  0.00029940  0.99690275  1
  Na  Na21  1  0.50017293  0.99972374  0.99705621  1
  Na  Na22  1  0.33327326  0.31973546  0.83753354  1
  Na  Na23  1  0.83335999  0.31996628  0.83767488  1
  Na  Na24  1  0.33358902  0.33423669  0.33249143  1
  Na  Na25  1  0.84652056  0.34695142  0.33360333  1
  Na  Na26  1  0.16160806  0.65090609  0.17171619  1
  Na  Na27  1  0.66539252  0.68221101  0.17172534  1
  Na  Na28  1  0.15914563  0.66649068  0.67187345  1
  Na  Na29  1  0.65907152  0.66534202  0.67200136  1
  Y  Y30  1  0.49962952  0.00487420  0.34910670  1
  Y  Y31  1  0.00222280  0.00445235  0.65352482  1
  Y  Y32  1  0.50206808  0.00326064  0.65231778  1
  Y  Y33  1  0.99966279  0.99824004  0.15298964  1
  Y  Y34  1  0.50047453  0.99717214  0.15251738  1
  Y  Y35  1  0.33369701  0.32516027  0.69011222  1
  Y  Y36  1  0.83355219  0.32521546  0.69067646  1
  Y  Y37  1  0.33099280  0.34063645  0.18591647  1
  Y  Y38  1  0.83994416  0.33358469  0.18809805  1
  Y  Y39  1  0.33334467  0.33440461  0.97830997  1
  Y  Y40  1  0.83341939  0.33470671  0.97846212  1
  Y  Y41  1  0.33235417  0.32318147  0.48029084  1
  Y  Y42  1  0.83808031  0.34359690  0.47973305  1
  Y  Y43  1  0.16651582  0.66743451  0.00739290  1
  Y  Y44  1  0.66642783  0.66636393  0.00813645  1
  Y  Y45  1  0.16000430  0.66025723  0.51005758  1
  Y  Y46  1  0.67074674  0.66783797  0.51117744  1
  Y  Y47  1  0.16244463  0.65993988  0.31636950  1
  Y  Y48  1  0.66421013  0.66859130  0.31681273  1
  Y  Y49  1  0.16272833  0.66733416  0.81790946  1
  Y  Y50  1  0.66266294  0.66717645  0.81797194  1
  Ta  Ta51  1  0.00033687  0.99957947  0.34888732  1
  Ta  Ta52  1  0.00153894  0.00311424  0.85120606  1
  Ta  Ta53  1  0.50156072  0.00300914  0.85116404  1
  P  P54  1  0.14772864  0.00085005  0.25162426  1
  P  P55  1  0.65280208  0.00313155  0.25003421  1
  P  P56  1  0.34664941  0.69894723  0.25086645  1
  P  P57  1  0.85308730  0.70295675  0.25203230  1
  P  P58  1  0.99916936  0.28946439  0.25124625  1
  P  P59  1  0.49984438  0.30209260  0.24670502  1
  P  P60  1  0.14826958  0.29601631  0.75205702  1
  P  P61  1  0.64788381  0.29522698  0.75193298  1
  P  P62  1  0.99920836  0.70864862  0.75129477  1
  P  P63  1  0.49922245  0.70892458  0.75110386  1
  P  P64  1  0.35460022  0.99864210  0.75202805  1
  P  P65  1  0.85429152  0.99836576  0.75220384  1
  P  P66  1  0.48335738  0.33618954  0.58414940  1
  P  P67  1  0.98213287  0.33460561  0.58442507  1
  P  P68  1  0.18433125  0.03232468  0.58411744  1
  P  P69  1  0.68606597  0.03613518  0.58124995  1
  P  P70  1  0.33137669  0.62839855  0.58370033  1
  P  P71  1  0.83286508  0.63023533  0.58740213  1
  P  P72  1  0.48297287  0.63004573  0.08207766  1
  P  P73  1  0.98400016  0.63125157  0.08224672  1
  P  P74  1  0.33132716  0.03307590  0.08469107  1
  P  P75  1  0.83240023  0.03436989  0.08219878  1
  P  P76  1  0.18343658  0.33558993  0.08120147  1
  P  P77  1  0.68635704  0.33754128  0.08526392  1
  P  P78  1  0.32250799  0.67589155  0.91245765  1
  P  P79  1  0.82239047  0.67585470  0.91248814  1
  P  P80  1  0.01504153  0.35416975  0.91547372  1
  P  P81  1  0.51517369  0.35393479  0.91557837  1
  P  P82  1  0.16233562  0.96997336  0.91524044  1
  P  P83  1  0.66227559  0.96961648  0.91533216  1
  P  P84  1  0.31762384  0.96387399  0.41607502  1
  P  P85  1  0.82276312  0.97004152  0.41590276  1
  P  P86  1  0.16197718  0.35625373  0.41616353  1
  P  P87  1  0.66674581  0.36018155  0.41614005  1
  P  P88  1  0.01533944  0.67963687  0.41528042  1
  P  P89  1  0.51551023  0.67017964  0.41897574  1
  O  O90  1  0.09103160  0.00601960  0.30182272  1
  O  O91  1  0.60719105  0.01842178  0.30337692  1
  O  O92  1  0.39767225  0.78631689  0.30524715  1
  O  O93  1  0.91275965  0.81695835  0.30226761  1
  O  O94  1  0.48934804  0.18686037  0.29753088  1
  O  O95  1  0.99739393  0.17057408  0.30115469  1
  O  O96  1  0.09253575  0.17760824  0.80201022  1
  O  O97  1  0.59234047  0.17741166  0.80206275  1
  O  O98  1  0.49588852  0.82171983  0.80085157  1
  O  O99  1  0.99591080  0.82183737  0.80093964  1
  O  O100  1  0.41455948  0.00849719  0.80208595  1
  O  O101  1  0.91455769  0.00852149  0.80207288  1
  O  O102  1  0.39212086  0.98117195  0.69513057  1
  O  O103  1  0.89154489  0.98116131  0.69519053  1
  O  O104  1  0.10384451  0.22259054  0.69468639  1
  O  O105  1  0.60330764  0.22102753  0.69464630  1
  O  O106  1  0.00656626  0.79702155  0.69383122  1
  O  O107  1  0.50678467  0.79755138  0.69364502  1
  O  O108  1  0.39136348  0.80249184  0.19643867  1
  O  O109  1  0.89011798  0.79383328  0.19515963  1
  O  O110  1  0.00495517  0.21445277  0.19379869  1
  O  O111  1  0.51017263  0.22333987  0.19078612  1
  O  O112  1  0.10314442  0.98825797  0.19473267  1
  O  O113  1  0.60247598  0.98654219  0.19473336  1
  O  O114  1  0.44180614  0.36146837  0.63749155  1
  O  O115  1  0.94027924  0.35907374  0.63759051  1
  O  O116  1  0.23951498  0.11548510  0.63719973  1
  O  O117  1  0.74248796  0.12589002  0.63322291  1
  O  O118  1  0.31997261  0.52176288  0.63784615  1
  O  O119  1  0.82108562  0.52805191  0.64257357  1
  O  O120  1  0.44181602  0.52230936  0.13560737  1
  O  O121  1  0.94459985  0.52352479  0.13612719  1
  O  O122  1  0.31738071  0.10583964  0.14074778  1
  O  O123  1  0.81936800  0.11589294  0.13582153  1
  O  O124  1  0.23723913  0.36365755  0.13496502  1
  O  O125  1  0.73741896  0.36403551  0.14097464  1
  O  O126  1  0.22568842  0.30778261  0.02929538  1
  O  O127  1  0.73083244  0.31042282  0.03438741  1
  O  O128  1  0.42730574  0.54745384  0.02964117  1
  O  O129  1  0.92751374  0.54762382  0.03027130  1
  O  O130  1  0.34491518  0.15113239  0.03444465  1
  O  O131  1  0.84695524  0.14640492  0.02999818  1
  O  O132  1  0.22543358  0.14221153  0.53137629  1
  O  O133  1  0.72489853  0.13699634  0.52594276  1
  O  O134  1  0.34382033  0.54519469  0.53023423  1
  O  O135  1  0.84535587  0.54129102  0.53597715  1
  O  O136  1  0.42780884  0.30750707  0.53157926  1
  O  O137  1  0.92826139  0.30821041  0.53110999  1
  O  O138  1  0.28646652  0.70783229  0.96792760  1
  O  O139  1  0.78625724  0.70743831  0.96797609  1
  O  O140  1  0.06400215  0.41982078  0.97249392  1
  O  O141  1  0.56425822  0.41964080  0.97256183  1
  O  O142  1  0.14534968  0.87165119  0.97218852  1
  O  O143  1  0.64539393  0.87047403  0.97208838  1
  O  O144  1  0.27253049  0.85853544  0.47055628  1
  O  O145  1  0.79242356  0.87450335  0.47360153  1
  O  O146  1  0.14323410  0.41735675  0.47321879  1
  O  O147  1  0.66165240  0.44651887  0.47191164  1
  O  O148  1  0.06182456  0.70951760  0.47339845  1
  O  O149  1  0.56562855  0.68822699  0.47486782  1
  O  O150  1  0.06374522  0.65747056  0.36702127  1
  O  O151  1  0.56206944  0.65293715  0.36779840  1
  O  O152  1  0.26711468  0.87550642  0.36202730  1
  O  O153  1  0.75949149  0.87285491  0.36871513  1
  O  O154  1  0.17736196  0.48085787  0.36835519  1
  O  O155  1  0.67192861  0.46187767  0.36271242  1
  O  O156  1  0.06263272  0.47101541  0.86652705  1
  O  O157  1  0.56244031  0.47100528  0.86659452  1
  O  O158  1  0.17358061  0.87566380  0.86627660  1
  O  O159  1  0.67389714  0.87637124  0.86614061  1
  O  O160  1  0.26785592  0.65416248  0.86047513  1
  O  O161  1  0.76778703  0.65414628  0.86049009  1
  O  O162  1  0.00711541  0.83976816  0.40373540  1
  O  O163  1  0.51091156  0.83319853  0.41522152  1
  O  O164  1  0.40274746  0.96825723  0.41585844  1
  O  O165  1  0.91123089  0.99078018  0.40226234  1
  O  O166  1  0.08420081  0.17892898  0.40261876  1
  O  O167  1  0.58849878  0.18230143  0.41572314  1
  O  O168  1  0.00805443  0.17789221  0.90357796  1
  O  O169  1  0.50824975  0.17783748  0.90361360  1
  O  O170  1  0.08162806  0.98533821  0.90312646  1
  O  O171  1  0.58148328  0.98477956  0.90319124  1
  O  O172  1  0.41187428  0.83844414  0.90273395  1
  O  O173  1  0.91182938  0.83839444  0.90273463  1
  O  O174  1  0.49357405  0.17905330  0.58828374  1
  O  O175  1  0.99316822  0.17866246  0.58855085  1
  O  O176  1  0.09577068  0.01299206  0.58854502  1
  O  O177  1  0.59762491  0.01684068  0.58695693  1
  O  O178  1  0.41001087  0.80684976  0.58791961  1
  O  O179  1  0.91136198  0.80879210  0.58923006  1
  O  O180  1  0.49360829  0.80827024  0.08694143  1
  O  O181  1  0.99423725  0.80882250  0.08756938  1
  O  O182  1  0.40997481  0.01186043  0.08761266  1
  O  O183  1  0.91036806  0.01152050  0.08737542  1
  O  O184  1  0.09450655  0.17824513  0.08664102  1
  O  O185  1  0.59700603  0.17978173  0.08795941  1
  O  O186  1  0.34842443  0.15750357  0.75373074  1
  O  O187  1  0.84802533  0.15707641  0.75397141  1
  O  O188  1  0.23503434  0.30919059  0.75399124  1
  O  O189  1  0.73451662  0.30783667  0.75403960  1
  O  O190  1  0.41411433  0.54314048  0.75321817  1
  O  O191  1  0.91433624  0.54265638  0.75365995  1
  O  O192  1  0.33570459  0.52334588  0.24864934  1
  O  O193  1  0.84789287  0.53156115  0.25429267  1
  O  O194  1  0.41871776  0.31130058  0.24541239  1
  O  O195  1  0.91807354  0.29581099  0.25544222  1
  O  O196  1  0.23492740  0.15908255  0.25464539  1
  O  O197  1  0.73681091  0.17152885  0.24807133  1
  O  O198  1  0.33594227  0.52615093  0.91782013  1
  O  O199  1  0.83580121  0.52607559  0.91787497  1
  O  O200  1  0.42609557  0.32445998  0.91884043  1
  O  O201  1  0.92618275  0.32565513  0.91860612  1
  O  O202  1  0.23746774  0.14709040  0.91860181  1
  O  O203  1  0.73693693  0.14741987  0.91900124  1
  O  O204  1  0.32934311  0.13996665  0.41863691  1
  O  O205  1  0.83025929  0.14327615  0.41965856  1
  O  O206  1  0.24192422  0.34422190  0.42058005  1
  O  O207  1  0.74376672  0.33521994  0.41730571  1
  O  O208  1  0.42483575  0.52109695  0.42029726  1
  O  O209  1  0.92690679  0.52770628  0.41777186  1
  O  O210  1  0.17482326  0.49441789  0.07503057  1
  O  O211  1  0.67764785  0.49585078  0.07700875  1
  O  O212  1  0.07218790  0.64957528  0.07566082  1
  O  O213  1  0.57137395  0.64857010  0.07615911  1
  O  O214  1  0.25240647  0.85664997  0.07618732  1
  O  O215  1  0.75267951  0.85784375  0.07587069  1
  O  O216  1  0.17424858  0.85496620  0.57862011  1
  O  O217  1  0.67678075  0.85912805  0.57824723  1
  O  O218  1  0.25169209  0.64527753  0.57778436  1
  O  O219  1  0.75350353  0.64738252  0.58090996  1
  O  O220  1  0.07018612  0.49439776  0.57959680  1
  O  O221  1  0.57193496  0.49424953  0.57864827  1
  O  O222  1  0.15877557  0.84757420  0.25675440  1
  O  O223  1  0.66471732  0.85061787  0.25284961  1
  O  O224  1  0.26193664  0.69636436  0.25163036  1
  O  O225  1  0.76441671  0.67601673  0.25840067  1
  O  O226  1  0.07696806  0.46197130  0.25662613  1
  O  O227  1  0.58117030  0.47295150  0.25196425  1
  O  O228  1  0.16111451  0.47333529  0.75694838  1
  O  O229  1  0.66094364  0.47274394  0.75683177  1
  O  O230  1  0.07436810  0.68389134  0.75640171  1
  O  O231  1  0.57427147  0.68383102  0.75636401  1
  O  O232  1  0.26949326  0.83661546  0.75735049  1
  O  O233  1  0.76926448  0.83636804  0.75749922  1
