# generated using pymatgen
data_Na3Ta4Si5PO24
_symmetry_space_group_name_H-M   'P 1'
_cell_length_a   8.91094705
_cell_length_b   8.87113896
_cell_length_c   22.82926528
_cell_angle_alpha   89.95597543
_cell_angle_beta   90.16057704
_cell_angle_gamma   119.82434145
_symmetry_Int_Tables_number   1
_chemical_formula_structural   Na3Ta4Si5PO24
_chemical_formula_sum   'Na9 Ta12 Si15 P3 O72'
_cell_volume   1565.63311532
_cell_formula_units_Z   3
loop_
 _symmetry_equiv_pos_site_id
 _symmetry_equiv_pos_as_xyz
  1  'x, y, z'
loop_
 _atom_site_type_symbol
 _atom_site_label
 _atom_site_symmetry_multiplicity
 _atom_site_fract_x
 _atom_site_fract_y
 _atom_site_fract_z
 _atom_site_occupancy
  Na  Na0  1  0.99994390  0.63476945  0.24999736  1
  Na  Na1  1  0.99929813  0.36407048  0.75005958  1
  Na  Na2  1  0.66748132  0.96871170  0.58339826  1
  Na  Na3  1  0.00342324  0.99942571  0.49944448  1
  Na  Na4  1  0.00135210  0.00033319  0.00000903  1
  Na  Na5  1  0.66282522  0.33203429  0.83372297  1
  Na  Na6  1  0.66342181  0.32890085  0.33406844  1
  Na  Na7  1  0.33712611  0.66567479  0.16613059  1
  Na  Na8  1  0.33379709  0.66632166  0.66667356  1
  Ta  Ta9  1  0.99680316  0.99739889  0.35397977  1
  Ta  Ta10  1  0.00444570  0.00320245  0.85420143  1
  Ta  Ta11  1  0.00340712  0.99906454  0.64621382  1
  Ta  Ta12  1  0.00310101  0.00067362  0.14589281  1
  Ta  Ta13  1  0.66251334  0.33353403  0.68709726  1
  Ta  Ta14  1  0.66382881  0.33365949  0.18707591  1
  Ta  Ta15  1  0.66540260  0.33387552  0.97909588  1
  Ta  Ta16  1  0.66948494  0.33356114  0.47918792  1
  Ta  Ta17  1  0.32500937  0.66190800  0.02102461  1
  Ta  Ta18  1  0.33021779  0.66677477  0.52040730  1
  Ta  Ta19  1  0.33592779  0.66952227  0.31282926  1
  Ta  Ta20  1  0.33533016  0.67278932  0.81302440  1
  Si  Si21  1  0.29112860  0.00495992  0.25066924  1
  Si  Si22  1  0.70889842  0.71387537  0.24930096  1
  Si  Si23  1  -0.00002414  0.28635714  0.24995755  1
  Si  Si24  1  0.29162824  0.28846299  0.75024049  1
  Si  Si25  1  0.99889925  0.71261454  0.75075772  1
  Si  Si26  1  0.70970141  0.99612317  0.74996382  1
  Si  Si27  1  0.95806817  0.33718069  0.58382367  1
  Si  Si28  1  0.37575820  0.04701573  0.58253759  1
  Si  Si29  1  0.66643780  0.62055227  0.58262487  1
  Si  Si30  1  0.95414236  0.62202585  0.08325431  1
  Si  Si31  1  0.37717215  0.33353263  0.08271546  1
  Si  Si32  1  0.04304577  0.37745698  0.91630579  1
  Si  Si33  1  0.33349087  0.95673984  0.91750204  1
  Si  Si34  1  0.62306340  0.95627406  0.41708087  1
  Si  Si35  1  0.04334007  0.66649963  0.41617801  1
  P  P36  1  0.66611709  0.04473375  0.08305481  1
  P  P37  1  0.62048159  0.66799394  0.91733946  1
  P  P38  1  0.33322284  0.37846834  0.41666091  1
  O  O39  1  0.19697136  0.03140058  0.30745610  1
  O  O40  1  0.83691332  0.80023929  0.30633169  1
  O  O41  1  0.96896933  0.16533970  0.30741843  1
  O  O42  1  0.19641263  0.16542656  0.80709700  1
  O  O43  1  0.96792167  0.80301051  0.80757571  1
  O  O44  1  0.83700366  0.03502852  0.80649728  1
  O  O45  1  0.79934345  0.96899747  0.69135199  1
  O  O46  1  0.16330032  0.20011972  0.69365574  1
  O  O47  1  0.03242139  0.83390130  0.69307397  1
  O  O48  1  0.80313615  0.83451470  0.19252047  1
  O  O49  1  0.03099008  0.19632707  0.19260663  1
  O  O50  1  0.16312414  0.96330419  0.19368614  1
  O  O51  1  0.86781403  0.36489834  0.64194836  1
  O  O52  1  0.50320277  0.13276936  0.63960549  1
  O  O53  1  0.63492630  0.49923191  0.64032872  1
  O  O54  1  0.86739872  0.50182244  0.14157071  1
  O  O55  1  0.63680584  0.13057584  0.13767066  1
  O  O56  1  0.50075853  0.36251332  0.13995741  1
  O  O57  1  0.47126428  0.30256059  0.02627696  1
  O  O58  1  0.83170547  0.52701301  0.02646808  1
  O  O59  1  0.69616049  0.16148989  0.02861033  1
  O  O60  1  0.47037954  0.16786155  0.52583879  1
  O  O61  1  0.69765980  0.52966330  0.52583191  1
  O  O62  1  0.82949670  0.29778216  0.52716861  1
  O  O63  1  0.53557990  0.69615007  0.97134662  1
  O  O64  1  0.16865699  0.47057597  0.97315850  1
  O  O65  1  0.30558080  0.83278654  0.97370256  1
  O  O66  1  0.53329687  0.83501779  0.47494389  1
  O  O67  1  0.30408726  0.46441786  0.47113264  1
  O  O68  1  0.16756154  0.69548457  0.47304765  1
  O  O69  1  0.13330185  0.63511795  0.35842985  1
  O  O70  1  0.49894148  0.86111033  0.36024122  1
  O  O71  1  0.36256783  0.49366800  0.36221436  1
  O  O72  1  0.13474298  0.49758074  0.85846219  1
  O  O73  1  0.36492659  0.86423619  0.86013692  1
  O  O74  1  0.50595077  0.63622168  0.86217148  1
  O  O75  1  0.02631054  0.84020996  0.40885658  1
  O  O76  1  0.81452235  0.97720198  0.40864564  1
  O  O77  1  0.17113715  0.19741184  0.40923287  1
  O  O78  1  0.02213137  0.18487886  0.90893950  1
  O  O79  1  0.16094794  0.97383192  0.90887209  1
  O  O80  1  0.80217574  0.82807300  0.90896015  1
  O  O81  1  0.96942306  0.15959985  0.59089626  1
  O  O82  1  0.18532951  0.02410743  0.59110642  1
  O  O83  1  0.83329712  0.81549614  0.59098687  1
  O  O84  1  0.97449507  0.81390146  0.09116478  1
  O  O85  1  0.82885562  0.02657026  0.09071382  1
  O  O86  1  0.18591406  0.16337567  0.09148645  1
  O  O87  1  0.69677015  0.17301469  0.74224317  1
  O  O88  1  0.48111289  0.30834790  0.74234264  1
  O  O89  1  0.83355028  0.51724976  0.74242837  1
  O  O90  1  0.69702647  0.52347878  0.24184048  1
  O  O91  1  0.83253410  0.31417454  0.24159885  1
  O  O92  1  0.48239243  0.17044623  0.24124237  1
  O  O93  1  0.64029785  0.50374183  0.92453234  1
  O  O94  1  0.85246261  0.35771697  0.92569364  1
  O  O95  1  0.50490914  0.14783345  0.92523483  1
  O  O96  1  0.64041498  0.14717761  0.42442322  1
  O  O97  1  0.49544027  0.35963926  0.42406126  1
  O  O98  1  0.85213754  0.49608922  0.42464850  1
  O  O99  1  0.36149521  0.50778919  0.07480126  1
  O  O100  1  0.14737624  0.64402832  0.07510182  1
  O  O101  1  0.50583266  0.86400962  0.07500713  1
  O  O102  1  0.36352147  0.85653069  0.57515598  1
  O  O103  1  0.49854415  0.64724795  0.57511537  1
  O  O104  1  0.14883336  0.50427459  0.57467531  1
  O  O105  1  0.30303024  0.82650313  0.25810573  1
  O  O106  1  0.51771974  0.68813467  0.25871793  1
  O  O107  1  0.16730073  0.48145218  0.25834759  1
  O  O108  1  0.30445310  0.47729790  0.75868171  1
  O  O109  1  0.16777600  0.68528047  0.75814216  1
  O  O110  1  0.51920815  0.82668363  0.75829267  1
