# generated using pymatgen
data_Na8TaIn3Si4(PO12)2
_symmetry_space_group_name_H-M   'P 1'
_cell_length_a   9.25043062
_cell_length_b   9.26231484
_cell_length_c   22.37064770
_cell_angle_alpha   89.93888274
_cell_angle_beta   89.97488240
_cell_angle_gamma   119.98072787
_symmetry_Int_Tables_number   1
_chemical_formula_structural   Na8TaIn3Si4(PO12)2
_chemical_formula_sum   'Na24 Ta3 In9 Si12 P6 O72'
_cell_volume   1660.25373515
_cell_formula_units_Z   3
loop_
 _symmetry_equiv_pos_site_id
 _symmetry_equiv_pos_as_xyz
  1  'x, y, z'
loop_
 _atom_site_type_symbol
 _atom_site_label
 _atom_site_symmetry_multiplicity
 _atom_site_fract_x
 _atom_site_fract_y
 _atom_site_fract_z
 _atom_site_occupancy
  Na  Na0  1  0.63050933  0.99753731  0.25535717  1
  Na  Na1  1  0.36949414  0.37081185  0.25205902  1
  Na  Na2  1  0.00230511  0.63018458  0.25188463  1
  Na  Na3  1  0.64110953  0.63639625  0.73948223  1
  Na  Na4  1  0.99056455  0.35159440  0.74222751  1
  Na  Na5  1  0.36817954  0.01366709  0.74754294  1
  Na  Na6  1  0.29417451  0.34044151  0.58301012  1
  Na  Na7  1  0.03963775  0.70114554  0.58006022  1
  Na  Na8  1  0.66660357  0.95555198  0.58006785  1
  Na  Na9  1  0.29007641  0.95517568  0.07917660  1
  Na  Na10  1  0.65941673  0.70043845  0.08183333  1
  Na  Na11  1  0.04752648  0.34435048  0.08202591  1
  Na  Na12  1  0.97881849  0.68359146  0.91452824  1
  Na  Na13  1  0.70835531  0.02694508  0.91146032  1
  Na  Na14  1  0.31424315  0.28866892  0.91184193  1
  Na  Na15  1  0.98156842  0.30023920  0.41753803  1
  Na  Na16  1  0.32296151  0.02096384  0.41714771  1
  Na  Na17  1  0.69742578  0.67990064  0.41738015  1
  Na  Na18  1  0.99675436  0.00007785  0.49860737  1
  Na  Na19  1  0.00369185  0.00071597  0.99693075  1
  Na  Na20  1  0.66183191  0.32636410  0.82676267  1
  Na  Na21  1  0.66503556  0.33182487  0.33392228  1
  Na  Na22  1  0.32718561  0.66043790  0.16490716  1
  Na  Na23  1  0.33549465  0.66077883  0.65884877  1
  Ta  Ta24  1  0.66434931  0.33650834  0.97917579  1
  Ta  Ta25  1  0.67145791  0.33773400  0.48151418  1
  Ta  Ta26  1  0.33480966  0.66482700  0.81660690  1
  In  In27  1  0.00053432  0.99991553  0.35042753  1
  In  In28  1  0.00081426  0.00382172  0.84867605  1
  In  In29  1  0.99408528  0.00239842  0.64857032  1
  In  In30  1  0.00252032  0.99918089  0.14563064  1
  In  In31  1  0.66614596  0.33398958  0.68258167  1
  In  In32  1  0.66787609  0.33710689  0.18156149  1
  In  In33  1  0.33125723  0.66429922  0.01595177  1
  In  In34  1  0.33343712  0.66273155  0.51400046  1
  In  In35  1  0.33395938  0.66583405  0.32231391  1
  Si  Si36  1  0.29901158  0.30169187  0.75069805  1
  Si  Si37  1  0.69504468  0.99523402  0.75088211  1
  Si  Si38  1  0.96426511  0.33522514  0.58521302  1
  Si  Si39  1  0.66768714  0.63094234  0.58520054  1
  Si  Si40  1  0.96188749  0.62810578  0.08431541  1
  Si  Si41  1  0.37107097  0.33434969  0.08466655  1
  Si  Si42  1  0.62915939  0.66601467  0.91933025  1
  Si  Si43  1  0.03442531  0.37024849  0.91908481  1
  Si  Si44  1  0.33517969  0.96296917  0.91915194  1
  Si  Si45  1  0.63229395  0.96998204  0.41685186  1
  Si  Si46  1  0.33656345  0.36522409  0.41638095  1
  Si  Si47  1  0.03244143  0.66438648  0.41662778  1
  P  P48  1  0.30039516  0.99732301  0.24854369  1
  P  P49  1  0.70025490  0.70296356  0.24874100  1
  P  P50  1  0.00026924  0.29836010  0.24824271  1
  P  P51  1  0.00753161  0.70455407  0.75169933  1
  P  P52  1  0.37303222  0.03963918  0.58376952  1
  P  P53  1  0.66707261  0.04387568  0.08311786  1
  O  O54  1  0.21691603  0.02244999  0.30444874  1
  O  O55  1  0.80667007  0.78814230  0.30477415  1
  O  O56  1  0.97913761  0.19262865  0.30450638  1
  O  O57  1  0.22328848  0.18740129  0.81025095  1
  O  O58  1  0.97959936  0.78260193  0.80825543  1
  O  O59  1  0.80749126  0.02835213  0.81051452  1
  O  O60  1  0.76695703  0.94501712  0.69241064  1
  O  O61  1  0.17943943  0.22411926  0.69180176  1
  O  O62  1  0.04268084  0.81490514  0.69541466  1
  O  O63  1  0.78224988  0.80674994  0.19106779  1
  O  O64  1  0.02092433  0.21549490  0.19067035  1
  O  O65  1  0.19652997  0.97550013  0.19099214  1
  O  O66  1  0.88476771  0.35868567  0.64662946  1
  O  O67  1  0.46941867  0.11285031  0.64261323  1
  O  O68  1  0.63630648  0.52366210  0.64597402  1
  O  O69  1  0.88866876  0.51967394  0.14520938  1
  O  O70  1  0.64264859  0.11781261  0.14151591  1
  O  O71  1  0.47460666  0.35918518  0.14602822  1
  O  O72  1  0.47994142  0.31524648  0.02712629  1
  O  O73  1  0.83548868  0.51588291  0.02678349  1
  O  O74  1  0.68079200  0.15873198  0.02816519  1
  O  O75  1  0.47555683  0.15459069  0.52958145  1
  O  O76  1  0.67650068  0.51673708  0.52840490  1
  O  O77  1  0.83811648  0.32064622  0.52868000  1
  O  O78  1  0.55869249  0.70578629  0.97913821  1
  O  O79  1  0.14365802  0.44267814  0.97909099  1
  O  O80  1  0.30160433  0.85611430  0.97957996  1
  O  O81  1  0.55370624  0.85038026  0.47478787  1
  O  O82  1  0.29269409  0.44122191  0.47436978  1
  O  O83  1  0.15135237  0.70558814  0.47476293  1
  O  O84  1  0.10127161  0.61530817  0.35687519  1
  O  O85  1  0.51522654  0.89894815  0.35690098  1
  O  O86  1  0.38520769  0.48395948  0.35673300  1
  O  O87  1  0.13610919  0.50031822  0.86238978  1
  O  O88  1  0.36054815  0.85944386  0.86262358  1
  O  O89  1  0.49690524  0.63639420  0.86301109  1
  O  O90  1  0.99857642  0.82015333  0.41105927  1
  O  O91  1  0.82125083  0.00052760  0.41128688  1
  O  O92  1  0.17831804  0.17685636  0.41074122  1
  O  O93  1  0.00464046  0.18326314  0.91277061  1
  O  O94  1  0.17659901  0.99091410  0.91205470  1
  O  O95  1  0.81767198  0.81686946  0.90993025  1
  O  O96  1  0.97122946  0.16213974  0.58113627  1
  O  O97  1  0.20230824  0.03322332  0.58293959  1
  O  O98  1  0.84708123  0.80597585  0.58280703  1
  O  O99  1  0.95942465  0.80433941  0.08151993  1
  O  O100  1  0.83226386  0.03848577  0.08198038  1
  O  O101  1  0.18929292  0.16184523  0.08130703  1
  O  O102  1  0.66876121  0.15709001  0.74670396  1
  O  O103  1  0.48977891  0.33396680  0.74770068  1
  O  O104  1  0.85535723  0.52649454  0.74802619  1
  O  O105  1  0.68355165  0.52628738  0.24836011  1
  O  O106  1  0.83898196  0.31366230  0.24743554  1
  O  O107  1  0.47910667  0.15517915  0.24687564  1
  O  O108  1  0.63167966  0.48645993  0.92278606  1
  O  O109  1  0.85026240  0.36251835  0.92261847  1
  O  O110  1  0.51256413  0.14628848  0.92250400  1
  O  O111  1  0.64843596  0.15613346  0.42630701  1
  O  O112  1  0.50504012  0.34642248  0.42617286  1
  O  O113  1  0.84418378  0.49404334  0.42596036  1
  O  O114  1  0.35608022  0.50212015  0.08088125  1
  O  O115  1  0.15001219  0.65603856  0.08043731  1
  O  O116  1  0.51362728  0.86791529  0.07885513  1
  O  O117  1  0.35236768  0.86421492  0.57857935  1
  O  O118  1  0.50608176  0.65692392  0.58006276  1
  O  O119  1  0.14775509  0.50301465  0.58047347  1
  O  O120  1  0.31439104  0.83642536  0.25197838  1
  O  O121  1  0.52396027  0.68680019  0.25159804  1
  O  O122  1  0.16006396  0.47440770  0.25106632  1
  O  O123  1  0.31017658  0.48758926  0.75961585  1
  O  O124  1  0.16972373  0.68947652  0.75920519  1
  O  O125  1  0.50592918  0.82548452  0.76004954  1
