# generated using pymatgen
data_Na15Ca7Nb5(PO4)18
_symmetry_space_group_name_H-M   'P 1'
_cell_length_a   9.21200050
_cell_length_b   9.17332190
_cell_length_c   22.94520338
_cell_angle_alpha   89.96725695
_cell_angle_beta   90.08997649
_cell_angle_gamma   120.00487680
_symmetry_Int_Tables_number   1
_chemical_formula_structural   Na15Ca7Nb5(PO4)18
_chemical_formula_sum   'Na15 Ca7 Nb5 P18 O72'
_cell_volume   1679.11807505
_cell_formula_units_Z   1
loop_
 _symmetry_equiv_pos_site_id
 _symmetry_equiv_pos_as_xyz
  1  'x, y, z'
loop_
 _atom_site_type_symbol
 _atom_site_label
 _atom_site_symmetry_multiplicity
 _atom_site_fract_x
 _atom_site_fract_y
 _atom_site_fract_z
 _atom_site_occupancy
  Na  Na0  1  0.98443963  0.63498774  0.24495481  1
  Na  Na1  1  0.65363880  0.64292793  0.74961491  1
  Na  Na2  1  0.98897968  0.34566646  0.74984495  1
  Na  Na3  1  0.35759738  0.01092793  0.74972438  1
  Na  Na4  1  0.29622564  0.33658063  0.58354064  1
  Na  Na5  1  0.04298610  0.70567658  0.58417058  1
  Na  Na6  1  0.66100925  0.95867933  0.58362886  1
  Na  Na7  1  0.65263576  0.68395902  0.07900957  1
  Na  Na8  1  0.31671117  0.01903423  0.41069216  1
  Na  Na9  1  0.98583458  0.99851675  0.49465597  1
  Na  Na10  1  0.01247694  0.01028181  0.98876019  1
  Na  Na11  1  0.66712281  0.33368393  0.83480277  1
  Na  Na12  1  0.66261479  0.32894419  0.32438082  1
  Na  Na13  1  0.32896717  0.66856577  0.15705818  1
  Na  Na14  1  0.33368979  0.66759536  0.66478812  1
  Ca  Ca15  1  0.99284809  0.00319850  0.35213024  1
  Ca  Ca16  1  0.99901125  0.99895017  0.85246640  1
  Ca  Ca17  1  0.99988666  0.00008710  0.65305026  1
  Ca  Ca18  1  0.66680802  0.33276993  0.68349290  1
  Ca  Ca19  1  0.65953282  0.32164514  0.18560621  1
  Ca  Ca20  1  0.32553742  0.66738515  0.01932752  1
  Ca  Ca21  1  0.33333792  0.66349426  0.51249548  1
  Nb  Nb22  1  0.00487066  0.00871365  0.14692593  1
  Nb  Nb23  1  0.66620513  0.32990265  0.98191521  1
  Nb  Nb24  1  0.67155953  0.33868064  0.47757058  1
  Nb  Nb25  1  0.33937997  0.66372128  0.31390939  1
  Nb  Nb26  1  0.33273273  0.66630911  0.82517124  1
  P  P27  1  0.28771924  0.98848518  0.25380385  1
  P  P28  1  0.70450572  0.71319070  0.24974114  1
  P  P29  1  0.01330979  0.30261240  0.25100749  1
  P  P30  1  0.30422090  0.31582501  0.75140004  1
  P  P31  1  0.01215497  0.69548227  0.75135030  1
  P  P32  1  0.68329751  0.98732260  0.75145177  1
  P  P33  1  0.95836451  0.33171836  0.58103284  1
  P  P34  1  0.37350449  0.04203457  0.57983158  1
  P  P35  1  0.66842876  0.62702550  0.58119587  1
  P  P36  1  0.95454987  0.63309827  0.08731510  1
  P  P37  1  0.67995551  0.04370160  0.08419915  1
  P  P38  1  0.37140099  0.32380111  0.08409002  1
  P  P39  1  0.62654677  0.65428269  0.92241388  1
  P  P40  1  0.02733887  0.37289185  0.92041044  1
  P  P41  1  0.34551892  0.97339682  0.92001709  1
  P  P42  1  0.62424596  0.96814360  0.41865063  1
  P  P43  1  0.34503846  0.37418954  0.41817983  1
  P  P44  1  0.03500872  0.65773265  0.41686644  1
  O  O45  1  0.21240169  0.00256792  0.31019244  1
  O  O46  1  0.81078637  0.79170757  0.30251245  1
  O  O47  1  0.98855262  0.20324179  0.30489343  1
  O  O48  1  0.21107976  0.19057791  0.79908546  1
  O  O49  1  0.98020826  0.78825325  0.79920084  1
  O  O50  1  0.80809063  0.01930073  0.79923217  1
  O  O51  1  0.73978897  0.94614725  0.69275630  1
  O  O52  1  0.20647234  0.26011969  0.69264684  1
  O  O53  1  0.05305927  0.79368957  0.69269724  1
  O  O54  1  0.79241860  0.82871660  0.19359374  1
  O  O55  1  0.03020573  0.20214995  0.19605324  1
  O  O56  1  0.16281962  0.96710420  0.20043173  1
  O  O57  1  0.88422381  0.34900154  0.63791951  1
  O  O58  1  0.46642776  0.11889546  0.63643918  1
  O  O59  1  0.65220665  0.53583487  0.63814927  1
  O  O60  1  0.87883651  0.54322880  0.14374042  1
  O  O61  1  0.65505067  0.11767018  0.13826985  1
  O  O62  1  0.47567165  0.35238332  0.13744900  1
  O  O63  1  0.46651985  0.29864924  0.02934102  1
  O  O64  1  0.82911778  0.53047155  0.03414344  1
  O  O65  1  0.69637972  0.16077177  0.02949130  1
  O  O66  1  0.48503408  0.15631916  0.52590188  1
  O  O67  1  0.67042122  0.51157559  0.52824055  1
  O  O68  1  0.84118720  0.32964410  0.52801445  1
  O  O69  1  0.54880077  0.67215311  0.97729814  1
  O  O70  1  0.13081025  0.45580348  0.97281932  1
  O  O71  1  0.32775488  0.87149170  0.97266367  1
  O  O72  1  0.55194031  0.88146854  0.47595832  1
  O  O73  1  0.32260497  0.44046144  0.47536396  1
  O  O74  1  0.12878439  0.68044269  0.47336930  1
  O  O75  1  0.13256880  0.63464919  0.36311266  1
  O  O76  1  0.49717386  0.86045202  0.36628940  1
  O  O77  1  0.36015803  0.49695166  0.36564467  1
  O  O78  1  0.12807774  0.49370530  0.86458936  1
  O  O79  1  0.36407112  0.87220002  0.86425855  1
  O  O80  1  0.50217556  0.63600276  0.86812595  1
  O  O81  1  0.01381996  0.81007203  0.40893944  1
  O  O82  1  0.79973318  0.00128593  0.41096067  1
  O  O83  1  0.20713913  0.19380250  0.40914010  1
  O  O84  1  0.99395197  0.19722828  0.90925928  1
  O  O85  1  0.20357630  0.00681718  0.90947469  1
  O  O86  1  0.79997587  0.79835623  0.91036449  1
  O  O87  1  0.95859784  0.16420219  0.57620613  1
  O  O88  1  0.20500414  0.03992904  0.57568068  1
  O  O89  1  0.83484673  0.79518061  0.57624168  1
  O  O90  1  0.95541721  0.81011773  0.09027998  1
  O  O91  1  0.85363248  0.04067437  0.09012163  1
  O  O92  1  0.19346639  0.15495698  0.09164261  1
  O  O93  1  0.64932009  0.13585909  0.74899250  1
  O  O94  1  0.48592374  0.34930313  0.74882138  1
  O  O95  1  0.86405804  0.51296837  0.74876819  1
  O  O96  1  0.67659855  0.53649696  0.24216314  1
  O  O97  1  0.87856640  0.35011481  0.24251649  1
  O  O98  1  0.46470046  0.13014249  0.24567236  1
  O  O99  1  0.62950751  0.48233048  0.92431538  1
  O  O100  1  0.85391746  0.37205091  0.92445987  1
  O  O101  1  0.51842802  0.14765363  0.92340762  1
  O  O102  1  0.62114155  0.14166167  0.41878002  1
  O  O103  1  0.51645757  0.36992203  0.42005712  1
  O  O104  1  0.85658529  0.49076688  0.42161155  1
  O  O105  1  0.34568335  0.47310704  0.07506659  1
  O  O106  1  0.13134392  0.66824923  0.07914236  1
  O  O107  1  0.54506939  0.86062336  0.07605160  1
  O  O108  1  0.35058617  0.86441587  0.57620098  1
  O  O109  1  0.51423048  0.64855460  0.57628467  1
  O  O110  1  0.13443582  0.48615580  0.57639853  1
  O  O111  1  0.28754546  0.81160140  0.25660818  1
  O  O112  1  0.52525240  0.70210355  0.25954653  1
  O  O113  1  0.18663027  0.47970481  0.25681624  1
  O  O114  1  0.31911971  0.49369719  0.76470557  1
  O  O115  1  0.17538528  0.68199781  0.76429120  1
  O  O116  1  0.50672177  0.82357092  0.76447477  1
