# generated using pymatgen
data_La2Mg(FeO3)2
_symmetry_space_group_name_H-M   'P 1'
_cell_length_a   5.96350045
_cell_length_b   6.64372790
_cell_length_c   5.77949278
_cell_angle_alpha   63.90349874
_cell_angle_beta   71.21970567
_cell_angle_gamma   51.08039019
_symmetry_Int_Tables_number   1
_chemical_formula_structural   La2Mg(FeO3)2
_chemical_formula_sum   'La2 Mg1 Fe2 O6'
_cell_volume   159.65196990
_cell_formula_units_Z   1
loop_
 _symmetry_equiv_pos_site_id
 _symmetry_equiv_pos_as_xyz
  1  'x, y, z'
loop_
 _atom_site_type_symbol
 _atom_site_label
 _atom_site_symmetry_multiplicity
 _atom_site_fract_x
 _atom_site_fract_y
 _atom_site_fract_z
 _atom_site_occupancy
  La  La0  1  0.24438219  0.33546768  0.24486415  1
  La  La1  1  0.70016452  0.68911232  0.73716410  1
  Mg  Mg2  1  0.99510521  -0.00295513  0.50549738  1
  Fe  Fe3  1  0.49712075  0.50225072  0.47999241  1
  Fe  Fe4  1  0.99871794  0.00768568  0.00219228  1
  O  O5  1  0.55240847  0.14281540  0.59302347  1
  O  O6  1  0.05910925  0.72568520  0.36805676  1
  O  O7  1  0.86473286  0.31210308  0.13958820  1
  O  O8  1  0.91885226  0.28235779  0.63422826  1
  O  O9  1  0.16120084  0.70225115  0.85658340  1
  O  O10  1  0.43684571  0.86282011  0.37935461  1
