# generated using pymatgen
data_Na14Mg5Zr3(PO4)12
_symmetry_space_group_name_H-M   'P 1'
_cell_length_a   18.04717101
_cell_length_b   9.02098341
_cell_length_c   22.45018137
_cell_angle_alpha   90.10517022
_cell_angle_beta   89.91518390
_cell_angle_gamma   120.13426866
_symmetry_Int_Tables_number   1
_chemical_formula_structural   Na14Mg5Zr3(PO4)12
_chemical_formula_sum   'Na42 Mg15 Zr9 P36 O144'
_cell_volume   3160.99273620
_cell_formula_units_Z   3
loop_
 _symmetry_equiv_pos_site_id
 _symmetry_equiv_pos_as_xyz
  1  'x, y, z'
loop_
 _atom_site_type_symbol
 _atom_site_label
 _atom_site_symmetry_multiplicity
 _atom_site_fract_x
 _atom_site_fract_y
 _atom_site_fract_z
 _atom_site_occupancy
  Na  Na0  1  0.18434225  0.36049058  0.24772791  1
  Na  Na1  1  0.68483650  0.36154258  0.24812682  1
  Na  Na2  1  0.99484426  0.62932742  0.24849473  1
  Na  Na3  1  0.49491745  0.62869683  0.24770462  1
  Na  Na4  1  0.31939368  0.63007522  0.74769016  1
  Na  Na5  1  0.81986242  0.63181430  0.74788489  1
  Na  Na6  1  0.18525889  0.01083192  0.74770000  1
  Na  Na7  1  0.68574461  0.01007650  0.74741829  1
  Na  Na8  1  0.15446561  0.34258445  0.57975686  1
  Na  Na9  1  0.65474382  0.34309639  0.57965403  1
  Na  Na10  1  0.01622146  0.68968599  0.58005937  1
  Na  Na11  1  0.51620284  0.68933013  0.57996708  1
  Na  Na12  1  0.32848387  0.96728407  0.57955443  1
  Na  Na13  1  0.82868853  0.96714156  0.57982192  1
  Na  Na14  1  0.15544518  0.96965280  0.08017551  1
  Na  Na15  1  0.65292586  0.96314798  0.08180574  1
  Na  Na16  1  0.32838077  0.68963338  0.07990393  1
  Na  Na17  1  0.01894297  0.34326230  0.08151891  1
  Na  Na18  1  0.51607299  0.34347736  0.07945539  1
  Na  Na19  1  0.48140481  0.66490368  0.91828220  1
  Na  Na20  1  0.98717608  0.67826300  0.91471544  1
  Na  Na21  1  0.35082829  0.03564931  0.91807221  1
  Na  Na22  1  0.16744255  0.29606628  0.91826888  1
  Na  Na23  1  0.66233142  0.30050488  0.91511785  1
  Na  Na24  1  0.48232883  0.29839525  0.41808318  1
  Na  Na25  1  0.98232188  0.29823297  0.41802069  1
  Na  Na26  1  0.16681001  0.03567923  0.41817156  1
  Na  Na27  1  0.66691385  0.03565813  0.41825519  1
  Na  Na28  1  0.35089875  0.66591903  0.41833937  1
  Na  Na29  1  0.85104433  0.66614495  0.41817820  1
  Na  Na30  1  0.99997653  0.00024426  0.49518826  1
  Na  Na31  1  0.49995689  0.00025660  0.49505484  1
  Na  Na32  1  0.99234613  0.99416369  0.99477765  1
  Na  Na33  1  0.49888908  0.99909851  0.99537495  1
  Na  Na34  1  0.33765921  0.33366469  0.83217224  1
  Na  Na35  1  0.83862766  0.32714877  0.82819078  1
  Na  Na36  1  0.33296535  0.32418513  0.33227553  1
  Na  Na37  1  0.83327365  0.32468097  0.33242278  1
  Na  Na38  1  0.17088122  0.67499812  0.16320076  1
  Na  Na39  1  0.67443911  0.67504745  0.16146034  1
  Na  Na40  1  0.16241187  0.65912325  0.66253240  1
  Na  Na41  1  0.66282918  0.65975230  0.66269208  1
  Mg  Mg42  1  0.99942617  0.00083724  0.34975657  1
  Mg  Mg43  1  0.49947984  0.00093430  0.34990488  1
  Mg  Mg44  1  0.99680987  0.00206773  0.85083742  1
  Mg  Mg45  1  0.49908487  0.00043130  0.84970262  1
  Mg  Mg46  1  0.33676022  0.33399661  0.68290190  1
  Mg  Mg47  1  0.83700279  0.33403931  0.68268153  1
  Mg  Mg48  1  0.33277573  0.32623161  0.18294375  1
  Mg  Mg49  1  0.83290886  0.32737836  0.18429895  1
  Mg  Mg50  1  0.33313370  0.33252034  0.98435112  1
  Mg  Mg51  1  0.33365136  0.33338689  0.48408971  1
  Mg  Mg52  1  0.83374970  0.33354613  0.48409384  1
  Mg  Mg53  1  0.16742361  0.66776061  0.01623037  1
  Mg  Mg54  1  0.67036132  0.66777765  0.01719431  1
  Mg  Mg55  1  0.16645784  0.66647699  0.51599869  1
  Mg  Mg56  1  0.66655618  0.66651285  0.51599903  1
  Zr  Zr57  1  0.99960417  0.00228544  0.64945068  1
  Zr  Zr58  1  0.49987889  0.00207725  0.64919600  1
  Zr  Zr59  1  0.99614047  0.99502901  0.14852731  1
  Zr  Zr60  1  0.49878692  -0.00003392  0.14933202  1
  Zr  Zr61  1  0.83355395  0.32975173  0.98185498  1
  Zr  Zr62  1  0.16900580  0.67241702  0.31595334  1
  Zr  Zr63  1  0.66916790  0.67261236  0.31601641  1
  Zr  Zr64  1  0.16432817  0.66264239  0.81564635  1
  Zr  Zr65  1  0.66469975  0.66282299  0.81603922  1
  P  P66  1  0.14798129  0.00446105  0.25134733  1
  P  P67  1  0.64848623  0.00466157  0.25180195  1
  P  P68  1  0.35338780  0.70295188  0.25191179  1
  P  P69  1  0.85339964  0.70293632  0.25266160  1
  P  P70  1  0.99720004  0.29200400  0.25212272  1
  P  P71  1  0.49728111  0.29292573  0.25250578  1
  P  P72  1  0.14831959  0.29266465  0.75214100  1
  P  P73  1  0.64854573  0.29340080  0.75198092  1
  P  P74  1  0.99773543  0.70329502  0.75194938  1
  P  P75  1  0.49775098  0.70294234  0.75186481  1
  P  P76  1  0.35364169  0.00583578  0.75249637  1
  P  P77  1  0.85414761  0.00551871  0.75208759  1
  P  P78  1  0.47950829  0.33696181  0.58230103  1
  P  P79  1  0.97960630  0.33695291  0.58219476  1
  P  P80  1  0.18830750  0.04047828  0.58340644  1
  P  P81  1  0.68837160  0.04050293  0.58332040  1
  P  P82  1  0.33158322  0.62267011  0.58347989  1
  P  P83  1  0.83164469  0.62273681  0.58345956  1
  P  P84  1  0.47982602  0.62317342  0.08332706  1
  P  P85  1  0.98111755  0.62569691  0.08496578  1
  P  P86  1  0.33158819  0.04099158  0.08228718  1
  P  P87  1  0.83061662  0.03737354  0.08525875  1
  P  P88  1  0.18804335  0.33582768  0.08355830  1
  P  P89  1  0.68800811  0.33980829  0.08574536  1
  P  P90  1  0.31516847  0.66712662  0.91849351  1
  P  P91  1  0.81481914  0.67188151  0.91826402  1
  P  P92  1  0.02053521  0.36896006  0.91940407  1
  P  P93  1  0.51814408  0.36936933  0.92000853  1
  P  P94  1  0.16644136  0.96342994  0.91864762  1
  P  P95  1  0.66455995  0.95844024  0.91836215  1
  P  P96  1  0.31574718  0.96393069  0.41991831  1
  P  P97  1  0.81577073  0.96404630  0.41995292  1
  P  P98  1  0.16639395  0.36966704  0.41849562  1
  P  P99  1  0.66637597  0.36960036  0.41851423  1
  P  P100  1  0.01840983  0.66754857  0.41857043  1
  P  P101  1  0.51842549  0.66748442  0.41851407  1
  O  O102  1  0.10489295  0.02751283  0.30613439  1
  O  O103  1  0.60494694  0.02776321  0.30626420  1
  O  O104  1  0.40893752  0.78902421  0.30596339  1
  O  O105  1  0.90814659  0.78628451  0.30738977  1
  O  O106  1  0.48842201  0.18694642  0.30694062  1
  O  O107  1  0.98838406  0.18712193  0.30694817  1
  O  O108  1  0.10544782  0.18154222  0.80609801  1
  O  O109  1  0.60574855  0.18268986  0.80629371  1
  O  O110  1  0.48626194  0.78988163  0.80645296  1
  O  O111  1  0.98654296  0.78983753  0.80664048  1
  O  O112  1  0.40637227  0.02315161  0.80707115  1
  O  O113  1  0.90906120  0.02405555  0.80425576  1
  O  O114  1  0.39403981  0.97037878  0.69582763  1
  O  O115  1  0.89239488  0.96939641  0.69410144  1
  O  O116  1  0.09285226  0.21102046  0.69486830  1
  O  O117  1  0.59289370  0.21076986  0.69504303  1
  O  O118  1  0.01480588  0.81950779  0.69530783  1
  O  O119  1  0.51495686  0.81979923  0.69536671  1
  O  O120  1  0.39459334  0.81442544  0.19481105  1
  O  O121  1  0.89633398  0.81843873  0.19710234  1
  O  O122  1  0.01446861  0.21057997  0.19545396  1
  O  O123  1  0.51484008  0.21171391  0.19566358  1
  O  O124  1  0.08956807  0.96970408  0.19486678  1
  O  O125  1  0.59025874  0.97046093  0.19510859  1
  O  O126  1  0.43762852  0.36448332  0.63651982  1
  O  O127  1  0.93773200  0.36460765  0.63646588  1
  O  O128  1  0.24139023  0.12107314  0.63968678  1
  O  O129  1  0.74129472  0.12127332  0.63967865  1
  O  O130  1  0.31855956  0.51654455  0.63971988  1
  O  O131  1  0.81845533  0.51631464  0.63971993  1
  O  O132  1  0.43920220  0.51720718  0.13955477  1
  O  O133  1  0.93890484  0.51578924  0.13943398  1
  O  O134  1  0.31788014  0.12474275  0.13647622  1
  O  O135  1  0.81796798  0.12511557  0.13833621  1
  O  O136  1  0.24179103  0.36346178  0.13956729  1
  O  O137  1  0.74009569  0.35688771  0.14063586  1
  O  O138  1  0.22556039  0.29968824  0.02773390  1
  O  O139  1  0.72790755  0.30346527  0.02895897  1
  O  O140  1  0.42404124  0.54858477  0.02754918  1
  O  O141  1  0.92580278  0.54309536  0.02786789  1
  O  O142  1  0.35104699  0.14957623  0.02568397  1
  O  O143  1  0.84899325  0.15576297  0.02916668  1
  O  O144  1  0.22577319  0.15176661  0.52773065  1
  O  O145  1  0.72569954  0.15171606  0.52767026  1
  O  O146  1  0.35023929  0.54855640  0.52772785  1
  O  O147  1  0.85003816  0.54818676  0.52772911  1
  O  O148  1  0.42517793  0.29796038  0.52576473  1
  O  O149  1  0.92517880  0.29805706  0.52573477  1
  O  O150  1  0.27255095  0.69658836  0.97260843  1
  O  O151  1  0.76931160  0.69015694  0.97079005  1
  O  O152  1  0.07424852  0.45384437  0.97476050  1
  O  O153  1  0.57511216  0.45268413  0.97426140  1
  O  O154  1  0.15116955  0.84749925  0.97250774  1
  O  O155  1  0.65175830  0.84893879  0.97286300  1
  O  O156  1  0.27389262  0.84997258  0.47432088  1
  O  O157  1  0.77382196  0.84999178  0.47432988  1
  O  O158  1  0.15177607  0.45501530  0.47268221  1
  O  O159  1  0.65167564  0.45485064  0.47271866  1
  O  O160  1  0.07594283  0.69732587  0.47258116  1
  O  O161  1  0.57593356  0.69741772  0.47257610  1
  O  O162  1  0.06225554  0.63949202  0.36177898  1
  O  O163  1  0.56227182  0.63948460  0.36179223  1
  O  O164  1  0.25586006  0.87255677  0.36464303  1
  O  O165  1  0.75588840  0.87275133  0.36469426  1
  O  O166  1  0.18043915  0.48572880  0.36192338  1
  O  O167  1  0.68035815  0.48549007  0.36196636  1
  O  O168  1  0.06289260  0.48967798  0.86431471  1
  O  O169  1  0.56429649  0.48913541  0.86467873  1
  O  O170  1  0.18024708  0.87487735  0.86194952  1
  O  O171  1  0.67922284  0.87695032  0.86116907  1
  O  O172  1  0.25710901  0.63914484  0.86197738  1
  O  O173  1  0.75842838  0.63559106  0.86041276  1
  O  O174  1  0.01017830  0.82883456  0.41102859  1
  O  O175  1  0.51008219  0.82870131  0.41092463  1
  O  O176  1  0.40434220  0.98005783  0.41129679  1
  O  O177  1  0.90436464  0.98025803  0.41135339  1
  O  O178  1  0.08572355  0.19121925  0.41104321  1
  O  O179  1  0.58566281  0.19110252  0.41109349  1
  O  O180  1  0.01362365  0.19548687  0.91064702  1
  O  O181  1  0.50999909  0.19169869  0.91107988  1
  O  O182  1  0.08617021  0.98060649  0.91087703  1
  O  O183  1  0.58537458  0.97984599  0.91115979  1
  O  O184  1  0.40441630  0.82857778  0.91109081  1
  O  O185  1  0.90639763  0.82162025  0.91098561  1
  O  O186  1  0.48977601  0.17192807  0.58976402  1
  O  O187  1  0.98993140  0.17209456  0.58957576  1
  O  O188  1  0.09549826  0.01972814  0.58966749  1
  O  O189  1  0.59553722  0.01978138  0.58963158  1
  O  O190  1  0.41429431  0.80863502  0.58990329  1
  O  O191  1  0.91441674  0.80839903  0.58976342  1
  O  O192  1  0.49001503  0.80899777  0.08953571  1
  O  O193  1  0.99281864  0.80976852  0.08839640  1
  O  O194  1  0.41408281  0.02036189  0.08956534  1
  O  O195  1  0.91547194  0.02936984  0.08903998  1
  O  O196  1  0.09538362  0.17094936  0.09018549  1
  O  O197  1  0.59662776  0.16900258  0.08879630  1
  O  O198  1  0.33825853  0.15584832  0.74470396  1
  O  O199  1  0.83794912  0.15559437  0.74441338  1
  O  O200  1  0.23794748  0.31415810  0.74450149  1
  O  O201  1  0.73800763  0.31399220  0.74469087  1
  O  O202  1  0.41765490  0.52849048  0.74369447  1
  O  O203  1  0.91757559  0.52817579  0.74373698  1
  O  O204  1  0.34307210  0.52416944  0.24440367  1
  O  O205  1  0.84318598  0.52443218  0.24439392  1
  O  O206  1  0.42206060  0.32319305  0.24458300  1
  O  O207  1  0.92230328  0.32354338  0.24453426  1
  O  O208  1  0.23547742  0.16452560  0.24339847  1
  O  O209  1  0.73577692  0.16471842  0.24388618  1
  O  O210  1  0.32214148  0.50367153  0.92135164  1
  O  O211  1  0.82116084  0.50216218  0.92222335  1
  O  O212  1  0.42949564  0.35541258  0.92189023  1
  O  O213  1  0.93185053  0.36165049  0.92233425  1
  O  O214  1  0.24858602  0.14067747  0.92160049  1
  O  O215  1  0.74514333  0.14299283  0.92193632  1
  O  O216  1  0.32233923  0.14096491  0.42207728  1
  O  O217  1  0.82229349  0.14103367  0.42210860  1
  O  O218  1  0.24817645  0.35582115  0.42143845  1
  O  O219  1  0.74812989  0.35569622  0.42145188  1
  O  O220  1  0.42958665  0.50362958  0.42151620  1
  O  O221  1  0.92959397  0.50364708  0.42152730  1
  O  O222  1  0.17536714  0.49317142  0.07782801  1
  O  O223  1  0.67166274  0.48892223  0.07821055  1
  O  O224  1  0.07110998  0.64708885  0.07782136  1
  O  O225  1  0.57116185  0.64959400  0.07770148  1
  O  O226  1  0.25326037  0.85714011  0.07723161  1
  O  O227  1  0.75110508  0.86195249  0.07665331  1
  O  O228  1  0.17530696  0.85753263  0.57782923  1
  O  O229  1  0.67526309  0.85754962  0.57782976  1
  O  O230  1  0.25322870  0.64858838  0.57791825  1
  O  O231  1  0.75321597  0.64850203  0.57792394  1
  O  O232  1  0.07146171  0.49345007  0.57721541  1
  O  O233  1  0.57142858  0.49334041  0.57726102  1
  O  O234  1  0.15191163  0.83463038  0.25513962  1
  O  O235  1  0.65210465  0.83481160  0.25533750  1
  O  O236  1  0.26174424  0.68118493  0.25518228  1
  O  O237  1  0.76171870  0.68072427  0.25551125  1
  O  O238  1  0.08232923  0.47412560  0.25524968  1
  O  O239  1  0.58234476  0.47426911  0.25552962  1
  O  O240  1  0.15942185  0.47644358  0.75543697  1
  O  O241  1  0.65938073  0.47661194  0.75533140  1
  O  O242  1  0.08256815  0.69532140  0.75536826  1
  O  O243  1  0.58269659  0.69559735  0.75550244  1
  O  O244  1  0.26286735  0.83549523  0.75552310  1
  O  O245  1  0.76286963  0.83574367  0.75568466  1
