# generated using pymatgen
data_Na4AlSi2SnPO12
_symmetry_space_group_name_H-M   'P 1'
_cell_length_a   8.92505285
_cell_length_b   8.92505255
_cell_length_c   22.02000554
_cell_angle_alpha   90.08311222
_cell_angle_beta   89.91688778
_cell_angle_gamma   119.75073485
_symmetry_Int_Tables_number   1
_chemical_formula_structural   Na4AlSi2SnPO12
_chemical_formula_sum   'Na24 Al6 Si12 Sn6 P6 O72'
_cell_volume   1522.84042367
_cell_formula_units_Z   6
loop_
 _symmetry_equiv_pos_site_id
 _symmetry_equiv_pos_as_xyz
  1  'x, y, z'
loop_
 _atom_site_type_symbol
 _atom_site_label
 _atom_site_symmetry_multiplicity
 _atom_site_fract_x
 _atom_site_fract_y
 _atom_site_fract_z
 _atom_site_occupancy
  Na  Na0  1  0.63812360  0.00270540  0.25026671  1
  Na  Na1  1  0.36817372  0.36691351  0.24713677  1
  Na  Na2  1  0.99378090  0.62773751  0.24995806  1
  Na  Na3  1  0.63308649  0.63182628  0.74713677  1
  Na  Na4  1  0.99729460  0.36187640  0.75026671  1
  Na  Na5  1  0.37226249  0.00621910  0.74995806  1
  Na  Na6  1  0.30479060  0.33603840  0.58359971  1
  Na  Na7  1  0.03484072  0.70024651  0.58046977  1
  Na  Na8  1  0.66044790  0.96107051  0.58329106  1
  Na  Na9  1  0.29975349  0.96515928  0.08046977  1
  Na  Na10  1  0.66396160  0.69520940  0.08359971  1
  Na  Na11  1  0.03892949  0.33955210  0.08329106  1
  Na  Na12  1  0.97145660  0.66937240  0.91693371  1
  Na  Na13  1  0.70150672  0.03358051  0.91380377  1
  Na  Na14  1  0.32711390  0.29440451  0.91662506  1
  Na  Na15  1  0.96641949  0.29849328  0.41380377  1
  Na  Na16  1  0.33062760  0.02854340  0.41693371  1
  Na  Na17  1  0.70559549  0.67288610  0.41662506  1
  Na  Na18  1  0.99817463  0.99498881  0.49777979  1
  Na  Na19  1  0.00501119  0.00182537  0.99777979  1
  Na  Na20  1  0.66484163  0.32832181  0.83111279  1
  Na  Na21  1  0.67167819  0.33515837  0.33111279  1
  Na  Na22  1  0.33150763  0.66165581  0.16444679  1
  Na  Na23  1  0.33834419  0.66849237  0.66444679  1
  Al  Al24  1  0.98666048  0.99101680  0.35233596  1
  Al  Al25  1  0.00898320  0.01333952  0.85233596  1
  Al  Al26  1  0.65332748  0.32434980  0.68566896  1
  Al  Al27  1  0.67565020  0.34667252  0.18566896  1
  Al  Al28  1  0.31999348  0.65768380  0.01900296  1
  Al  Al29  1  0.34231620  0.68000652  0.51900296  1
  Si  Si30  1  0.70968097  0.70500172  0.25153830  1
  Si  Si31  1  0.99381895  0.28823736  0.25217192  1
  Si  Si32  1  0.29499828  0.29031903  0.75153830  1
  Si  Si33  1  0.71176264  0.00618105  0.75217192  1
  Si  Si34  1  0.37634797  0.03833472  0.58487130  1
  Si  Si35  1  0.66048595  0.62157036  0.58550492  1
  Si  Si36  1  0.96166528  0.62365203  0.08487130  1
  Si  Si37  1  0.37842964  0.33951405  0.08550492  1
  Si  Si38  1  0.04301397  0.37166872  0.91820530  1
  Si  Si39  1  0.32715195  0.95490436  0.91883892  1
  Si  Si40  1  0.62833128  0.95698603  0.41820530  1
  Si  Si41  1  0.04509564  0.67284805  0.41883892  1
  Sn  Sn42  1  0.99859003  0.99946845  0.64946944  1
  Sn  Sn43  1  0.00053155  0.00140997  0.14946944  1
  Sn  Sn44  1  0.66525703  0.33280145  0.98280244  1
  Sn  Sn45  1  0.66719855  0.33474297  0.48280244  1
  Sn  Sn46  1  0.33192303  0.66613545  0.31613644  1
  Sn  Sn47  1  0.33386455  0.66807697  0.81613644  1
  P  P48  1  0.29289958  0.00488719  0.25222290  1
  P  P49  1  0.99511281  0.70710042  0.75222290  1
  P  P50  1  0.95956658  0.33822019  0.58555590  1
  P  P51  1  0.66177981  0.04043342  0.08555590  1
  P  P52  1  0.62623258  0.67155419  0.91888990  1
  P  P53  1  0.32844581  0.37376742  0.41888990  1
  O  O54  1  0.20520493  0.03457176  0.30710907  1
  O  O55  1  0.83608898  0.79702493  0.30927930  1
  O  O56  1  0.96740906  0.16377223  0.31011190  1
  O  O57  1  0.20297507  0.16391102  0.80927930  1
  O  O58  1  0.96542824  0.79479507  0.80710907  1
  O  O59  1  0.83622777  0.03259094  0.81011190  1
  O  O60  1  0.78154109  0.95559628  0.69048735  1
  O  O61  1  0.17418911  0.21809124  0.69027490  1
  O  O62  1  0.03887249  0.81987106  0.69338945  1
  O  O63  1  0.78190876  0.82581089  0.19027490  1
  O  O64  1  0.04440372  0.21845891  0.19048735  1
  O  O65  1  0.18012894  0.96112751  0.19338945  1
  O  O66  1  0.87187193  0.36790476  0.64044207  1
  O  O67  1  0.50275598  0.13035793  0.64261230  1
  O  O68  1  0.63407606  0.49710523  0.64344490  1
  O  O69  1  0.86964207  0.49724402  0.14261230  1
  O  O70  1  0.63209524  0.12812807  0.14044207  1
  O  O71  1  0.50289477  0.36592394  0.14344490  1
  O  O72  1  0.44820809  0.28892928  0.02382035  1
  O  O73  1  0.84085611  0.55142424  0.02360790  1
  O  O74  1  0.70553949  0.15320406  0.02672245  1
  O  O75  1  0.44857576  0.15914389  0.52360790  1
  O  O76  1  0.71107072  0.55179191  0.52382035  1
  O  O77  1  0.84679594  0.29446051  0.52672245  1
  O  O78  1  0.53853793  0.70123876  0.97377607  1
  O  O79  1  0.16942198  0.46369193  0.97594630  1
  O  O80  1  0.30074206  0.83043923  0.97677890  1
  O  O81  1  0.53630807  0.83057802  0.47594630  1
  O  O82  1  0.29876124  0.46146207  0.47377607  1
  O  O83  1  0.16956077  0.69925794  0.47677890  1
  O  O84  1  0.11487409  0.62226328  0.35715435  1
  O  O85  1  0.50752211  0.88475824  0.35694190  1
  O  O86  1  0.37220549  0.48653806  0.36005645  1
  O  O87  1  0.11524176  0.49247789  0.85694190  1
  O  O88  1  0.37773672  0.88512591  0.85715435  1
  O  O89  1  0.51346194  0.62779451  0.86005645  1
  O  O90  1  0.03001422  0.84763959  0.40975934  1
  O  O91  1  0.82071566  0.97831740  0.41065005  1
  O  O92  1  0.16862235  0.19316713  0.41064750  1
  O  O93  1  0.02168260  0.17928434  0.91065005  1
  O  O94  1  0.15236041  0.96998578  0.90975934  1
  O  O95  1  0.80683287  0.83137765  0.91064750  1
  O  O96  1  0.97721982  0.17219767  0.58841302  1
  O  O97  1  0.18331996  0.02119878  0.58875136  1
  O  O98  1  0.83509979  0.81579554  0.58824690  1
  O  O99  1  0.97880122  0.81668004  0.08875136  1
  O  O100  1  0.82780233  0.02278018  0.08841302  1
  O  O101  1  0.18420446  0.16490021  0.08824690  1
  O  O102  1  0.69668122  0.18097259  0.74309234  1
  O  O103  1  0.48738266  0.31165040  0.74398305  1
  O  O104  1  0.83528935  0.52650013  0.74398050  1
  O  O105  1  0.68834960  0.51261734  0.24398305  1
  O  O106  1  0.81902741  0.30331878  0.24309234  1
  O  O107  1  0.47349987  0.16471065  0.24398050  1
  O  O108  1  0.64388682  0.50553067  0.92174602  1
  O  O109  1  0.84998696  0.35453178  0.92208436  1
  O  O110  1  0.50176679  0.14912854  0.92157990  1
  O  O111  1  0.64546822  0.15001304  0.42208436  1
  O  O112  1  0.49446933  0.35611318  0.42174602  1
  O  O113  1  0.85087146  0.49823321  0.42157990  1
  O  O114  1  0.36334722  0.51430659  0.07642634  1
  O  O115  1  0.15404866  0.64498440  0.07731705  1
  O  O116  1  0.50195535  0.85983413  0.07731450  1
  O  O117  1  0.35501560  0.84595134  0.57731705  1
  O  O118  1  0.48569341  0.63665278  0.57642634  1
  O  O119  1  0.14016587  0.49804465  0.57731450  1
  O  O120  1  0.31055282  0.83886467  0.25508002  1
  O  O121  1  0.51665296  0.68786578  0.25541836  1
  O  O122  1  0.16843279  0.48246254  0.25491390  1
  O  O123  1  0.31213422  0.48334704  0.75541836  1
  O  O124  1  0.16113533  0.68944718  0.75508002  1
  O  O125  1  0.51753746  0.83156721  0.75491390  1
