# generated using pymatgen
data_CaH2
_symmetry_space_group_name_H-M   'P 1'
_cell_length_a   3.81411849
_cell_length_b   3.81411849
_cell_length_c   5.34611167
_cell_angle_alpha   90.00000000
_cell_angle_beta   90.00000000
_cell_angle_gamma   120.45054859
_symmetry_Int_Tables_number   1
_chemical_formula_structural   CaH2
_chemical_formula_sum   'Ca2 H4'
_cell_volume   67.04514796
_cell_formula_units_Z   2
loop_
 _symmetry_equiv_pos_site_id
 _symmetry_equiv_pos_as_xyz
  1  'x, y, z'
loop_
 _atom_site_type_symbol
 _atom_site_label
 _atom_site_symmetry_multiplicity
 _atom_site_fract_x
 _atom_site_fract_y
 _atom_site_fract_z
 _atom_site_occupancy
  Ca  Ca0  1  0.16436503  0.83563497  0.25000000  1
  Ca  Ca1  1  0.83563497  0.16436503  0.75000000  1
  H  H2  1  0.83215228  0.16784772  0.25000000  1
  H  H3  1  0.16784772  0.83215228  0.75000000  1
  H  H4  1  0.50000000  0.50000000  0.00000000  1
  H  H5  1  0.50000000  0.50000000  0.50000000  1
