# generated using pymatgen
data_Na9Ca5Ta7Si9(SO8)9
_symmetry_space_group_name_H-M   'P 1'
_cell_length_a   9.10188701
_cell_length_b   9.08693896
_cell_length_c   23.01029470
_cell_angle_alpha   89.69376925
_cell_angle_beta   90.71668862
_cell_angle_gamma   120.20599947
_symmetry_Int_Tables_number   1
_chemical_formula_structural   Na9Ca5Ta7Si9(SO8)9
_chemical_formula_sum   'Na9 Ca5 Ta7 Si9 S9 O72'
_cell_volume   1644.60790825
_cell_formula_units_Z   1
loop_
 _symmetry_equiv_pos_site_id
 _symmetry_equiv_pos_as_xyz
  1  'x, y, z'
loop_
 _atom_site_type_symbol
 _atom_site_label
 _atom_site_symmetry_multiplicity
 _atom_site_fract_x
 _atom_site_fract_y
 _atom_site_fract_z
 _atom_site_occupancy
  Na  Na0  1  0.97243402  0.34356837  0.74597778  1
  Na  Na1  1  0.63857020  0.97504199  0.58054107  1
  Na  Na2  1  0.32627448  0.01944671  0.40549215  1
  Na  Na3  1  0.98246934  0.00570486  0.49517475  1
  Na  Na4  1  0.97711067  0.00169264  0.99305469  1
  Na  Na5  1  0.65625744  0.31151524  0.82991509  1
  Na  Na6  1  0.66098226  0.32423121  0.32219758  1
  Na  Na7  1  0.32694669  0.68706603  0.16350473  1
  Na  Na8  1  0.30463912  0.66869786  0.65617176  1
  Ca  Ca9  1  0.99466277  0.00288548  0.35002806  1
  Ca  Ca10  1  0.99042927  0.99567278  0.86107021  1
  Ca  Ca11  1  0.66212165  0.33013838  0.68695351  1
  Ca  Ca12  1  0.66752927  0.32260291  0.18057444  1
  Ca  Ca13  1  0.32645525  0.65813085  0.51891773  1
  Ta  Ta14  1  0.99030356  0.99939387  0.64499944  1
  Ta  Ta15  1  0.00053995  0.99246352  0.14419260  1
  Ta  Ta16  1  0.69948501  0.34808024  0.97891942  1
  Ta  Ta17  1  0.65859728  0.31332260  0.48389445  1
  Ta  Ta18  1  0.33718880  0.66341679  0.02045319  1
  Ta  Ta19  1  0.33956254  0.68348861  0.31159676  1
  Ta  Ta20  1  0.34578502  0.66567589  0.81536580  1
  Si  Si21  1  0.29565840  0.00854670  0.25522861  1
  Si  Si22  1  0.70006913  0.99300487  0.75215293  1
  Si  Si23  1  0.96467858  0.33310359  0.59033142  1
  Si  Si24  1  0.35717138  0.03372039  0.58613522  1
  Si  Si25  1  0.97202600  0.63047112  0.08496245  1
  Si  Si26  1  0.66707418  0.03836551  0.08361956  1
  Si  Si27  1  0.61877156  0.64776032  0.92156257  1
  Si  Si28  1  0.05105751  0.38386048  0.91635470  1
  Si  Si29  1  0.63441989  0.96689090  0.42219243  1
  S  S30  1  0.69817108  0.71070671  0.24840780  1
  S  S31  1  0.01534235  0.30571437  0.24952887  1
  S  S32  1  0.28209665  0.29502038  0.75127812  1
  S  S33  1  0.01552667  0.71833562  0.75148842  1
  S  S34  1  0.68011818  0.63067365  0.58255875  1
  S  S35  1  0.36540613  0.32974594  0.08254321  1
  S  S36  1  0.35078628  0.95454961  0.91777796  1
  S  S37  1  0.35047005  0.38057999  0.41544867  1
  S  S38  1  0.03206901  0.65095263  0.41395203  1
  O  O39  1  0.21483515  0.00277522  0.31594215  1
  O  O40  1  0.79221152  0.78461674  0.30151435  1
  O  O41  1  0.99318246  0.20834078  0.30210874  1
  O  O42  1  0.21293528  0.19676260  0.80331171  1
  O  O43  1  0.00952135  0.80233637  0.80344373  1
  O  O44  1  0.82873545  0.02310767  0.80297364  1
  O  O45  1  0.79928275  0.96686336  0.69106923  1
  O  O46  1  0.16868575  0.20374062  0.69845481  1
  O  O47  1  0.02776593  0.82222508  0.69756726  1
  O  O48  1  0.78452206  0.82452904  0.19644520  1
  O  O49  1  0.03183218  0.21739322  0.19727340  1
  O  O50  1  0.15908866  0.98374048  0.19884419  1
  O  O51  1  0.89103046  0.35233444  0.64917732  1
  O  O52  1  0.48602600  0.12959486  0.63647860  1
  O  O53  1  0.66034811  0.53918339  0.63560363  1
  O  O54  1  0.90303036  0.52558255  0.14170948  1
  O  O55  1  0.60901788  0.08727554  0.14046048  1
  O  O56  1  0.46276641  0.36832758  0.13567348  1
  O  O57  1  0.44346905  0.30108010  0.03181072  1
  O  O58  1  0.84052948  0.53396490  0.02682243  1
  O  O59  1  0.69509992  0.17164229  0.02745271  1
  O  O60  1  0.46191402  0.16502880  0.52349536  1
  O  O61  1  0.69693872  0.54262648  0.52997309  1
  O  O62  1  0.82242922  0.30421386  0.53218271  1
  O  O63  1  0.50301872  0.65690756  0.97289967  1
  O  O64  1  0.15946312  0.50657302  0.97058779  1
  O  O65  1  0.34027555  0.85610358  0.97034652  1
  O  O66  1  0.54702593  0.87690268  0.48047675  1
  O  O67  1  0.32771474  0.45231193  0.46781527  1
  O  O68  1  0.13283357  0.67504811  0.46581217  1
  O  O69  1  0.12489642  0.63148300  0.36136180  1
  O  O70  1  0.49435933  0.85331331  0.36373526  1
  O  O71  1  0.35908577  0.48303191  0.36264534  1
  O  O72  1  0.13734260  0.49911964  0.85605342  1
  O  O73  1  0.36702306  0.86443002  0.86464179  1
  O  O74  1  0.49819656  0.63438501  0.86128395  1
  O  O75  1  0.01352561  0.80098999  0.40697431  1
  O  O76  1  0.82212148  0.00541264  0.41468914  1
  O  O77  1  0.21217251  0.20217875  0.41037248  1
  O  O78  1  0.03722864  0.20567684  0.92171413  1
  O  O79  1  0.20027135  0.96843610  0.91356730  1
  O  O80  1  0.80292694  0.80562302  0.92248241  1
  O  O81  1  0.94918658  0.13639120  0.59095411  1
  O  O82  1  0.17322797  0.02817032  0.59401647  1
  O  O83  1  0.84743708  0.80236163  0.58610364  1
  O  O84  1  0.98229712  0.82231021  0.09356738  1
  O  O85  1  0.84588007  0.02905899  0.09462906  1
  O  O86  1  0.18979616  0.17244196  0.09025780  1
  O  O87  1  0.67343897  0.15489997  0.75044973  1
  O  O88  1  0.45710592  0.34021395  0.74286428  1
  O  O89  1  0.86614847  0.54643172  0.74737292  1
  O  O90  1  0.66709367  0.54004010  0.23968498  1
  O  O91  1  0.87724331  0.34178743  0.24419302  1
  O  O92  1  0.48375141  0.16022730  0.24863499  1
  O  O93  1  0.61372134  0.46307989  0.92785276  1
  O  O94  1  0.85772382  0.36837942  0.92319994  1
  O  O95  1  0.50748746  0.12336421  0.92057023  1
  O  O96  1  0.62981661  0.15524155  0.42301160  1
  O  O97  1  0.51658871  0.37842730  0.41885324  1
  O  O98  1  0.86220227  0.49376397  0.41729763  1
  O  O99  1  0.32942165  0.47366769  0.07234182  1
  O  O100  1  0.16455711  0.67259800  0.06961561  1
  O  O101  1  0.51795119  0.84388792  0.06530593  1
  O  O102  1  0.33644216  0.85112266  0.57787354  1
  O  O103  1  0.54469452  0.67067375  0.57541246  1
  O  O104  1  0.15505537  0.46892424  0.57978056  1
  O  O105  1  0.30207676  0.81659390  0.25909662  1
  O  O106  1  0.52458767  0.70184400  0.25399978  1
  O  O107  1  0.18300749  0.47527341  0.25573333  1
  O  O108  1  0.27681046  0.46173515  0.75425281  1
  O  O109  1  0.17217036  0.70047379  0.75215490  1
  O  O110  1  0.50914060  0.81246173  0.75915201  1
