# generated using pymatgen
data_Si(PbSe2)2
_symmetry_space_group_name_H-M   'P 1'
_cell_length_a   7.28624078
_cell_length_b   8.69018504
_cell_length_c   13.84954913
_cell_angle_alpha   71.96685963
_cell_angle_beta   90.00000000
_cell_angle_gamma   90.00000000
_symmetry_Int_Tables_number   1
_chemical_formula_structural   Si(PbSe2)2
_chemical_formula_sum   'Si4 Pb8 Se16'
_cell_volume   833.85935133
_cell_formula_units_Z   4
loop_
 _symmetry_equiv_pos_site_id
 _symmetry_equiv_pos_as_xyz
  1  'x, y, z'
loop_
 _atom_site_type_symbol
 _atom_site_label
 _atom_site_symmetry_multiplicity
 _atom_site_fract_x
 _atom_site_fract_y
 _atom_site_fract_z
 _atom_site_occupancy
  Si  Si0  1  0.74706009  0.20254620  0.35566462  1
  Si  Si1  1  0.24706009  0.79745380  0.14433538  1
  Si  Si2  1  0.25293991  0.79745380  0.64433538  1
  Si  Si3  1  0.75293991  0.20254620  0.85566462  1
  Pb  Pb4  1  0.64094402  0.55650918  0.13757827  1
  Pb  Pb5  1  0.14094402  0.44349082  0.36242173  1
  Pb  Pb6  1  0.35905598  0.44349082  0.86242173  1
  Pb  Pb7  1  0.85905598  0.55650918  0.63757827  1
  Pb  Pb8  1  0.64702433  0.05568237  0.12681513  1
  Pb  Pb9  1  0.14702433  0.94431763  0.37318487  1
  Pb  Pb10  1  0.35297567  0.94431763  0.87318487  1
  Pb  Pb11  1  0.85297567  0.05568237  0.62681513  1
  Se  Se12  1  0.76539253  0.93441040  0.44471594  1
  Se  Se13  1  0.26539253  0.06558960  0.05528406  1
  Se  Se14  1  0.23460747  0.06558960  0.55528406  1
  Se  Se15  1  0.73460747  0.93441040  0.94471594  1
  Se  Se16  1  0.52314019  0.26862905  0.73818818  1
  Se  Se17  1  0.02314019  0.73137095  0.76181182  1
  Se  Se18  1  0.47685981  0.73137095  0.26181182  1
  Se  Se19  1  0.97685981  0.26862905  0.23818818  1
  Se  Se20  1  0.51892905  0.74642577  0.73431404  1
  Se  Se21  1  0.01892905  0.25357423  0.76568596  1
  Se  Se22  1  0.48107095  0.25357423  0.26568596  1
  Se  Se23  1  0.98107095  0.74642577  0.23431404  1
  Se  Se24  1  0.72491796  0.36504354  0.95693187  1
  Se  Se25  1  0.22491796  0.63495646  0.54306813  1
  Se  Se26  1  0.27508204  0.63495646  0.04306813  1
  Se  Se27  1  0.77508204  0.36504354  0.45693187  1
