# generated using pymatgen
data_Na6Hf2Si5Ge2SO24
_symmetry_space_group_name_H-M   'P 1'
_cell_length_a   8.94520033
_cell_length_b   8.91814989
_cell_length_c   22.19643223
_cell_angle_alpha   90.29099812
_cell_angle_beta   89.61711290
_cell_angle_gamma   119.91515476
_symmetry_Int_Tables_number   1
_chemical_formula_structural   Na6Hf2Si5Ge2SO24
_chemical_formula_sum   'Na18 Hf6 Si15 Ge6 S3 O72'
_cell_volume   1534.75385646
_cell_formula_units_Z   3
loop_
 _symmetry_equiv_pos_site_id
 _symmetry_equiv_pos_as_xyz
  1  'x, y, z'
loop_
 _atom_site_type_symbol
 _atom_site_label
 _atom_site_symmetry_multiplicity
 _atom_site_fract_x
 _atom_site_fract_y
 _atom_site_fract_z
 _atom_site_occupancy
  Na  Na0  1  0.64008654  0.00563503  0.24953890  1
  Na  Na1  1  0.36437240  0.36641023  0.24760521  1
  Na  Na2  1  0.99904186  0.63475806  0.24963636  1
  Na  Na3  1  0.63348519  0.63455998  0.74895814  1
  Na  Na4  1  0.00009984  0.36638359  0.75121340  1
  Na  Na5  1  0.36862825  0.00208457  0.75158603  1
  Na  Na6  1  0.30301948  0.33189644  0.58583937  1
  Na  Na7  1  0.02838383  0.69694015  0.58283895  1
  Na  Na8  1  0.66962376  0.97056890  0.58318714  1
  Na  Na9  1  0.03428220  0.32883530  0.08623825  1
  Na  Na10  1  0.96997210  0.66665139  0.91748339  1
  Na  Na11  1  0.33254307  0.02548849  0.41648129  1
  Na  Na12  1  0.98237181  0.98830530  0.49814180  1
  Na  Na13  1  0.01064302  0.00416039  0.00054538  1
  Na  Na14  1  0.65807269  0.31720947  0.83865616  1
  Na  Na15  1  0.68320313  0.33919965  0.33241885  1
  Na  Na16  1  0.33978900  0.67157181  0.16228201  1
  Na  Na17  1  0.33492416  0.66652015  0.66767182  1
  Hf  Hf18  1  0.98929478  0.99254828  0.34974125  1
  Hf  Hf19  1  0.99983500  0.99970753  0.64848825  1
  Hf  Hf20  1  0.66953876  0.33410733  0.68907200  1
  Hf  Hf21  1  0.68225309  0.33609240  0.47686929  1
  Hf  Hf22  1  0.33629852  0.67496464  0.51874523  1
  Hf  Hf23  1  0.32741541  0.67148725  0.81933876  1
  Si  Si24  1  0.30015150  0.00803436  0.24813218  1
  Si  Si25  1  0.70843362  0.71175482  0.24511303  1
  Si  Si26  1  0.99896003  0.29199896  0.24525867  1
  Si  Si27  1  0.29186783  0.29243397  0.75240442  1
  Si  Si28  1  -0.00014399  0.71649643  0.75562555  1
  Si  Si29  1  0.71549484  0.99868623  0.75539068  1
  Si  Si30  1  0.96227938  0.33187815  0.58418880  1
  Si  Si31  1  0.37520106  0.04434287  0.58174385  1
  Si  Si32  1  0.66586409  0.62411368  0.58349771  1
  Si  Si33  1  0.94508360  0.62497096  0.08286659  1
  Si  Si34  1  0.38051491  0.33710379  0.08255835  1
  Si  Si35  1  0.02508401  0.35762310  0.91912191  1
  Si  Si36  1  0.33724987  0.96657957  0.92218722  1
  Si  Si37  1  0.62416107  0.95505821  0.41236955  1
  Si  Si38  1  0.04369843  0.66617893  0.41167967  1
  Ge  Ge39  1  0.02071629  0.01987946  0.85309641  1
  Ge  Ge40  1  0.01874380  0.99630734  0.14901797  1
  Ge  Ge41  1  0.66753847  0.34927748  0.18497432  1
  Ge  Ge42  1  0.65955866  0.32626622  0.98392404  1
  Ge  Ge43  1  0.29217688  0.64128591  0.01908427  1
  Ge  Ge44  1  0.33023653  0.68084120  0.30761259  1
  S  S45  1  0.66321405  0.04158720  0.08312628  1
  S  S46  1  0.62297719  0.66516471  0.92050584  1
  S  S47  1  0.33396440  0.37767596  0.41303143  1
  O  O48  1  0.22663050  0.05372573  0.30841982  1
  O  O49  1  0.83224541  0.78501165  0.30407109  1
  O  O50  1  0.95541365  0.16645830  0.30306015  1
  O  O51  1  0.20587893  0.15982452  0.80876849  1
  O  O52  1  0.96595557  0.80907937  0.81414691  1
  O  O53  1  0.85096407  0.03707405  0.80999042  1
  O  O54  1  0.78679188  0.96237532  0.69191969  1
  O  O55  1  0.17712098  0.21774704  0.69120375  1
  O  O56  1  0.03793064  0.82727443  0.69359731  1
  O  O57  1  0.80268092  0.84977195  0.18990259  1
  O  O58  1  0.04158246  0.20305863  0.18679557  1
  O  O59  1  0.16220910  0.95331368  0.19293330  1
  O  O60  1  0.88419361  0.37299881  0.64468703  1
  O  O61  1  0.49417092  0.12685257  0.64184381  1
  O  O62  1  0.63218591  0.51010542  0.64485116  1
  O  O63  1  0.86558207  0.49526360  0.14201597  1
  O  O64  1  0.63459013  0.11821785  0.13922436  1
  O  O65  1  0.49564914  0.36771176  0.14411708  1
  O  O66  1  0.47410749  0.30146711  0.02581985  1
  O  O67  1  0.82977663  0.52974923  0.02276415  1
  O  O68  1  0.69796261  0.15873046  0.03004722  1
  O  O69  1  0.45957177  0.16190756  0.52214270  1
  O  O70  1  0.70009292  0.53195867  0.52636197  1
  O  O71  1  0.83476358  0.29365003  0.52740957  1
  O  O72  1  0.53407115  0.68829261  0.97234321  1
  O  O73  1  0.15066846  0.44691959  0.97829224  1
  O  O74  1  0.29437676  0.81835207  0.97622183  1
  O  O75  1  0.54206023  0.84674181  0.47451227  1
  O  O76  1  0.31297538  0.45716828  0.46988415  1
  O  O77  1  0.15475445  0.69175427  0.47317125  1
  O  O78  1  0.13952938  0.63908933  0.35178346  1
  O  O79  1  0.49625949  0.85719477  0.35387993  1
  O  O80  1  0.35539986  0.48144456  0.35947689  1
  O  O81  1  0.11129525  0.48674224  0.86103151  1
  O  O82  1  0.37139224  0.88884768  0.85975139  1
  O  O83  1  0.52330578  0.64172594  0.86360205  1
  O  O84  1  0.04313351  0.84909817  0.40937822  1
  O  O85  1  0.81690999  0.98219155  0.41060505  1
  O  O86  1  0.17801055  0.20315528  0.41106261  1
  O  O87  1  0.01404592  0.16928818  0.91155250  1
  O  O88  1  0.15225599  0.96757192  0.91403050  1
  O  O89  1  0.79874224  0.81897558  0.91618107  1
  O  O90  1  0.97991439  0.16057432  0.58612156  1
  O  O91  1  0.18341203  0.01993365  0.58574288  1
  O  O92  1  0.83596183  0.81501392  0.58628309  1
  O  O93  1  0.96934805  0.81936950  0.09141426  1
  O  O94  1  0.82345295  0.03163463  0.08651031  1
  O  O95  1  0.18098677  0.16589881  0.09069597  1
  O  O96  1  0.69539599  0.17065801  0.75099214  1
  O  O97  1  0.48054685  0.30803947  0.74916539  1
  O  O98  1  0.82864658  0.52563248  0.75197428  1
  O  O99  1  0.68718876  0.51700503  0.23989030  1
  O  O100  1  0.82671145  0.31420442  0.23748952  1
  O  O101  1  0.49424112  0.17659305  0.23743485  1
  O  O102  1  0.64247322  0.50751402  0.92269404  1
  O  O103  1  0.84069375  0.35715349  0.92917193  1
  O  O104  1  0.51027678  0.15672851  0.93008836  1
  O  O105  1  0.62322044  0.13804358  0.41423643  1
  O  O106  1  0.48733040  0.35662559  0.41755609  1
  O  O107  1  0.85287737  0.49760760  0.41353690  1
  O  O108  1  0.35242324  0.51112786  0.07371099  1
  O  O109  1  0.13837501  0.63448079  0.07732642  1
  O  O110  1  0.50841723  0.86821677  0.07598285  1
  O  O111  1  0.35471963  0.85150797  0.57983156  1
  O  O112  1  0.49319144  0.64068858  0.57918227  1
  O  O113  1  0.15247466  0.50033317  0.57781750  1
  O  O114  1  0.31640221  0.83087283  0.25239222  1
  O  O115  1  0.51251681  0.68585783  0.25547776  1
  O  O116  1  0.17606202  0.48558739  0.25410091  1
  O  O117  1  0.31401573  0.48384481  0.75940043  1
  O  O118  1  0.17075745  0.69422254  0.75863228  1
  O  O119  1  0.52385787  0.82748796  0.75986988  1
