# generated using pymatgen
data_Na2Al4Si3Sn4(S3O16)3
_symmetry_space_group_name_H-M   'P 1'
_cell_length_a   17.15506566
_cell_length_b   8.62035487
_cell_length_c   22.46341850
_cell_angle_alpha   89.69952240
_cell_angle_beta   89.86379519
_cell_angle_gamma   120.21621968
_symmetry_Int_Tables_number   1
_chemical_formula_structural   Na2Al4Si3Sn4(S3O16)3
_chemical_formula_sum   'Na6 Al12 Si9 Sn12 S27 O144'
_cell_volume   2870.51856624
_cell_formula_units_Z   3
loop_
 _symmetry_equiv_pos_site_id
 _symmetry_equiv_pos_as_xyz
  1  'x, y, z'
loop_
 _atom_site_type_symbol
 _atom_site_label
 _atom_site_symmetry_multiplicity
 _atom_site_fract_x
 _atom_site_fract_y
 _atom_site_fract_z
 _atom_site_occupancy
  Na  Na0  1  0.99573863  0.00565375  0.49999288  1
  Na  Na1  1  0.49663034  0.98801937  0.00429062  1
  Na  Na2  1  0.32981685  0.32458429  0.84042587  1
  Na  Na3  1  0.82861851  0.33177347  0.83342099  1
  Na  Na4  1  0.33152711  0.32823550  0.33180389  1
  Na  Na5  1  0.82096556  0.32196357  0.33616736  1
  Al  Al6  1  0.00286964  0.00058917  0.34887254  1
  Al  Al7  1  0.50412999  0.00596893  0.85051633  1
  Al  Al8  1  0.99601922  0.00572466  0.64290366  1
  Al  Al9  1  0.50218672  0.97256923  0.14763480  1
  Al  Al10  1  0.33169843  0.32987494  0.98229077  1
  Al  Al11  1  0.83502800  0.33888318  0.98489867  1
  Al  Al12  1  0.33846009  0.33255084  0.47958887  1
  Al  Al13  1  0.83237676  0.32621130  0.47721938  1
  Al  Al14  1  0.16654828  0.67214223  0.30813328  1
  Al  Al15  1  0.66717228  0.65866636  0.31045141  1
  Al  Al16  1  0.17015968  0.68713868  0.81756020  1
  Al  Al17  1  0.66430518  0.65585383  0.81001390  1
  Si  Si18  1  0.14593194  0.99755010  0.25512371  1
  Si  Si19  1  0.64499883  0.98340493  0.24842131  1
  Si  Si20  1  0.64629014  0.29524238  0.75479070  1
  Si  Si21  1  0.47684863  0.33368217  0.57956077  1
  Si  Si22  1  0.97182431  0.32305981  0.58087278  1
  Si  Si23  1  0.47015898  0.62174637  0.07983933  1
  Si  Si24  1  0.97409423  0.61769107  0.08112479  1
  Si  Si25  1  0.17607026  0.97076058  0.91541205  1
  Si  Si26  1  0.67424768  0.38444945  0.41406528  1
  Sn  Sn27  1  0.51215439  0.01755970  0.35393042  1
  Sn  Sn28  1  0.00419815  0.99768611  0.85602397  1
  Sn  Sn29  1  0.50508084  0.02165808  0.64435009  1
  Sn  Sn30  1  0.00415270  0.98746594  0.14550764  1
  Sn  Sn31  1  0.33738082  0.33568784  0.68446482  1
  Sn  Sn32  1  0.83101739  0.33247786  0.68460821  1
  Sn  Sn33  1  0.33294822  0.33111215  0.18634477  1
  Sn  Sn34  1  0.83354986  0.33316975  0.18802199  1
  Sn  Sn35  1  0.16232453  0.67487649  0.02191945  1
  Sn  Sn36  1  0.65956244  0.66235966  0.02128315  1
  Sn  Sn37  1  0.16034587  0.65856764  0.51923000  1
  Sn  Sn38  1  0.66303474  0.65323178  0.51839778  1
  S  S39  1  0.35388225  0.71672183  0.25195704  1
  S  S40  1  0.85433675  0.71682984  0.25401174  1
  S  S41  1  0.00426277  0.29043235  0.25409612  1
  S  S42  1  0.50244123  0.28865341  0.24796513  1
  S  S43  1  0.14500426  0.29871879  0.74803378  1
  S  S44  1  0.00479714  0.71602473  0.74823313  1
  S  S45  1  0.50161397  0.71445698  0.75401796  1
  S  S46  1  0.35101898  0.98824072  0.75402303  1
  S  S47  1  0.85499347  0.99174552  0.75134987  1
  S  S48  1  0.18599129  0.04621955  0.58189342  1
  S  S49  1  0.68958473  0.04128985  0.57940810  1
  S  S50  1  0.33395728  0.62182428  0.58082494  1
  S  S51  1  0.83791090  0.63182809  0.58264505  1
  S  S52  1  0.33887384  0.04635660  0.08276758  1
  S  S53  1  0.83489216  0.04669077  0.08032668  1
  S  S54  1  0.18950686  0.33575867  0.07963253  1
  S  S55  1  0.68610796  0.32620475  0.08052749  1
  S  S56  1  0.31430602  0.67093528  0.91288251  1
  S  S57  1  0.80636613  0.65804995  0.91614820  1
  S  S58  1  0.01874598  0.37940606  0.91420292  1
  S  S59  1  0.52121933  0.37192146  0.91323576  1
  S  S60  1  0.66714524  0.96071209  0.91322704  1
  S  S61  1  0.30831800  0.95538682  0.41568422  1
  S  S62  1  0.81650384  0.96104613  0.41418945  1
  S  S63  1  0.16737067  0.37237209  0.41401323  1
  S  S64  1  0.02100329  0.66998890  0.41308710  1
  S  S65  1  0.51625403  0.65866595  0.41565825  1
  O  O66  1  0.09838847  0.03737715  0.31019287  1
  O  O67  1  0.61241345  0.04345669  0.30801766  1
  O  O68  1  0.40936620  0.79292029  0.30646551  1
  O  O69  1  0.91283096  0.80528572  0.30528531  1
  O  O70  1  0.47739444  0.17407126  0.30332986  1
  O  O71  1  0.98551048  0.16895765  0.30563768  1
  O  O72  1  0.11024999  0.18515802  0.80292193  1
  O  O73  1  0.59800398  0.15881262  0.80991685  1
  O  O74  1  0.48359226  0.79866092  0.80532039  1
  O  O75  1  0.98245756  0.78689816  0.80288807  1
  O  O76  1  0.41082151  0.02174723  0.80526917  1
  O  O77  1  0.91285256  0.03137067  0.80588408  1
  O  O78  1  0.38711578  0.95951805  0.69772463  1
  O  O79  1  0.89811730  0.96401772  0.69868130  1
  O  O80  1  0.08959650  0.20804953  0.69567244  1
  O  O81  1  0.59128250  0.21809632  0.69250136  1
  O  O82  1  0.01650525  0.83008384  0.69594514  1
  O  O83  1  0.51383392  0.81074768  0.69682797  1
  O  O84  1  0.39375957  0.82727202  0.19791666  1
  O  O85  1  0.88897746  0.82145076  0.19743976  1
  O  O86  1  0.01677943  0.21816031  0.19709803  1
  O  O87  1  0.51136723  0.20038619  0.19527622  1
  O  O88  1  0.09196049  0.96474673  0.19230098  1
  O  O89  1  0.58468327  0.96762413  0.19117103  1
  O  O90  1  0.44278296  0.37442546  0.64402963  1
  O  O91  1  0.93732031  0.36823154  0.64331032  1
  O  O92  1  0.23850809  0.11654223  0.63816877  1
  O  O93  1  0.73866625  0.10884663  0.63688794  1
  O  O94  1  0.31051548  0.51159564  0.63727880  1
  O  O95  1  0.81545647  0.52205886  0.63837330  1
  O  O96  1  0.43568333  0.50514173  0.14151102  1
  O  O97  1  0.93544220  0.50173322  0.14323433  1
  O  O98  1  0.31479434  0.11216045  0.13691303  1
  O  O99  1  0.81311742  0.11247908  0.13492857  1
  O  O100  1  0.23949254  0.36600027  0.13614596  1
  O  O101  1  0.73989665  0.36208466  0.13511578  1
  O  O102  1  0.23104253  0.30073210  0.02840378  1
  O  O103  1  0.72765936  0.29280565  0.02721097  1
  O  O104  1  0.41068703  0.52096134  0.02183642  1
  O  O105  1  0.91267263  0.52112353  0.02376955  1
  O  O106  1  0.35014002  0.15634105  0.02926958  1
  O  O107  1  0.84424252  0.15519276  0.02651457  1
  O  O108  1  0.22675542  0.16368177  0.52937030  1
  O  O109  1  0.73221886  0.16308546  0.52886458  1
  O  O110  1  0.34385808  0.53139392  0.52862077  1
  O  O111  1  0.85219187  0.54781715  0.53052124  1
  O  O112  1  0.41015836  0.30407288  0.52544406  1
  O  O113  1  0.91019690  0.30094008  0.52381530  1
  O  O114  1  0.27838894  0.70482319  0.96848748  1
  O  O115  1  0.76949121  0.69204932  0.97151074  1
  O  O116  1  0.07434802  0.44731603  0.96813049  1
  O  O117  1  0.57803866  0.43887048  0.96822499  1
  O  O118  1  0.15065221  0.84439622  0.97374506  1
  O  O119  1  0.65058752  0.85290317  0.96901726  1
  O  O120  1  0.27174229  0.84827974  0.47260686  1
  O  O121  1  0.78152173  0.85745687  0.47127311  1
  O  O122  1  0.15044452  0.44556344  0.47021979  1
  O  O123  1  0.65289054  0.45554855  0.47546301  1
  O  O124  1  0.07713919  0.71757295  0.46919299  1
  O  O125  1  0.57150705  0.70147135  0.47042459  1
  O  O126  1  0.06675064  0.63784712  0.36348108  1
  O  O127  1  0.55864354  0.62810793  0.36369470  1
  O  O128  1  0.24990253  0.86483119  0.36489313  1
  O  O129  1  0.75743262  0.87476094  0.36314498  1
  O  O130  1  0.18311716  0.49130601  0.36275025  1
  O  O131  1  0.68506698  0.51082249  0.35724268  1
  O  O132  1  0.06339204  0.49241011  0.86068331  1
  O  O133  1  0.56656597  0.49527892  0.86261913  1
  O  O134  1  0.18803112  0.87565209  0.85690788  1
  O  O135  1  0.68239351  0.87384392  0.86158378  1
  O  O136  1  0.25413853  0.63891647  0.86086801  1
  O  O137  1  0.75091964  0.63721176  0.86393963  1
  O  O138  1  0.00865742  0.82760572  0.40544343  1
  O  O139  1  0.49951010  0.80949257  0.40955020  1
  O  O140  1  0.39800490  0.97529032  0.40905415  1
  O  O141  1  0.90800861  0.98012436  0.40571390  1
  O  O142  1  0.08508958  0.19342115  0.40828527  1
  O  O143  1  0.58131006  0.18935984  0.41381418  1
  O  O144  1  0.00489715  0.19616036  0.90701070  1
  O  O145  1  0.50923506  0.18960902  0.90532711  1
  O  O146  1  0.08510230  0.98671509  0.91070743  1
  O  O147  1  0.58411685  0.97361983  0.90747131  1
  O  O148  1  0.40545536  0.83583094  0.90324691  1
  O  O149  1  0.89702098  0.82004211  0.91013348  1
  O  O150  1  0.47754897  0.14540755  0.58328687  1
  O  O151  1  0.98442002  0.14851934  0.59149524  1
  O  O152  1  0.09528475  0.02286098  0.59135198  1
  O  O153  1  0.59752669  0.01341136  0.58541416  1
  O  O154  1  0.41840011  0.79269616  0.58947020  1
  O  O155  1  0.92277190  0.80637920  0.59245947  1
  O  O156  1  0.47993308  0.81878428  0.08766939  1
  O  O157  1  0.97849011  0.81066438  0.08382949  1
  O  O158  1  0.42248535  0.04118094  0.09153588  1
  O  O159  1  0.91917343  0.04348336  0.08740165  1
  O  O160  1  0.09724220  0.18067958  0.08530495  1
  O  O161  1  0.59519640  0.17053761  0.08746499  1
  O  O162  1  0.34061824  0.15240119  0.74996394  1
  O  O163  1  0.84714514  0.15472028  0.74608961  1
  O  O164  1  0.23805559  0.31721416  0.74255780  1
  O  O165  1  0.74717411  0.31077511  0.74829246  1
  O  O166  1  0.41729448  0.52983607  0.75116348  1
  O  O167  1  0.92341284  0.53446652  0.74463994  1
  O  O168  1  0.34524642  0.53663712  0.24650012  1
  O  O169  1  0.84867650  0.53879668  0.25004137  1
  O  O170  1  0.42210467  0.31404732  0.24544371  1
  O  O171  1  0.92310939  0.31112295  0.25097510  1
  O  O172  1  0.24633452  0.18334990  0.24846485  1
  O  O173  1  0.74653745  0.17088895  0.24466700  1
  O  O174  1  0.32354250  0.51106544  0.91898886  1
  O  O175  1  0.81373047  0.49414332  0.92244703  1
  O  O176  1  0.43373414  0.36012341  0.92158822  1
  O  O177  1  0.92816225  0.36148534  0.92136249  1
  O  O178  1  0.26327163  0.16812518  0.92680476  1
  O  O179  1  0.74874077  0.14126266  0.92192343  1
  O  O180  1  0.31386117  0.13308347  0.42288014  1
  O  O181  1  0.82574885  0.14067763  0.42138219  1
  O  O182  1  0.24941765  0.35639400  0.42333412  1
  O  O183  1  0.76280264  0.36240465  0.42549645  1
  O  O184  1  0.42523504  0.49249347  0.42370832  1
  O  O185  1  0.93349880  0.50579497  0.42253855  1
  O  O186  1  0.18561359  0.50147877  0.07166595  1
  O  O187  1  0.68254639  0.49342296  0.07266365  1
  O  O188  1  0.07145120  0.62845542  0.08113163  1
  O  O189  1  0.57152742  0.64624373  0.07624238  1
  O  O190  1  0.26196712  0.86087962  0.07674370  1
  O  O191  1  0.75754751  0.86232586  0.07315980  1
  O  O192  1  0.18047433  0.87095750  0.57468935  1
  O  O193  1  0.68505001  0.86803509  0.57201910  1
  O  O194  1  0.25687699  0.65156082  0.57430567  1
  O  O195  1  0.76275462  0.66646615  0.57675196  1
  O  O196  1  0.07343137  0.50035843  0.57641620  1
  O  O197  1  0.57416567  0.51538978  0.57955790  1
  O  O198  1  0.15669384  0.82590316  0.26504237  1
  O  O199  1  0.65524121  0.81287368  0.26436078  1
  O  O200  1  0.26370483  0.69235302  0.26158154  1
  O  O201  1  0.76465884  0.69489382  0.26094170  1
  O  O202  1  0.08532893  0.46503560  0.26422689  1
  O  O203  1  0.58387276  0.46408231  0.25690631  1
  O  O204  1  0.15432159  0.47439650  0.75831153  1
  O  O205  1  0.65759484  0.48874169  0.76498019  1
  O  O206  1  0.08513562  0.69964163  0.75782353  1
  O  O207  1  0.58145093  0.69763617  0.76398621  1
  O  O208  1  0.26226916  0.82641946  0.76155941  1
  O  O209  1  0.76597571  0.83471296  0.76171886  1
