# generated using pymatgen
data_In2(PS3)3
_symmetry_space_group_name_H-M   'P 1'
_cell_length_a   10.60483225
_cell_length_b   7.07246782
_cell_length_c   18.36895555
_cell_angle_alpha   73.24912567
_cell_angle_beta   90.00000000
_cell_angle_gamma   90.00000000
_symmetry_Int_Tables_number   1
_chemical_formula_structural   In2(PS3)3
_chemical_formula_sum   'In8 P12 S36'
_cell_volume   1319.25394130
_cell_formula_units_Z   4
loop_
 _symmetry_equiv_pos_site_id
 _symmetry_equiv_pos_as_xyz
  1  'x, y, z'
loop_
 _atom_site_type_symbol
 _atom_site_label
 _atom_site_symmetry_multiplicity
 _atom_site_fract_x
 _atom_site_fract_y
 _atom_site_fract_z
 _atom_site_occupancy
  In  In0  1  0.85111236  -0.00045439  0.82418854  1
  In  In1  1  0.35111236  0.00045439  0.67581146  1
  In  In2  1  0.14888764  0.00045439  0.17581146  1
  In  In3  1  0.64888764  -0.00045439  0.32418854  1
  In  In4  1  0.82096468  0.99759171  0.51081218  1
  In  In5  1  0.32096468  0.00240829  0.98918782  1
  In  In6  1  0.17903532  0.00240829  0.48918782  1
  In  In7  1  0.67903532  0.99759171  0.01081218  1
  P  P8  1  0.99620265  0.83567104  0.01512691  1
  P  P9  1  0.50886429  0.83651266  0.85279718  1
  P  P10  1  0.00886429  0.16348734  0.64720282  1
  P  P11  1  0.49113571  0.16348734  0.14720282  1
  P  P12  1  0.99113571  0.83651266  0.35279718  1
  P  P13  1  0.01352643  0.83524945  0.68496306  1
  P  P14  1  0.51352643  0.16475055  0.81503694  1
  P  P15  1  0.98647357  0.16475055  0.31503694  1
  P  P16  1  0.48647357  0.83524945  0.18496306  1
  P  P17  1  0.49620265  0.16432896  0.48487309  1
  P  P18  1  0.00379735  0.16432896  0.98487309  1
  P  P19  1  0.50379735  0.83567104  0.51512691  1
  S  S20  1  0.67315668  0.76280797  0.91408700  1
  S  S21  1  0.65640459  0.24249660  0.42022906  1
  S  S22  1  0.15640459  0.75750340  0.07977094  1
  S  S23  1  0.34359541  0.75750340  0.57977094  1
  S  S24  1  0.84359541  0.24249660  0.92022906  1
  S  S25  1  0.82684332  0.76280797  0.41408700  1
  S  S26  1  0.32684332  0.23719203  0.08591300  1
  S  S27  1  0.17315668  0.23719203  0.58591300  1
  S  S28  1  0.49139328  0.76021084  0.41842078  1
  S  S29  1  0.99139328  0.23978916  0.08157922  1
  S  S30  1  0.50860672  0.23978916  0.58157922  1
  S  S31  1  0.00860672  0.76021084  0.91842078  1
  S  S32  1  0.84536476  0.74875810  0.08310843  1
  S  S33  1  0.34536476  0.25124190  0.41689157  1
  S  S34  1  0.15463524  0.25124190  0.91689157  1
  S  S35  1  0.65463524  0.74875810  0.58310843  1
  S  S36  1  0.64954627  0.25017797  0.08666988  1
  S  S37  1  0.14954627  0.74982203  0.41333012  1
  S  S38  1  0.35045373  0.74982203  0.91333012  1
  S  S39  1  0.85045373  0.25017797  0.58666988  1
  S  S40  1  0.98371707  0.75267732  0.25762510  1
  S  S41  1  0.48371707  0.24732268  0.24237490  1
  S  S42  1  0.01628293  0.24732268  0.74237490  1
  S  S43  1  0.51628293  0.75267732  0.75762510  1
  S  S44  1  0.82640836  0.24937637  0.25711098  1
  S  S45  1  0.32640836  0.75062363  0.24288902  1
  S  S46  1  0.17359164  0.75062363  0.74288902  1
  S  S47  1  0.67359164  0.24937637  0.75711098  1
  S  S48  1  0.64521332  0.74773432  0.24424002  1
  S  S49  1  0.14521332  0.25226568  0.25575998  1
  S  S50  1  0.35478668  0.25226568  0.75575998  1
  S  S51  1  0.85478668  0.74773432  0.74424002  1
  S  S52  1  0.49462915  0.76246371  0.08365323  1
  S  S53  1  0.99462915  0.23753629  0.41634677  1
  S  S54  1  0.50537085  0.23753629  0.91634677  1
  S  S55  1  0.00537085  0.76246371  0.58365323  1
