# generated using pymatgen
data_Na6Ca3Si2Sn(SO6)4
_symmetry_space_group_name_H-M   'P 1'
_cell_length_a   9.33874480
_cell_length_b   9.36712651
_cell_length_c   23.31154729
_cell_angle_alpha   90.50073298
_cell_angle_beta   89.25730020
_cell_angle_gamma   120.06854282
_symmetry_Int_Tables_number   1
_chemical_formula_structural   Na6Ca3Si2Sn(SO6)4
_chemical_formula_sum   'Na18 Ca9 Si6 Sn3 S12 O72'
_cell_volume   1764.64886973
_cell_formula_units_Z   3
loop_
 _symmetry_equiv_pos_site_id
 _symmetry_equiv_pos_as_xyz
  1  'x, y, z'
loop_
 _atom_site_type_symbol
 _atom_site_label
 _atom_site_symmetry_multiplicity
 _atom_site_fract_x
 _atom_site_fract_y
 _atom_site_fract_z
 _atom_site_occupancy
  Na  Na0  1  0.63315703  0.99779354  0.26206203  1
  Na  Na1  1  0.36790160  0.36418184  0.24025221  1
  Na  Na2  1  0.63977877  0.65158921  0.73952498  1
  Na  Na3  1  0.32115975  0.35160919  0.58992783  1
  Na  Na4  1  0.01613706  0.69930192  0.58253744  1
  Na  Na5  1  0.66359478  0.93540811  0.58382479  1
  Na  Na6  1  0.29951017  0.97879310  0.07076445  1
  Na  Na7  1  0.05974610  0.33758209  0.07243255  1
  Na  Na8  1  0.99322890  0.68001254  0.91606478  1
  Na  Na9  1  0.70549992  0.03699509  0.90019621  1
  Na  Na10  1  0.30671086  0.28183163  0.92004561  1
  Na  Na11  1  0.69526913  0.69119958  0.42373809  1
  Na  Na12  1  0.97370374  0.99095444  0.49523447  1
  Na  Na13  1  0.02516355  0.02064022  0.99403890  1
  Na  Na14  1  0.66783765  0.29327239  0.82633735  1
  Na  Na15  1  0.67498025  0.31579905  0.34018678  1
  Na  Na16  1  0.33848315  0.64724571  0.15996002  1
  Na  Na17  1  0.35933819  0.67822290  0.67351305  1
  Ca  Ca18  1  0.00173864  0.00591112  0.35123527  1
  Ca  Ca19  1  0.99823732  0.00919513  0.84633077  1
  Ca  Ca20  1  0.97703005  0.98984963  0.65657653  1
  Ca  Ca21  1  0.00446553  0.99811000  0.14711932  1
  Ca  Ca22  1  0.66205902  0.31955533  0.68752170  1
  Ca  Ca23  1  0.66759976  0.34344211  0.18258537  1
  Ca  Ca24  1  0.34047278  0.66577670  0.01632751  1
  Ca  Ca25  1  0.34198512  0.67208481  0.51157607  1
  Ca  Ca26  1  0.33973350  0.68685222  0.32535730  1
  Si  Si27  1  0.67350738  0.98387720  0.75526001  1
  Si  Si28  1  0.66661190  0.62392876  0.58253415  1
  Si  Si29  1  0.36769504  0.33334307  0.08518713  1
  Si  Si30  1  0.03149141  0.37470940  0.92086217  1
  Si  Si31  1  0.33703987  0.97032643  0.92276787  1
  Si  Si32  1  0.64655267  0.98611250  0.41917841  1
  Sn  Sn33  1  0.66054601  0.32713324  0.98171879  1
  Sn  Sn34  1  0.66821129  0.32921875  0.48357229  1
  Sn  Sn35  1  0.32067560  0.67756643  0.82090690  1
  S  S36  1  0.30387980  0.99837834  0.24803759  1
  S  S37  1  0.69592909  0.69891299  0.25271903  1
  S  S38  1  0.00190699  0.30013635  0.24865607  1
  S  S39  1  0.30489740  0.31653715  0.75174261  1
  S  S40  1  0.00643705  0.69706885  0.75125861  1
  S  S41  1  0.96103014  0.33332555  0.58103786  1
  S  S42  1  0.36892272  0.04050604  0.58147511  1
  S  S43  1  0.96095776  0.62686281  0.08003137  1
  S  S44  1  0.67078084  0.04417339  0.08322771  1
  S  S45  1  0.63041054  0.65757874  0.91567908  1
  S  S46  1  0.34372451  0.36356646  0.41765188  1
  S  S47  1  0.01758375  0.65762689  0.42053933  1
  O  O48  1  0.21580595  0.01435571  0.29821496  1
  O  O49  1  0.78602500  0.77865213  0.30570859  1
  O  O50  1  0.98190006  0.19372215  0.29802486  1
  O  O51  1  0.22431558  0.21677451  0.80289753  1
  O  O52  1  0.99468701  0.78166445  0.80319514  1
  O  O53  1  0.77596029  0.99152255  0.81158287  1
  O  O54  1  0.74327311  0.94179269  0.69534182  1
  O  O55  1  0.21377027  0.23616254  0.69828787  1
  O  O56  1  0.03053366  0.79544923  0.69860534  1
  O  O57  1  0.78264723  0.79950659  0.20173150  1
  O  O58  1  0.01981046  0.22294733  0.19473340  1
  O  O59  1  0.21484404  0.98645590  0.19447086  1
  O  O60  1  0.88112859  0.35280325  0.63249974  1
  O  O61  1  0.47434042  0.11419099  0.63139742  1
  O  O62  1  0.64634018  0.51472449  0.63818676  1
  O  O63  1  0.87719243  0.52444432  0.12990292  1
  O  O64  1  0.65489776  0.12495333  0.13531441  1
  O  O65  1  0.45967501  0.34058231  0.14417218  1
  O  O66  1  0.47154696  0.31387086  0.02631606  1
  O  O67  1  0.86629694  0.54553233  0.02560592  1
  O  O68  1  0.69635533  0.15066185  0.03046455  1
  O  O69  1  0.45259135  0.14292454  0.52857472  1
  O  O70  1  0.68900980  0.52533402  0.52335099  1
  O  O71  1  0.85370424  0.30176439  0.52898909  1
  O  O72  1  0.55774935  0.68767877  0.96623371  1
  O  O73  1  0.13760409  0.44606252  0.97780391  1
  O  O74  1  0.31446705  0.87376273  0.98167543  1
  O  O75  1  0.55533179  0.87656778  0.47573423  1
  O  O76  1  0.32075710  0.43963860  0.47006085  1
  O  O77  1  0.10469555  0.66947930  0.47410691  1
  O  O78  1  0.10005512  0.63665767  0.36982176  1
  O  O79  1  0.54675612  0.91854359  0.35852644  1
  O  O80  1  0.36446049  0.46648308  0.36632108  1
  O  O81  1  0.12545273  0.50554751  0.86502242  1
  O  O82  1  0.37618702  0.87964857  0.86720673  1
  O  O83  1  0.52589448  0.62764711  0.86348043  1
  O  O84  1  0.99513163  0.80343934  0.41578212  1
  O  O85  1  0.82502281  0.99251635  0.41667789  1
  O  O86  1  0.20667812  0.19412209  0.41260085  1
  O  O87  1  0.99676034  0.18862813  0.91091252  1
  O  O88  1  0.17520057  0.99083353  0.91347951  1
  O  O89  1  0.80175419  0.79789475  0.90859028  1
  O  O90  1  0.98536774  0.18776703  0.58469794  1
  O  O91  1  0.20808977  0.03694083  0.58706089  1
  O  O92  1  0.83690598  0.80715000  0.57908106  1
  O  O93  1  0.97693453  0.79246734  0.08320885  1
  O  O94  1  0.82122068  0.02923900  0.08436080  1
  O  O95  1  0.18708518  0.15891635  0.07810836  1
  O  O96  1  0.64907663  0.14170988  0.75136089  1
  O  O97  1  0.47832335  0.35035184  0.74890755  1
  O  O98  1  0.85231845  0.53475626  0.74770181  1
  O  O99  1  0.67188346  0.52931255  0.24971084  1
  O  O100  1  0.84831939  0.31201395  0.24721031  1
  O  O101  1  0.47373148  0.15051843  0.24758550  1
  O  O102  1  0.64205920  0.50227107  0.92135684  1
  O  O103  1  0.84749013  0.37117654  0.92469677  1
  O  O104  1  0.51249635  0.15814934  0.92168967  1
  O  O105  1  0.66108118  0.17428700  0.42538237  1
  O  O106  1  0.50836992  0.36551644  0.42104921  1
  O  O107  1  0.84401411  0.50645682  0.42156087  1
  O  O108  1  0.33781946  0.49030202  0.08403336  1
  O  O109  1  0.12893994  0.64689701  0.07755771  1
  O  O110  1  0.51778816  0.88305281  0.07854724  1
  O  O111  1  0.33760455  0.86932835  0.57486453  1
  O  O112  1  0.49928666  0.64026033  0.57851014  1
  O  O113  1  0.12319265  0.48615867  0.57362403  1
  O  O114  1  0.32639811  0.85161013  0.25125973  1
  O  O115  1  0.52580859  0.68181360  0.25449301  1
  O  O116  1  0.15552136  0.46435346  0.25388839  1
  O  O117  1  0.31424878  0.48263247  0.75637001  1
  O  O118  1  0.15548266  0.67406737  0.75419845  1
  O  O119  1  0.48988424  0.79851329  0.76033395  1
