# generated using pymatgen
data_Na6La6Nb2Si5S7O48
_symmetry_space_group_name_H-M   'P 1'
_cell_length_a   18.79438710
_cell_length_b   9.44588825
_cell_length_c   24.66677540
_cell_angle_alpha   90.10934985
_cell_angle_beta   90.21565574
_cell_angle_gamma   120.19139366
_symmetry_Int_Tables_number   1
_chemical_formula_structural   Na6La6Nb2Si5S7O48
_chemical_formula_sum   'Na18 La18 Nb6 Si15 S21 O144'
_cell_volume   3785.00002346
_cell_formula_units_Z   3
loop_
 _symmetry_equiv_pos_site_id
 _symmetry_equiv_pos_as_xyz
  1  'x, y, z'
loop_
 _atom_site_type_symbol
 _atom_site_label
 _atom_site_symmetry_multiplicity
 _atom_site_fract_x
 _atom_site_fract_y
 _atom_site_fract_z
 _atom_site_occupancy
  Na  Na0  1  0.99356785  0.68584779  0.91121870  1
  Na  Na1  1  0.34937102  0.02746032  0.91379996  1
  Na  Na2  1  0.17491764  0.30594755  0.91282869  1
  Na  Na3  1  0.49355539  0.30464504  0.42228259  1
  Na  Na4  1  0.67344787  0.04114060  0.41593240  1
  Na  Na5  1  0.84661255  0.67012508  0.41723468  1
  Na  Na6  1  0.99778993  0.99889816  0.49598445  1
  Na  Na7  1  0.50073784  0.00213570  0.50194067  1
  Na  Na8  1  0.00264674  0.00372290  0.99732429  1
  Na  Na9  1  0.49676971  0.99601104  0.99184124  1
  Na  Na10  1  0.34030104  0.34815859  0.84214504  1
  Na  Na11  1  0.82419654  0.32299491  0.81914353  1
  Na  Na12  1  0.32582813  0.33097656  0.32434036  1
  Na  Na13  1  0.83789142  0.32917697  0.34814297  1
  Na  Na14  1  0.17081389  0.66539492  0.17196680  1
  Na  Na15  1  0.66476729  0.66460548  0.16781163  1
  Na  Na16  1  0.16808231  0.66731067  0.66705945  1
  Na  Na17  1  0.65680284  0.65312041  0.66135033  1
  La  La18  1  0.00323059  0.00659695  0.35369277  1
  La  La19  1  0.49778253  0.00474497  0.34561676  1
  La  La20  1  0.99691620  0.99120363  0.84484638  1
  La  La21  1  0.50278186  0.00167303  0.85155430  1
  La  La22  1  0.33823527  0.34518821  0.67999666  1
  La  La23  1  0.83224547  0.33082250  0.68767254  1
  La  La24  1  0.33355587  0.33460584  0.18852825  1
  La  La25  1  0.83327494  0.32218360  0.18258225  1
  La  La26  1  0.35077366  0.35629519  0.97840237  1
  La  La27  1  0.82411351  0.29359127  0.98845440  1
  La  La28  1  0.33501630  0.35439655  0.49583348  1
  La  La29  1  0.84767344  0.33992743  0.48034222  1
  La  La30  1  0.17216309  0.68007137  0.01613806  1
  La  La31  1  0.66723794  0.66572636  0.01966561  1
  La  La32  1  0.16699366  0.66683971  0.52126708  1
  La  La33  1  0.66590732  0.65409540  0.51889919  1
  La  La34  1  0.66768660  0.65155782  0.31320872  1
  La  La35  1  0.16934136  0.68535279  0.81095986  1
  Nb  Nb36  1  0.98999429  0.98401892  0.65946732  1
  Nb  Nb37  1  0.50234815  0.02581968  0.64498933  1
  Nb  Nb38  1  0.00372100  -0.00292076  0.15081266  1
  Nb  Nb39  1  0.48885742  0.99341240  0.15932264  1
  Nb  Nb40  1  0.16575891  0.68372895  0.31184574  1
  Nb  Nb41  1  0.66054943  0.64204865  0.80635560  1
  Si  Si42  1  0.14193833  0.98787721  0.25009807  1
  Si  Si43  1  0.34259551  0.70247350  0.25363685  1
  Si  Si44  1  0.50512328  0.30718321  0.24936583  1
  Si  Si45  1  0.64116082  0.28906242  0.74905182  1
  Si  Si46  1  0.00416678  0.70189109  0.74978933  1
  Si  Si47  1  0.84292957  0.98249795  0.75340755  1
  Si  Si48  1  0.48749263  0.33712622  0.58319857  1
  Si  Si49  1  0.33920601  0.65420595  0.58962855  1
  Si  Si50  1  0.83953662  0.02519100  0.08874667  1
  Si  Si51  1  0.31420958  0.66707988  0.91564648  1
  Si  Si52  1  0.52427121  0.38050772  0.91232103  1
  Si  Si53  1  0.16473042  0.97044986  0.91910888  1
  Si  Si54  1  0.81316738  0.96179262  0.41496251  1
  Si  Si55  1  0.66572233  0.35865641  0.41763410  1
  Si  Si56  1  0.02271478  0.66629861  0.41359602  1
  S  S57  1  0.64165601  0.99516641  0.24457069  1
  S  S58  1  0.85861401  0.71813284  0.24297223  1
  S  S59  1  0.00951774  0.30400724  0.24810590  1
  S  S60  1  0.14274750  0.28813546  0.74496503  1
  S  S61  1  0.50826418  0.70746502  0.75143435  1
  S  S62  1  0.35780120  0.99911705  0.74351405  1
  S  S63  1  0.98559846  0.31147103  0.58925485  1
  S  S64  1  0.16970635  0.02899650  0.58838025  1
  S  S65  1  0.67321046  0.03103496  0.58568049  1
  S  S66  1  0.84444727  0.65802720  0.58758106  1
  S  S67  1  0.48597546  0.65997572  0.08915468  1
  S  S68  1  0.98431490  0.65177251  0.08660488  1
  S  S69  1  0.34307858  0.02890747  0.08779266  1
  S  S70  1  0.17186050  0.31626933  0.08659423  1
  S  S71  1  0.67159205  0.31238202  0.08802764  1
  S  S72  1  0.80936424  0.65715518  0.91224315  1
  S  S73  1  0.01562407  0.37047803  0.91770413  1
  S  S74  1  0.67066256  0.95249346  0.91134863  1
  S  S75  1  0.30719662  0.95837255  0.41084707  1
  S  S76  1  0.17305778  0.39321325  0.41072357  1
  S  S77  1  0.51467013  0.66150070  0.41635899  1
  O  O78  1  0.09991591  0.00730362  0.30249159  1
  O  O79  1  0.60924550  0.00582982  0.29742358  1
  O  O80  1  0.40007874  0.78513255  0.30462283  1
  O  O81  1  0.89890990  0.78617503  0.29506058  1
  O  O82  1  0.49987078  0.21781451  0.30626744  1
  O  O83  1  0.99507278  0.21054124  0.29758578  1
  O  O84  1  0.10918310  0.21287256  0.79833455  1
  O  O85  1  0.60228777  0.19512850  0.80378331  1
  O  O86  1  0.49846350  0.77955990  0.80114505  1
  O  O87  1  -0.00032218  0.77924591  0.80782622  1
  O  O88  1  0.39763060  0.00811366  0.79607378  1
  O  O89  1  0.89936024  0.01423313  0.80536597  1
  O  O90  1  0.41109400  0.99818063  0.69799111  1
  O  O91  1  0.90145747  0.97024245  0.69929425  1
  O  O92  1  0.08469628  0.17662900  0.70029243  1
  O  O93  1  0.58138103  0.18662035  0.69618618  1
  O  O94  1  0.00063318  0.83169923  0.69992555  1
  O  O95  1  0.52084542  0.80710523  0.70312325  1
  O  O96  1  0.40112461  0.83132739  0.19867951  1
  O  O97  1  0.91214198  0.82791303  0.19771973  1
  O  O98  1  0.01791844  0.21398600  0.20008153  1
  O  O99  1  0.50052334  0.16851171  0.19875010  1
  O  O100  1  0.08074033  0.97285227  0.19594663  1
  O  O101  1  0.58490712  0.99191284  0.19938299  1
  O  O102  1  0.43328480  0.33697767  0.63303881  1
  O  O103  1  0.94231664  0.33580675  0.63432536  1
  O  O104  1  0.22433036  0.11209079  0.63476622  1
  O  O105  1  0.72728481  0.11859650  0.63152801  1
  O  O106  1  0.32408797  0.53152776  0.63892127  1
  O  O107  1  0.83644708  0.54924169  0.63204148  1
  O  O108  1  0.44267610  0.54948473  0.13419972  1
  O  O109  1  0.93850243  0.54779282  0.13245625  1
  O  O110  1  0.33523347  0.12173634  0.13217826  1
  O  O111  1  0.83000065  0.12572256  0.13826646  1
  O  O112  1  0.22636077  0.33892486  0.13213735  1
  O  O113  1  0.72731955  0.33880512  0.13426088  1
  O  O114  1  0.20128485  0.28610712  0.03510763  1
  O  O115  1  0.71024776  0.29253445  0.03738585  1
  O  O116  1  0.43906824  0.59477020  0.03778899  1
  O  O117  1  0.93880928  0.58596670  0.03489021  1
  O  O118  1  0.35488165  0.11179935  0.03508630  1
  O  O119  1  0.85900649  0.13824535  0.03346820  1
  O  O120  1  0.20644332  0.12491610  0.53766284  1
  O  O121  1  0.70482646  0.12215683  0.53439826  1
  O  O122  1  0.35957765  0.58399505  0.53390156  1
  O  O123  1  0.85738749  0.59852330  0.53506954  1
  O  O124  1  0.43729302  0.30258868  0.52518132  1
  O  O125  1  0.93902958  0.28369184  0.53781176  1
  O  O126  1  0.27018377  0.68605531  0.97047121  1
  O  O127  1  0.77200011  0.67166951  0.96279486  1
  O  O128  1  0.06462618  0.44994021  0.96715920  1
  O  O129  1  0.57291067  0.47156103  0.96718853  1
  O  O130  1  0.14586761  0.84758535  0.97065194  1
  O  O131  1  0.66900351  0.87313846  0.96357859  1
  O  O132  1  0.26876672  0.86861837  0.46041383  1
  O  O133  1  0.76949274  0.84941234  0.47108347  1
  O  O134  1  0.16913242  0.46913406  0.46209401  1
  O  O135  1  0.64610912  0.44360797  0.46821735  1
  O  O136  1  0.07364288  0.67470902  0.46705378  1
  O  O137  1  0.56376452  0.68042823  0.46549010  1
  O  O138  1  0.08318178  0.66533244  0.35979063  1
  O  O139  1  0.55534598  0.64587490  0.36718085  1
  O  O140  1  0.25733446  0.85859641  0.36118261  1
  O  O141  1  0.75656217  0.87402460  0.36181397  1
  O  O142  1  0.17481178  0.49321364  0.36241803  1
  O  O143  1  0.67894085  0.46930478  0.36321872  1
  O  O144  1  0.05545670  0.46722170  0.86878177  1
  O  O145  1  0.58290282  0.50153716  0.85917962  1
  O  O146  1  0.17668229  0.88193004  0.86565149  1
  O  O147  1  0.67416350  0.86119594  0.86372597  1
  O  O148  1  0.25613965  0.63809867  0.86236706  1
  O  O149  1  0.76023298  0.65126498  0.86367317  1
  O  O150  1  0.00588797  0.81877354  0.41068578  1
  O  O151  1  0.50634291  0.80930266  0.41317134  1
  O  O152  1  0.39095081  0.98019460  0.40782226  1
  O  O153  1  0.90266766  0.96987186  0.41446037  1
  O  O154  1  0.09791127  0.22949215  0.40864472  1
  O  O155  1  0.58558503  0.16869655  0.41600532  1
  O  O156  1  0.00618503  0.20528914  0.91486914  1
  O  O157  1  0.50641792  0.19339379  0.91097954  1
  O  O158  1  0.08441560  -0.00066280  0.91751279  1
  O  O159  1  0.59699607  0.97049733  0.91078254  1
  O  O160  1  0.40317600  0.83656336  0.91474428  1
  O  O161  1  0.89467797  0.80326395  0.91049825  1
  O  O162  1  0.49402733  0.16376191  0.59609517  1
  O  O163  1  0.99335500  0.16214132  0.59925822  1
  O  O164  1  0.08706036  0.01559514  0.59675807  1
  O  O165  1  0.58946897  0.01763873  0.59576983  1
  O  O166  1  0.42429349  0.83363206  0.60695850  1
  O  O167  1  0.92209389  0.82627867  0.59765048  1
  O  O168  1  0.49385678  0.82506982  0.09939259  1
  O  O169  1  0.99155658  0.81973789  0.09492393  1
  O  O170  1  0.41992924  0.01397995  0.09725559  1
  O  O171  1  0.92445812  0.01376824  0.10698398  1
  O  O172  1  0.08846245  0.16074987  0.09774895  1
  O  O173  1  0.58996069  0.16085090  0.09577322  1
  O  O174  1  0.34790068  0.14310200  0.73929776  1
  O  O175  1  0.82655580  0.12843669  0.74013200  1
  O  O176  1  0.22274548  0.29837484  0.73943337  1
  O  O177  1  0.73440208  0.33744423  0.73949877  1
  O  O178  1  0.43830445  0.53807008  0.74695296  1
  O  O179  1  0.92140304  0.52800076  0.74336905  1
  O  O180  1  0.32640703  0.52432116  0.23951211  1
  O  O181  1  0.85149419  0.55700261  0.23533366  1
  O  O182  1  0.42193954  0.31473796  0.24269958  1
  O  O183  1  0.93950931  0.33253914  0.23969373  1
  O  O184  1  0.23340312  0.12789973  0.23789536  1
  O  O185  1  0.72246334  0.14627824  0.23873296  1
  O  O186  1  0.31798308  0.49645186  0.92171380  1
  O  O187  1  0.81894067  0.50886357  0.91430763  1
  O  O188  1  0.43262706  0.36364799  0.90832551  1
  O  O189  1  0.93378628  0.36355611  0.92268938  1
  O  O190  1  0.24965529  0.15004280  0.92586928  1
  O  O191  1  0.74690449  0.12141165  0.91211346  1
  O  O192  1  0.31325566  0.12039789  0.40914282  1
  O  O193  1  0.81729668  0.13801293  0.42205334  1
  O  O194  1  0.24789756  0.37720790  0.41054913  1
  O  O195  1  0.75066614  0.34836306  0.42415585  1
  O  O196  1  0.43263139  0.50612757  0.42004870  1
  O  O197  1  0.93204005  0.49994598  0.40930756  1
  O  O198  1  0.15499751  0.45289809  0.08389484  1
  O  O199  1  0.66118184  0.45690795  0.08331791  1
  O  O200  1  0.06806754  0.67648479  0.08562937  1
  O  O201  1  0.56961758  0.68170425  0.08440824  1
  O  O202  1  0.27102185  0.86019965  0.08761740  1
  O  O203  1  0.76376531  0.84114731  0.08289706  1
  O  O204  1  0.15813936  0.86233548  0.58314458  1
  O  O205  1  0.65876728  0.86307979  0.58290107  1
  O  O206  1  0.26408835  0.69067570  0.58243725  1
  O  O207  1  0.77399359  0.68534789  0.58681436  1
  O  O208  1  0.06925616  0.45711103  0.58473552  1
  O  O209  1  0.58082490  0.48783232  0.58637931  1
  O  O210  1  0.14660632  0.81142274  0.25979480  1
  O  O211  1  0.64716967  0.84677710  0.23910890  1
  O  O212  1  0.25387164  0.70041254  0.26074479  1
  O  O213  1  0.77896108  0.71073251  0.23804685  1
  O  O214  1  0.08726288  0.46952006  0.25266138  1
  O  O215  1  0.59049148  0.47559631  0.23889557  1
  O  O216  1  0.14655060  0.44636345  0.73988399  1
  O  O217  1  0.64388706  0.47515292  0.75802871  1
  O  O218  1  0.08984871  0.70471802  0.73981971  1
  O  O219  1  0.58734190  0.69445217  0.75844038  1
  O  O220  1  0.27795162  0.84477313  0.73918412  1
  O  O221  1  0.75408862  0.80683041  0.76238328  1
