# generated using pymatgen
data_NaTiSe4
_symmetry_space_group_name_H-M   'P 1'
_cell_length_a   7.26429053
_cell_length_b   12.97751001
_cell_length_c   13.14049820
_cell_angle_alpha   73.63093155
_cell_angle_beta   90.00000000
_cell_angle_gamma   90.00000000
_symmetry_Int_Tables_number   1
_chemical_formula_structural   NaTiSe4
_chemical_formula_sum   'Na8 Ti8 Se32'
_cell_volume   1188.57369822
_cell_formula_units_Z   8
loop_
 _symmetry_equiv_pos_site_id
 _symmetry_equiv_pos_as_xyz
  1  'x, y, z'
loop_
 _atom_site_type_symbol
 _atom_site_label
 _atom_site_symmetry_multiplicity
 _atom_site_fract_x
 _atom_site_fract_y
 _atom_site_fract_z
 _atom_site_occupancy
  Na  Na0  1  0.68306050  0.90332476  0.86907645  1
  Na  Na1  1  0.18306050  0.09667524  0.63092355  1
  Na  Na2  1  0.31693950  0.09667524  0.13092355  1
  Na  Na3  1  0.81693950  0.90332476  0.36907645  1
  Na  Na4  1  0.66458163  0.53806420  0.88211525  1
  Na  Na5  1  0.16458163  0.46193580  0.61788475  1
  Na  Na6  1  0.33541837  0.46193580  0.11788475  1
  Na  Na7  1  0.83541837  0.53806420  0.38211525  1
  Ti  Ti8  1  0.72509818  0.26807042  0.61534059  1
  Ti  Ti9  1  0.22509818  0.73192958  0.88465941  1
  Ti  Ti10  1  0.27490182  0.73192958  0.38465941  1
  Ti  Ti11  1  0.77490182  0.26807042  0.11534059  1
  Ti  Ti12  1  0.80030007  0.21912943  0.37430041  1
  Ti  Ti13  1  0.30030007  0.78087057  0.12569959  1
  Ti  Ti14  1  0.19969993  0.78087057  0.62569959  1
  Ti  Ti15  1  0.69969993  0.21912943  0.87430041  1
  Se  Se16  1  0.98397522  0.32340389  0.50022757  1
  Se  Se17  1  0.48397522  0.67659611  -0.00022757  1
  Se  Se18  1  0.01602478  0.67659611  0.49977243  1
  Se  Se19  1  0.51602478  0.32340389  0.00022757  1
  Se  Se20  1  0.80842668  0.39990296  0.74196769  1
  Se  Se21  1  0.30842668  0.60009704  0.75803231  1
  Se  Se22  1  0.19157332  0.60009704  0.25803231  1
  Se  Se23  1  0.69157332  0.39990296  0.24196769  1
  Se  Se24  1  0.00443847  0.26797807  0.96401310  1
  Se  Se25  1  0.50443847  0.73202193  0.53598690  1
  Se  Se26  1  0.99556153  0.73202193  0.03598690  1
  Se  Se27  1  0.49556153  0.26797807  0.46401310  1
  Se  Se28  1  0.91346779  0.45183897  0.10445236  1
  Se  Se29  1  0.41346779  0.54816103  0.39554764  1
  Se  Se30  1  0.08653221  0.54816103  0.89554764  1
  Se  Se31  1  0.58653221  0.45183897  0.60445236  1
  Se  Se32  1  0.07679642  0.09171806  0.40113335  1
  Se  Se33  1  0.57679642  0.90828194  0.09886665  1
  Se  Se34  1  0.92320358  0.90828194  0.59886665  1
  Se  Se35  1  0.42320358  0.09171806  0.90113335  1
  Se  Se36  1  0.08421390  0.24729978  0.25364158  1
  Se  Se37  1  0.58421390  0.75270022  0.24635842  1
  Se  Se38  1  0.91578610  0.75270022  0.74635842  1
  Se  Se39  1  0.41578610  0.24729978  0.75364158  1
  Se  Se40  1  0.62828989  0.12259453  0.26978305  1
  Se  Se41  1  0.12828989  0.87740547  0.23021695  1
  Se  Se42  1  0.37171011  0.87740547  0.73021695  1
  Se  Se43  1  0.87171011  0.12259453  0.76978305  1
  Se  Se44  1  0.64149458  0.10428171  0.54706235  1
  Se  Se45  1  0.14149458  0.89571829  0.95293765  1
  Se  Se46  1  0.35850542  0.89571829  0.45293765  1
  Se  Se47  1  0.85850542  0.10428171  0.04706235  1
