# generated using pymatgen
data_MgFe4(OF)4
_symmetry_space_group_name_H-M   'P 1'
_cell_length_a   8.49273478
_cell_length_b   10.50141221
_cell_length_c   3.25963222
_cell_angle_alpha   90.00000000
_cell_angle_beta   90.00000000
_cell_angle_gamma   143.55719972
_symmetry_Int_Tables_number   1
_chemical_formula_structural   MgFe4(OF)4
_chemical_formula_sum   'Mg1 Fe4 O4 F4'
_cell_volume   172.68909886
_cell_formula_units_Z   1
loop_
 _symmetry_equiv_pos_site_id
 _symmetry_equiv_pos_as_xyz
  1  'x, y, z'
loop_
 _atom_site_type_symbol
 _atom_site_label
 _atom_site_symmetry_multiplicity
 _atom_site_fract_x
 _atom_site_fract_y
 _atom_site_fract_z
 _atom_site_occupancy
  Mg  Mg0  1  0.00137226  0.75004234  0.00000000  1
  Fe  Fe1  1  0.88413139  0.01095935  0.00000000  1
  Fe  Fe2  1  0.13754817  0.51238673  0.00000000  1
  Fe  Fe3  1  0.42394359  0.44028939  0.50000000  1
  Fe  Fe4  1  0.49558293  0.97544066  0.50000000  1
  O  O5  1  0.24044786  0.49905894  0.50000000  1
  O  O6  1  0.24507527  0.25164481  0.00000000  1
  O  O7  1  0.24015489  0.74983246  0.00000000  1
  O  O8  1  0.74305602  0.98392725  0.50000000  1
  F  F9  1  0.22828248  0.95479763  0.50000000  1
  F  F10  1  0.76210810  0.75138548  0.00000000  1
  F  F11  1  0.75105837  0.23307078  0.00000000  1
  F  F12  1  0.76724167  0.55144817  0.50000000  1
