# generated using pymatgen
data_Na8Sc3TaSi5SO24
_symmetry_space_group_name_H-M   'P 1'
_cell_length_a   9.21338030
_cell_length_b   9.20483373
_cell_length_c   22.36712938
_cell_angle_alpha   89.93193774
_cell_angle_beta   90.09352718
_cell_angle_gamma   120.03775631
_symmetry_Int_Tables_number   1
_chemical_formula_structural   Na8Sc3TaSi5SO24
_chemical_formula_sum   'Na24 Sc9 Ta3 Si15 S3 O72'
_cell_volume   1642.13876132
_cell_formula_units_Z   3
loop_
 _symmetry_equiv_pos_site_id
 _symmetry_equiv_pos_as_xyz
  1  'x, y, z'
loop_
 _atom_site_type_symbol
 _atom_site_label
 _atom_site_symmetry_multiplicity
 _atom_site_fract_x
 _atom_site_fract_y
 _atom_site_fract_z
 _atom_site_occupancy
  Na  Na0  1  0.61748387  0.99852851  0.25131255  1
  Na  Na1  1  0.36696254  0.35599487  0.25638141  1
  Na  Na2  1  0.01166415  0.64334207  0.24712317  1
  Na  Na3  1  0.64079526  0.62247224  0.74502039  1
  Na  Na4  1  0.99990847  0.36332570  0.73416692  1
  Na  Na5  1  0.35200634  0.00805268  0.73894345  1
  Na  Na6  1  0.29583613  0.34217094  0.58102903  1
  Na  Na7  1  0.04251121  0.70394879  0.58161275  1
  Na  Na8  1  0.66428845  0.95679484  0.57640491  1
  Na  Na9  1  0.29872026  0.95499726  0.08223311  1
  Na  Na10  1  0.65888039  0.70519908  0.07787627  1
  Na  Na11  1  0.04348222  0.33805602  0.07847916  1
  Na  Na12  1  0.96976914  0.67809868  0.91450208  1
  Na  Na13  1  0.70295748  0.02225605  0.91981255  1
  Na  Na14  1  0.32043070  0.29451336  0.91351701  1
  Na  Na15  1  0.98049466  0.30471573  0.42277233  1
  Na  Na16  1  0.32747380  0.02162862  0.41764190  1
  Na  Na17  1  0.69463511  0.67848135  0.42249133  1
  Na  Na18  1  0.99873727  0.00087463  0.50179668  1
  Na  Na19  1  0.99766065  0.99893242  0.99891839  1
  Na  Na20  1  0.66572714  0.34453960  0.82991063  1
  Na  Na21  1  0.65256294  0.32071712  0.33737117  1
  Na  Na22  1  0.33182663  0.67693931  0.16041262  1
  Na  Na23  1  0.32867125  0.66260482  0.65570019  1
  Sc  Sc24  1  0.01312655  0.00308791  0.35630041  1
  Sc  Sc25  1  0.00923484  0.99693029  0.85293907  1
  Sc  Sc26  1  0.01672210  0.00489332  0.64392219  1
  Sc  Sc27  1  0.01193311  0.99598585  0.14038263  1
  Sc  Sc28  1  0.66629475  0.34126602  0.68275461  1
  Sc  Sc29  1  0.65739732  0.32516516  0.18133201  1
  Sc  Sc30  1  0.33222939  0.66537720  0.01944136  1
  Sc  Sc31  1  0.33400329  0.66875489  0.51692777  1
  Sc  Sc32  1  0.33122105  0.67550228  0.32156724  1
  Ta  Ta33  1  0.66530093  0.33268818  0.98043037  1
  Ta  Ta34  1  0.66719789  0.33506221  0.48234530  1
  Ta  Ta35  1  0.32331730  0.65781183  0.81748441  1
  Si  Si36  1  0.29887004  0.99773609  0.24939718  1
  Si  Si37  1  0.29593546  0.29908676  0.75137642  1
  Si  Si38  1  0.00332998  0.70406946  0.75099304  1
  Si  Si39  1  0.96037021  0.33199180  0.58557803  1
  Si  Si40  1  0.37627587  0.04010179  0.58587662  1
  Si  Si41  1  0.66754598  0.63170886  0.58502969  1
  Si  Si42  1  0.95736363  0.62270092  0.08579330  1
  Si  Si43  1  0.66808130  0.03880937  0.08418990  1
  Si  Si44  1  0.37332911  0.33491315  0.08406160  1
  Si  Si45  1  0.62679454  0.66582107  0.91911864  1
  Si  Si46  1  0.03287884  0.36810770  0.92023817  1
  Si  Si47  1  0.33716269  0.96121891  0.91866184  1
  Si  Si48  1  0.63216239  0.96803282  0.41676204  1
  Si  Si49  1  0.33797778  0.37561441  0.41585767  1
  Si  Si50  1  0.03302932  0.66280759  0.41663402  1
  S  S51  1  0.70554369  0.70737925  0.24916167  1
  S  S52  1  0.00174883  0.29402377  0.24884654  1
  S  S53  1  0.69972320  0.99127998  0.75191982  1
  O  O54  1  0.20236626  0.01649217  0.30747875  1
  O  O55  1  0.80165346  0.79714279  0.30289247  1
  O  O56  1  0.98629716  0.19496093  0.30294515  1
  O  O57  1  0.20193650  0.19052157  0.81059378  1
  O  O58  1  0.97778968  0.79059563  0.81027332  1
  O  O59  1  0.79764439  0.00640616  0.80634968  1
  O  O60  1  0.77949470  0.97265619  0.69793195  1
  O  O61  1  0.17733358  0.21883432  0.69252241  1
  O  O62  1  0.03805790  0.82422851  0.69279784  1
  O  O63  1  0.78849209  0.80448322  0.19454780  1
  O  O64  1  0.00803820  0.20570916  0.19462815  1
  O  O65  1  0.18504176  0.97809147  0.18975228  1
  O  O66  1  0.87068941  0.35206254  0.64498599  1
  O  O67  1  0.48313788  0.12638274  0.64617553  1
  O  O68  1  0.64461962  0.52193675  0.64499499  1
  O  O69  1  0.87039452  0.51510651  0.14576343  1
  O  O70  1  0.64310599  0.12650911  0.14326547  1
  O  O71  1  0.48322802  0.35739706  0.14363029  1
  O  O72  1  0.47738202  0.31524982  0.02522146  1
  O  O73  1  0.83474403  0.51796430  0.02655798  1
  O  O74  1  0.68487960  0.16132414  0.02483637  1
  O  O75  1  0.48136790  0.16195025  0.52749215  1
  O  O76  1  0.68352789  0.52478221  0.52682558  1
  O  O77  1  0.83918989  0.31883576  0.52707593  1
  O  O78  1  0.54295210  0.69392430  0.97762333  1
  O  O79  1  0.14908042  0.45019274  0.97774850  1
  O  O80  1  0.30692352  0.84808924  0.97699095  1
  O  O81  1  0.54883984  0.84766177  0.47439425  1
  O  O82  1  0.30571362  0.46173906  0.47339865  1
  O  O83  1  0.15437183  0.70012408  0.47382592  1
  O  O84  1  0.11315747  0.62714524  0.35663907  1
  O  O85  1  0.51191690  0.88661150  0.35755854  1
  O  O86  1  0.37047106  0.48895716  0.35527999  1
  O  O87  1  0.13743266  0.49719161  0.86193108  1
  O  O88  1  0.36248671  0.86161047  0.86015376  1
  O  O89  1  0.50086448  0.64120730  0.86073795  1
  O  O90  1  -0.00113301  0.82045379  0.41032448  1
  O  O91  1  0.82125165  0.99928875  0.40811120  1
  O  O92  1  0.17535307  0.18534428  0.41171772  1
  O  O93  1  -0.00130620  0.18001612  0.91020376  1
  O  O94  1  0.17731512  0.98989417  0.91214440  1
  O  O95  1  0.81363771  0.82624469  0.91167825  1
  O  O96  1  0.96610323  0.15778608  0.58511778  1
  O  O97  1  0.19613939  0.03510690  0.58400283  1
  O  O98  1  0.84028699  0.81266534  0.58578212  1
  O  O99  1  0.96292685  0.80351815  0.08363290  1
  O  O100  1  0.84100139  0.03129081  0.08512793  1
  O  O101  1  0.19145273  0.16169045  0.08301464  1
  O  O102  1  0.67798119  0.14076171  0.74996609  1
  O  O103  1  0.48291213  0.31935688  0.74927470  1
  O  O104  1  0.84425402  0.51213004  0.74828698  1
  O  O105  1  0.69376287  0.53916962  0.24939949  1
  O  O106  1  0.85311833  0.31839381  0.24865281  1
  O  O107  1  0.48788312  0.16901635  0.24964671  1
  O  O108  1  0.63555261  0.48938534  0.92112318  1
  O  O109  1  0.85304060  0.36771205  0.92111675  1
  O  O110  1  0.51208728  0.14719896  0.92076722  1
  O  O111  1  0.64637386  0.15476879  0.42409355  1
  O  O112  1  0.50685010  0.35494642  0.42343464  1
  O  O113  1  0.84577314  0.49186817  0.42364651  1
  O  O114  1  0.35259439  0.49885744  0.08032859  1
  O  O115  1  0.14273001  0.64499354  0.08038114  1
  O  O116  1  0.50184819  0.85450781  0.07990863  1
  O  O117  1  0.35406948  0.85475402  0.57997623  1
  O  O118  1  0.50114308  0.64844936  0.57964083  1
  O  O119  1  0.14469858  0.49811131  0.57960173  1
  O  O120  1  0.31504024  0.82605995  0.25138673  1
  O  O121  1  0.53322347  0.68410632  0.25029158  1
  O  O122  1  0.15861682  0.46140890  0.25011379  1
  O  O123  1  0.31984809  0.49349725  0.75810064  1
  O  O124  1  0.18052208  0.69202020  0.75809770  1
  O  O125  1  0.52883687  0.83603494  0.75533147  1
