# generated using pymatgen
data_RbBiO2
_symmetry_space_group_name_H-M   'P 1'
_cell_length_a   5.83775677
_cell_length_b   5.83775659
_cell_length_c   5.98895374
_cell_angle_alpha   112.53093901
_cell_angle_beta   112.53094413
_cell_angle_gamma   92.31933835
_symmetry_Int_Tables_number   1
_chemical_formula_structural   RbBiO2
_chemical_formula_sum   'Rb2 Bi2 O4'
_cell_volume   169.88436818
_cell_formula_units_Z   2
loop_
 _symmetry_equiv_pos_site_id
 _symmetry_equiv_pos_as_xyz
  1  'x, y, z'
loop_
 _atom_site_type_symbol
 _atom_site_label
 _atom_site_symmetry_multiplicity
 _atom_site_fract_x
 _atom_site_fract_y
 _atom_site_fract_z
 _atom_site_occupancy
  Rb  Rb0  1  0.36703532  0.63296468  0.75000000  1
  Rb  Rb1  1  0.63296468  0.36703532  0.25000000  1
  Bi  Bi2  1  0.09849924  0.90150076  0.25000000  1
  Bi  Bi3  1  0.90150076  0.09849924  0.75000000  1
  O  O4  1  0.12142927  0.24389495  0.21265124  1
  O  O5  1  0.75610505  0.87857073  0.28734876  1
  O  O6  1  0.24389495  0.12142927  0.71265124  1
  O  O7  1  0.87857073  0.75610505  0.78734876  1
