# generated using pymatgen
data_NaMgIn(SO4)3
_symmetry_space_group_name_H-M   'P 1'
_cell_length_a   8.76595882
_cell_length_b   8.76595854
_cell_length_c   23.14475474
_cell_angle_alpha   90.00000000
_cell_angle_beta   90.00000000
_cell_angle_gamma   120.00000107
_symmetry_Int_Tables_number   1
_chemical_formula_structural   NaMgIn(SO4)3
_chemical_formula_sum   'Na6 Mg6 In6 S18 O72'
_cell_volume   1540.21748133
_cell_formula_units_Z   6
loop_
 _symmetry_equiv_pos_site_id
 _symmetry_equiv_pos_as_xyz
  1  'x, y, z'
loop_
 _atom_site_type_symbol
 _atom_site_label
 _atom_site_symmetry_multiplicity
 _atom_site_fract_x
 _atom_site_fract_y
 _atom_site_fract_z
 _atom_site_occupancy
  Na  Na0  1  0.00000000  -0.00000000  0.49791121  1
  Na  Na1  1  0.00000000  -0.00000000  0.99791121  1
  Na  Na2  1  0.66666700  0.33333300  0.83124421  1
  Na  Na3  1  0.66666700  0.33333300  0.33124421  1
  Na  Na4  1  0.33333300  0.66666700  0.16457821  1
  Na  Na5  1  0.33333300  0.66666700  0.66457821  1
  Mg  Mg6  1  0.00000000  -0.00000000  0.35130638  1
  Mg  Mg7  1  0.00000000  -0.00000000  0.85130638  1
  Mg  Mg8  1  0.66666700  0.33333300  0.68463938  1
  Mg  Mg9  1  0.66666700  0.33333300  0.18463938  1
  Mg  Mg10  1  0.33333300  0.66666700  0.01797338  1
  Mg  Mg11  1  0.33333300  0.66666700  0.51797338  1
  In  In12  1  0.00000000  0.00000000  0.65040755  1
  In  In13  1  0.00000000  0.00000000  0.15040755  1
  In  In14  1  0.66666700  0.33333300  0.98374055  1
  In  In15  1  0.66666700  0.33333300  0.48374055  1
  In  In16  1  0.33333300  0.66666700  0.31707455  1
  In  In17  1  0.33333300  0.66666700  0.81707455  1
  S  S18  1  0.29555115  0.00346730  0.25114216  1
  S  S19  1  0.70791615  0.70444885  0.25114216  1
  S  S20  1  0.99653270  0.29208385  0.25114216  1
  S  S21  1  0.29555115  0.29208385  0.75114216  1
  S  S22  1  0.99653270  0.70444885  0.75114216  1
  S  S23  1  0.70791615  0.00346730  0.75114216  1
  S  S24  1  0.96221815  0.33680030  0.58447516  1
  S  S25  1  0.37458315  0.03778185  0.58447516  1
  S  S26  1  0.66319970  0.62541685  0.58447516  1
  S  S27  1  0.96221815  0.62541685  0.08447516  1
  S  S28  1  0.66319970  0.03778185  0.08447516  1
  S  S29  1  0.37458315  0.33680030  0.08447516  1
  S  S30  1  0.62888415  0.67013430  0.91780916  1
  S  S31  1  0.04124915  0.37111585  0.91780916  1
  S  S32  1  0.32986570  0.95875085  0.91780916  1
  S  S33  1  0.62888415  0.95875085  0.41780916  1
  S  S34  1  0.32986570  0.37111585  0.41780916  1
  S  S35  1  0.04124915  0.67013430  0.41780916  1
  O  O36  1  0.21007718  0.02543438  0.30218495  1
  O  O37  1  0.81535720  0.78992282  0.30218495  1
  O  O38  1  0.97456562  0.18464280  0.30218495  1
  O  O39  1  0.21007718  0.18464280  0.80218495  1
  O  O40  1  0.97456562  0.78992282  0.80218495  1
  O  O41  1  0.81535720  0.02543438  0.80218495  1
  O  O42  1  0.77975303  0.96953450  0.69726254  1
  O  O43  1  0.18978148  0.22024697  0.69726254  1
  O  O44  1  0.03046550  0.81021852  0.69726254  1
  O  O45  1  0.77975303  0.81021852  0.19726254  1
  O  O46  1  0.03046550  0.22024697  0.19726254  1
  O  O47  1  0.18978148  0.96953450  0.19726254  1
  O  O48  1  0.87674418  0.35876738  0.63551795  1
  O  O49  1  0.48202420  0.12325582  0.63551795  1
  O  O50  1  0.64123262  0.51797580  0.63551795  1
  O  O51  1  0.87674418  0.51797580  0.13551795  1
  O  O52  1  0.64123262  0.12325582  0.13551795  1
  O  O53  1  0.48202420  0.35876738  0.13551795  1
  O  O54  1  0.44642003  0.30286750  0.03059554  1
  O  O55  1  0.85644848  0.55357997  0.03059554  1
  O  O56  1  0.69713250  0.14355152  0.03059554  1
  O  O57  1  0.44642003  0.14355152  0.53059554  1
  O  O58  1  0.69713250  0.55357997  0.53059554  1
  O  O59  1  0.85644848  0.30286750  0.53059554  1
  O  O60  1  0.54341018  0.69210138  0.96885195  1
  O  O61  1  0.14869020  0.45658982  0.96885195  1
  O  O62  1  0.30789862  0.85130980  0.96885195  1
  O  O63  1  0.54341018  0.85130980  0.46885195  1
  O  O64  1  0.30789862  0.45658982  0.46885195  1
  O  O65  1  0.14869020  0.69210138  0.46885195  1
  O  O66  1  0.11308603  0.63620150  0.36392954  1
  O  O67  1  0.52311448  0.88691397  0.36392954  1
  O  O68  1  0.36379850  0.47688552  0.36392954  1
  O  O69  1  0.11308603  0.47688552  0.86392954  1
  O  O70  1  0.36379850  0.88691397  0.86392954  1
  O  O71  1  0.52311448  0.63620150  0.86392954  1
  O  O72  1  0.02400108  0.82815268  0.41050340  1
  O  O73  1  0.80415160  0.97599892  0.41050340  1
  O  O74  1  0.17184732  0.19584841  0.41050340  1
  O  O75  1  0.02400108  0.19584841  0.91050340  1
  O  O76  1  0.17184732  0.97599892  0.91050340  1
  O  O77  1  0.80415159  0.82815268  0.91050340  1
  O  O78  1  0.97980259  0.17511242  0.58903191  1
  O  O79  1  0.19530982  0.02019741  0.58903191  1
  O  O80  1  0.82488758  0.80469018  0.58903191  1
  O  O81  1  0.97980259  0.80469018  0.08903191  1
  O  O82  1  0.82488758  0.02019741  0.08903191  1
  O  O83  1  0.19530982  0.17511242  0.08903191  1
  O  O84  1  0.69066808  0.16148568  0.74383640  1
  O  O85  1  0.47081860  0.30933192  0.74383640  1
  O  O86  1  0.83851432  0.52918141  0.74383640  1
  O  O87  1  0.69066808  0.52918141  0.24383640  1
  O  O88  1  0.83851432  0.30933192  0.24383640  1
  O  O89  1  0.47081859  0.16148568  0.24383640  1
  O  O90  1  0.64646959  0.50844542  0.92236491  1
  O  O91  1  0.86197682  0.35353041  0.92236491  1
  O  O92  1  0.49155458  0.13802318  0.92236491  1
  O  O93  1  0.64646959  0.13802318  0.42236491  1
  O  O94  1  0.49155458  0.35353041  0.42236491  1
  O  O95  1  0.86197682  0.50844542  0.42236491  1
  O  O96  1  0.35733408  0.49481968  0.07717040  1
  O  O97  1  0.13748460  0.64266592  0.07717040  1
  O  O98  1  0.50518032  0.86251541  0.07717040  1
  O  O99  1  0.35733408  0.86251541  0.57717040  1
  O  O100  1  0.50518032  0.64266592  0.57717040  1
  O  O101  1  0.13748459  0.49481968  0.57717040  1
  O  O102  1  0.31313559  0.84177942  0.25569891  1
  O  O103  1  0.52864282  0.68686441  0.25569891  1
  O  O104  1  0.15822058  0.47135718  0.25569891  1
  O  O105  1  0.31313559  0.47135718  0.75569891  1
  O  O106  1  0.15822058  0.68686441  0.75569891  1
  O  O107  1  0.52864282  0.84177942  0.75569891  1
