# generated using pymatgen
data_IO2
_symmetry_space_group_name_H-M   'P 1'
_cell_length_a   6.76690215
_cell_length_b   7.82743668
_cell_length_c   8.29899840
_cell_angle_alpha   116.68794003
_cell_angle_beta   90.00000000
_cell_angle_gamma   90.00000000
_symmetry_Int_Tables_number   1
_chemical_formula_structural   IO2
_chemical_formula_sum   'I8 O16'
_cell_volume   392.74724178
_cell_formula_units_Z   8
loop_
 _symmetry_equiv_pos_site_id
 _symmetry_equiv_pos_as_xyz
  1  'x, y, z'
loop_
 _atom_site_type_symbol
 _atom_site_label
 _atom_site_symmetry_multiplicity
 _atom_site_fract_x
 _atom_site_fract_y
 _atom_site_fract_z
 _atom_site_occupancy
  I  I0  1  0.12623781  0.85976197  0.68525461  1
  I  I1  1  0.62623781  0.14023803  0.81474539  1
  I  I2  1  0.87376219  0.14023803  0.31474539  1
  I  I3  1  0.37376219  0.85976197  0.18525461  1
  I  I4  1  0.25406260  0.31763152  0.14276132  1
  I  I5  1  0.75406260  0.68236848  0.35723868  1
  I  I6  1  0.74593740  0.68236848  0.85723868  1
  I  I7  1  0.24593740  0.31763152  0.64276132  1
  O  O8  1  0.25945184  0.05873161  0.50851749  1
  O  O9  1  0.75945184  0.94126839  0.99148251  1
  O  O10  1  0.74054816  0.94126839  0.49148251  1
  O  O11  1  0.24054816  0.05873161  0.00851749  1
  O  O12  1  0.34693631  0.31806579  0.34485039  1
  O  O13  1  0.84693631  0.68193421  0.15514961  1
  O  O14  1  0.65306369  0.68193421  0.65514961  1
  O  O15  1  0.15306369  0.31806579  0.84485039  1
  O  O16  1  0.04401445  0.69068953  0.44315806  1
  O  O17  1  0.54401445  0.30931047  0.05684194  1
  O  O18  1  0.95598555  0.30931047  0.55684194  1
  O  O19  1  0.45598555  0.69068953  0.94315806  1
  O  O20  1  0.04816281  0.69160587  0.78410942  1
  O  O21  1  0.54816281  0.30839413  0.71589058  1
  O  O22  1  0.95183719  0.30839413  0.21589058  1
  O  O23  1  0.45183719  0.69160587  0.28410942  1
