# generated using pymatgen
data_Na6La4Ga4Si3(S3O16)3
_symmetry_space_group_name_H-M   'P 1'
_cell_length_a   18.10947745
_cell_length_b   9.11043367
_cell_length_c   23.70771905
_cell_angle_alpha   90.44951021
_cell_angle_beta   89.03122692
_cell_angle_gamma   120.12390066
_symmetry_Int_Tables_number   1
_chemical_formula_structural   Na6La4Ga4Si3(S3O16)3
_chemical_formula_sum   'Na18 La12 Ga12 Si9 S27 O144'
_cell_volume   3382.66972937
_cell_formula_units_Z   3
loop_
 _symmetry_equiv_pos_site_id
 _symmetry_equiv_pos_as_xyz
  1  'x, y, z'
loop_
 _atom_site_type_symbol
 _atom_site_label
 _atom_site_symmetry_multiplicity
 _atom_site_fract_x
 _atom_site_fract_y
 _atom_site_fract_z
 _atom_site_occupancy
  Na  Na0  1  0.00379461  0.63769387  0.25582084  1
  Na  Na1  1  0.50175986  0.37192885  0.74065928  1
  Na  Na2  1  0.16156235  0.31070798  0.91289730  1
  Na  Na3  1  0.66205714  0.30316225  0.90802271  1
  Na  Na4  1  0.16578029  0.02759230  0.41729726  1
  Na  Na5  1  0.65989527  0.00749906  0.41982617  1
  Na  Na6  1  0.99148045  0.98426710  0.49275770  1
  Na  Na7  1  0.48878603  0.00306734  0.49619996  1
  Na  Na8  1  0.99028096  0.99662372  0.98657246  1
  Na  Na9  1  0.49181563  0.99825139  0.98826347  1
  Na  Na10  1  0.33534203  0.33488759  0.82639134  1
  Na  Na11  1  0.83942666  0.33672593  0.83989604  1
  Na  Na12  1  0.34118092  0.34632823  0.34389435  1
  Na  Na13  1  0.83338735  0.33153156  0.33353830  1
  Na  Na14  1  0.17426909  0.68266642  0.18023748  1
  Na  Na15  1  0.66840773  0.69027825  0.17499922  1
  Na  Na16  1  0.17239897  0.65098377  0.67225930  1
  Na  Na17  1  0.66081420  0.64511554  0.66924047  1
  La  La18  1  0.99762377  0.00898937  0.64679734  1
  La  La19  1  0.51296454  0.01978212  0.64720884  1
  La  La20  1  0.01313249  0.01028481  0.14995773  1
  La  La21  1  0.49850633  0.98614966  0.14717742  1
  La  La22  1  0.82724405  0.33454158  0.69476000  1
  La  La23  1  0.32796060  0.32270615  0.19571479  1
  La  La24  1  0.15488576  0.65076589  0.01174348  1
  La  La25  1  0.66657254  0.65892999  0.01133571  1
  La  La26  1  0.16837000  0.67453579  0.51176407  1
  La  La27  1  0.64218896  0.63710028  0.51791122  1
  La  La28  1  0.66068670  0.67388628  0.32130060  1
  La  La29  1  0.16046255  0.64526427  0.81947525  1
  Ga  Ga30  1  0.00228113  0.98890033  0.35351079  1
  Ga  Ga31  1  0.50972668  0.98816439  0.34443724  1
  Ga  Ga32  1  0.01213224  0.04041151  0.84020432  1
  Ga  Ga33  1  0.50038997  0.01783688  0.84699695  1
  Ga  Ga34  1  0.32306971  0.32640992  0.67931587  1
  Ga  Ga35  1  0.82226257  0.31654772  0.18650294  1
  Ga  Ga36  1  0.34511892  0.33330970  0.97713745  1
  Ga  Ga37  1  0.83868747  0.32933903  0.98400227  1
  Ga  Ga38  1  0.35825315  0.37300933  0.49103268  1
  Ga  Ga39  1  0.84558128  0.35427551  0.47799089  1
  Ga  Ga40  1  0.15858104  0.67339912  0.32346136  1
  Ga  Ga41  1  0.65289908  0.64621348  0.82011206  1
  Si  Si42  1  0.14517011  0.98184207  0.26079614  1
  Si  Si43  1  0.65605103  0.01305690  0.24912993  1
  Si  Si44  1  0.16037414  0.29915568  0.74770636  1
  Si  Si45  1  0.64690343  0.31207812  0.76174574  1
  Si  Si46  1  0.46805516  0.32872779  0.59175546  1
  Si  Si47  1  0.00085804  0.33248163  0.91625565  1
  Si  Si48  1  0.51178015  0.35175472  0.91337997  1
  Si  Si49  1  0.01199485  0.66966562  0.41372191  1
  Si  Si50  1  0.50088269  0.67158371  0.41475618  1
  S  S51  1  0.34451024  0.71148286  0.26081691  1
  S  S52  1  0.85369795  0.69290088  0.24943281  1
  S  S53  1  0.00074198  0.30314647  0.25468921  1
  S  S54  1  0.50119097  0.28317085  0.25627688  1
  S  S55  1  0.00053873  0.72125216  0.75675184  1
  S  S56  1  0.50376724  0.71105812  0.75894228  1
  S  S57  1  0.35495414  0.00860199  0.75443709  1
  S  S58  1  0.84442580  0.97913647  0.76173026  1
  S  S59  1  0.97413832  0.32935351  0.57695930  1
  S  S60  1  0.19605031  0.05967099  0.57828633  1
  S  S61  1  0.69620113  0.05595863  0.57266875  1
  S  S62  1  0.33042515  0.60999151  0.58480314  1
  S  S63  1  0.83481398  0.62101544  0.57506292  1
  S  S64  1  0.47313449  0.61717707  0.07689810  1
  S  S65  1  0.96537141  0.59981966  0.08670163  1
  S  S66  1  0.33403401  0.04771290  0.07517544  1
  S  S67  1  0.83269692  0.05862211  0.08525243  1
  S  S68  1  0.19293078  0.33357034  0.07442746  1
  S  S69  1  0.70071832  0.33556321  0.08016398  1
  S  S70  1  0.32919948  0.66466801  0.91899766  1
  S  S71  1  0.82204835  0.66459583  0.91252176  1
  S  S72  1  0.16931898  0.99275358  0.91824764  1
  S  S73  1  0.66391130  0.96892612  0.91286751  1
  S  S74  1  0.32116617  0.97273947  0.40835771  1
  S  S75  1  0.82896611  0.98972118  0.41864067  1
  S  S76  1  0.16069452  0.36011080  0.40870769  1
  S  S77  1  0.66908258  0.34401419  0.41604566  1
  O  O78  1  0.09227000  0.00894271  0.31197839  1
  O  O79  1  0.61027053  0.02695515  0.30835804  1
  O  O80  1  0.40390108  0.81495103  0.30527455  1
  O  O81  1  0.90580501  0.77895840  0.29992621  1
  O  O82  1  0.50007875  0.17975309  0.30415817  1
  O  O83  1  0.98466404  0.18943408  0.30258626  1
  O  O84  1  0.11746234  0.19847405  0.80877589  1
  O  O85  1  0.59877973  0.18639126  0.81508795  1
  O  O86  1  0.49173813  0.80260237  0.80723000  1
  O  O87  1  0.99955087  0.82478765  0.80524380  1
  O  O88  1  0.40541275  0.01399105  0.80490692  1
  O  O89  1  0.90445095  0.99711948  0.80682903  1
  O  O90  1  0.39193211  0.98212843  0.70210327  1
  O  O91  1  0.87495207  0.95394282  0.70583564  1
  O  O92  1  0.09637180  0.20154221  0.69584851  1
  O  O93  1  0.59351489  0.23663333  0.70360129  1
  O  O94  1  0.99583746  0.79232721  0.70190624  1
  O  O95  1  0.51537169  0.80005097  0.70482866  1
  O  O96  1  0.37419391  0.79409802  0.20445469  1
  O  O97  1  0.89087159  0.79695991  0.19784796  1
  O  O98  1  0.01378982  0.23327621  0.20076487  1
  O  O99  1  0.49670126  0.20170284  0.20092007  1
  O  O100  1  0.09243623  0.94582736  0.20134866  1
  O  O101  1  0.59767101  0.98844218  0.19428725  1
  O  O102  1  0.41856926  0.33609821  0.65026200  1
  O  O103  1  0.93230955  0.32671413  0.63115757  1
  O  O104  1  0.23947992  0.14948574  0.63037646  1
  O  O105  1  0.73440558  0.14236149  0.62653175  1
  O  O106  1  0.32559224  0.51489872  0.63638183  1
  O  O107  1  0.83331345  0.53690231  0.62864039  1
  O  O108  1  0.43104631  0.53748431  0.13101999  1
  O  O109  1  0.92134887  0.50633716  0.13953540  1
  O  O110  1  0.33212694  0.12879821  0.12918883  1
  O  O111  1  0.83133880  0.14870505  0.13796882  1
  O  O112  1  0.23208276  0.32843019  0.12822015  1
  O  O113  1  0.74770613  0.33996604  0.13136514  1
  O  O114  1  0.24366375  0.33851731  0.02389569  1
  O  O115  1  0.74442398  0.33091090  0.02577587  1
  O  O116  1  0.42567478  0.51469748  0.02740450  1
  O  O117  1  0.92154152  0.51310979  0.03381033  1
  O  O118  1  0.33322243  0.14709022  0.02590226  1
  O  O119  1  0.83362512  0.15015640  0.03315617  1
  O  O120  1  0.24039915  0.15161222  0.52498946  1
  O  O121  1  0.74648991  0.15541806  0.52224528  1
  O  O122  1  0.32620234  0.51657149  0.53141744  1
  O  O123  1  0.83454542  0.51981767  0.52518841  1
  O  O124  1  0.42394510  0.32388493  0.53125656  1
  O  O125  1  0.92667607  0.33591887  0.52750063  1
  O  O126  1  0.29133809  0.70262222  0.96927815  1
  O  O127  1  0.79407062  0.70826765  0.96703090  1
  O  O128  1  0.06957361  0.41023061  0.96858088  1
  O  O129  1  0.57711774  0.42555503  0.96722089  1
  O  O130  1  0.15611637  0.88923386  0.96951659  1
  O  O131  1  0.65293804  0.87446900  0.96609797  1
  O  O132  1  0.29276529  0.87497377  0.46246928  1
  O  O133  1  0.79126246  0.87803813  0.46786580  1
  O  O134  1  0.14947772  0.43035771  0.46279953  1
  O  O135  1  0.65646718  0.42197801  0.46748134  1
  O  O136  1  0.07876900  0.72546414  0.46614149  1
  O  O137  1  0.56970868  0.72604290  0.46627258  1
  O  O138  1  0.05651392  0.63347789  0.35805236  1
  O  O139  1  0.53880992  0.62398124  0.35949220  1
  O  O140  1  0.25624703  0.87102864  0.36393858  1
  O  O141  1  0.77304865  0.91872616  0.36865987  1
  O  O142  1  0.17301627  0.47608102  0.36099947  1
  O  O143  1  0.68833606  0.45339442  0.36649330  1
  O  O144  1  0.04078151  0.45759880  0.86249780  1
  O  O145  1  0.55852803  0.48403414  0.86040532  1
  O  O146  1  0.18833201  0.91951548  0.86878706  1
  O  O147  1  0.67930540  0.88319815  0.86438086  1
  O  O148  1  0.27079678  0.62281818  0.87041351  1
  O  O149  1  0.75792646  0.63147624  0.86813654  1
  O  O150  1  0.00046270  0.83882101  0.40769200  1
  O  O151  1  0.49678947  0.84622067  0.40448192  1
  O  O152  1  0.40733958  0.00718359  0.39522866  1
  O  O153  1  0.91562015  0.01521198  0.40616904  1
  O  O154  1  0.08105361  0.18863162  0.40366552  1
  O  O155  1  0.59019761  0.17509242  0.40913192  1
  O  O156  1  0.99732040  0.14978700  0.90313217  1
  O  O157  1  0.49889393  0.15884024  0.90548795  1
  O  O158  1  0.09157977  0.00705497  0.91136691  1
  O  O159  1  0.58651101  0.98513093  0.90684581  1
  O  O160  1  0.41468516  0.81023964  0.90742417  1
  O  O161  1  0.90860058  0.80083932  0.89992926  1
  O  O162  1  0.47806104  0.16087695  0.58756881  1
  O  O163  1  0.97971511  0.17244904  0.57103368  1
  O  O164  1  0.10827796  0.03459913  0.57804465  1
  O  O165  1  0.60923118  0.03245039  0.56817276  1
  O  O166  1  0.41041544  0.77470290  0.58303064  1
  O  O167  1  0.91423350  0.78941687  0.57158733  1
  O  O168  1  0.47912902  0.78526319  0.07118976  1
  O  O169  1  0.97233571  0.76878025  0.08574503  1
  O  O170  1  0.41255739  0.03508333  0.07138819  1
  O  O171  1  0.91086041  0.04504104  0.08412164  1
  O  O172  1  0.10655367  0.17922693  0.07035653  1
  O  O173  1  0.61501252  0.18296060  0.07980874  1
  O  O174  1  0.35731767  0.17371199  0.75361942  1
  O  O175  1  0.84075336  0.13906396  0.76063555  1
  O  O176  1  0.25369676  0.30648485  0.73918928  1
  O  O177  1  0.74170247  0.33212030  0.76054673  1
  O  O178  1  0.42992433  0.53575990  0.75648460  1
  O  O179  1  0.92574588  0.54699763  0.76281697  1
  O  O180  1  0.34024994  0.54359788  0.25998087  1
  O  O181  1  0.85674161  0.53009664  0.24310213  1
  O  O182  1  0.42594034  0.30794446  0.26190698  1
  O  O183  1  0.92613622  0.33208173  0.24802164  1
  O  O184  1  0.23907025  0.15130684  0.25907881  1
  O  O185  1  0.74945453  0.19347876  0.24374523  1
  O  O186  1  0.33266638  0.50560692  0.92826981  1
  O  O187  1  0.81948130  0.49618708  0.92085471  1
  O  O188  1  0.41845792  0.33690519  0.92300856  1
  O  O189  1  0.90876645  0.31887055  0.93111862  1
  O  O190  1  0.24305190  0.17150989  0.92657981  1
  O  O191  1  0.73888430  0.14649179  0.91878536  1
  O  O192  1  0.31819880  0.13317485  0.41464795  1
  O  O193  1  0.83513115  0.15910791  0.42757280  1
  O  O194  1  0.23382153  0.33080116  0.41174224  1
  O  O195  1  0.74235104  0.31065521  0.42385090  1
  O  O196  1  0.40666317  0.50264275  0.42886448  1
  O  O197  1  0.91853604  0.49810167  0.42319855  1
  O  O198  1  0.18476797  0.48818578  0.07702123  1
  O  O199  1  0.69513738  0.49217112  0.08106464  1
  O  O200  1  0.05220391  0.61979653  0.08659761  1
  O  O201  1  0.55992856  0.63857827  0.07765310  1
  O  O202  1  0.25690117  0.87590611  0.07466736  1
  O  O203  1  0.75489431  0.88841553  0.08563109  1
  O  O204  1  0.19063687  0.89121377  0.58095672  1
  O  O205  1  0.69256943  0.89024413  0.57433638  1
  O  O206  1  0.25444427  0.63180369  0.58546168  1
  O  O207  1  0.75878627  0.64073119  0.57444748  1
  O  O208  1  0.06090180  0.48098496  0.57750886  1
  O  O209  1  0.56251989  0.50275111  0.59399882  1
  O  O210  1  0.15316208  0.80934066  0.26555398  1
  O  O211  1  0.67140774  0.85112764  0.25142514  1
  O  O212  1  0.25731341  0.68527877  0.26998144  1
  O  O213  1  0.76495418  0.65360110  0.25531536  1
  O  O214  1  0.07936901  0.47471722  0.26105168  1
  O  O215  1  0.58037922  0.45111370  0.25440545  1
  O  O216  1  0.17498404  0.49116558  0.75073554  1
  O  O217  1  0.65295599  0.49954712  0.76490007  1
  O  O218  1  0.07985126  0.71165431  0.75523374  1
  O  O219  1  0.58389348  0.69868713  0.76472508  1
  O  O220  1  0.26615339  0.86848097  0.75949206  1
  O  O221  1  0.75854782  0.83168076  0.77223751  1
