# generated using pymatgen
data_CsMgMnP3HO10
_symmetry_space_group_name_H-M   'P 1'
_cell_length_a   6.90237336
_cell_length_b   6.94046829
_cell_length_c   6.71510043
_cell_angle_alpha   70.67242388
_cell_angle_beta   70.46741069
_cell_angle_gamma   84.56835442
_symmetry_Int_Tables_number   1
_chemical_formula_structural   CsMgMnP3HO10
_chemical_formula_sum   'Cs1 Mg1 Mn1 P3 H1 O10'
_cell_volume   286.04581659
_cell_formula_units_Z   1
loop_
 _symmetry_equiv_pos_site_id
 _symmetry_equiv_pos_as_xyz
  1  'x, y, z'
loop_
 _atom_site_type_symbol
 _atom_site_label
 _atom_site_symmetry_multiplicity
 _atom_site_fract_x
 _atom_site_fract_y
 _atom_site_fract_z
 _atom_site_occupancy
  Cs  Cs0  1  0.99439494  0.99689579  0.50476126  1
  Mg  Mg1  1  0.32378829  0.66998207  0.00512933  1
  Mn  Mn2  1  0.68813217  0.30920065  -0.00010251  1
  P  P3  1  0.59921173  0.40302318  0.49868526  1
  P  P4  1  0.20937947  0.42039869  0.85593214  1
  P  P5  1  0.57751276  0.78892330  0.14629243  1
  H  H6  1  0.07750464  0.94369195  0.99279528  1
  O  O7  1  0.71975041  0.35551566  0.65813644  1
  O  O8  1  0.64435441  0.28257119  0.33955130  1
  O  O9  1  0.18621435  0.65496110  0.79563018  1
  O  O10  1  0.34020901  0.80415184  0.21697386  1
  O  O11  1  0.69695175  0.98409728  0.07430008  1
  O  O12  1  0.01600587  0.29719429  0.92603938  1
  O  O13  1  0.63125814  0.67264501  0.97175451  1
  O  O14  1  0.35586174  0.37141861  0.63068767  1
  O  O15  1  0.63608499  0.64428882  0.36579187  1
  O  O16  1  0.32851734  0.36549358  0.02806052  1
