# generated using pymatgen
data_Na4MgZr3(PO4)6
_symmetry_space_group_name_H-M   'P 1'
_cell_length_a   8.97115832
_cell_length_b   8.99020789
_cell_length_c   22.97671204
_cell_angle_alpha   90.00783016
_cell_angle_beta   89.97283936
_cell_angle_gamma   119.96498105
_symmetry_Int_Tables_number   1
_chemical_formula_structural   Na4MgZr3(PO4)6
_chemical_formula_sum   'Na12 Mg3 Zr9 P18 O72'
_cell_volume   1605.42440170
_cell_formula_units_Z   3
loop_
 _symmetry_equiv_pos_site_id
 _symmetry_equiv_pos_as_xyz
  1  'x, y, z'
loop_
 _atom_site_type_symbol
 _atom_site_label
 _atom_site_symmetry_multiplicity
 _atom_site_fract_x
 _atom_site_fract_y
 _atom_site_fract_z
 _atom_site_occupancy
  Na  Na0  1  0.64260126  0.01240706  0.24477209  1
  Na  Na1  1  0.37012177  0.35705938  0.24473807  1
  Na  Na2  1  0.98663217  0.62870407  0.24433918  1
  Na  Na3  1  0.98768813  0.36163058  0.74226923  1
  Na  Na4  1  0.37297257  0.00903737  0.74240432  1
  Na  Na5  1  0.70666975  0.67567947  0.41441519  1
  Na  Na6  1  0.01437967  0.01495345  0.49346806  1
  Na  Na7  1  0.00014882  0.00030354  0.00174363  1
  Na  Na8  1  0.66568636  0.34708925  0.83099572  1
  Na  Na9  1  0.66553484  0.32071032  0.33210723  1
  Na  Na10  1  0.33328756  0.66659893  0.16098890  1
  Na  Na11  1  0.34746843  0.66537100  0.66101324  1
  Mg  Mg12  1  0.00678820  0.00779214  0.35240998  1
  Mg  Mg13  1  0.66546455  0.34058499  0.68224665  1
  Mg  Mg14  1  0.66660156  0.33308362  0.18066660  1
  Zr  Zr15  1  0.99869708  0.99760744  0.85423270  1
  Zr  Zr16  1  0.99565107  0.99546877  0.64325151  1
  Zr  Zr17  1  0.00037999  0.00012722  0.14593675  1
  Zr  Zr18  1  0.66692583  0.33230381  0.98271751  1
  Zr  Zr19  1  0.66607811  0.32732026  0.48326433  1
  Zr  Zr20  1  0.33278305  0.66632151  0.02087423  1
  Zr  Zr21  1  0.33008684  0.66606990  0.52013622  1
  Zr  Zr22  1  0.33005482  0.66655034  0.31705934  1
  Zr  Zr23  1  0.33827267  0.66582502  0.81524791  1
  P  P24  1  0.29283166  0.00338584  0.25158433  1
  P  P25  1  0.70898608  0.70611239  0.25312995  1
  P  P26  1  0.99613018  0.28883565  0.25170628  1
  P  P27  1  0.29309389  0.29043918  0.74933944  1
  P  P28  1  0.99590416  0.70422155  0.75008830  1
  P  P29  1  0.70748140  0.00217060  0.74951498  1
  P  P30  1  0.95867690  0.33492406  0.58755269  1
  P  P31  1  0.37686018  0.04097263  0.58746642  1
  P  P32  1  0.66400628  0.62110649  0.58359370  1
  P  P33  1  0.95761643  0.62398067  0.08662025  1
  P  P34  1  0.66546245  0.04122909  0.08663373  1
  P  P35  1  0.37589636  0.33427908  0.08656325  1
  P  P36  1  0.62687041  0.66522340  0.91806057  1
  P  P37  1  0.03965985  0.37397239  0.91602559  1
  P  P38  1  0.33528157  0.96041740  0.91624565  1
  P  P39  1  0.63157941  0.96210464  0.41594225  1
  P  P40  1  0.32954967  0.36792678  0.41679288  1
  P  P41  1  0.03613618  0.67031004  0.41665464  1
  O  O42  1  0.20797749  0.03014074  0.30427298  1
  O  O43  1  0.81357616  0.78545432  0.30817711  1
  O  O44  1  0.96809871  0.17697197  0.30437475  1
  O  O45  1  0.20138870  0.17757978  0.80372089  1
  O  O46  1  0.97929649  0.79616032  0.80472683  1
  O  O47  1  0.82009272  0.02248917  0.80353580  1
  O  O48  1  0.79371333  0.97565966  0.69561581  1
  O  O49  1  0.17379154  0.20438607  0.69642558  1
  O  O50  1  0.02974151  0.82269604  0.69691998  1
  O  O51  1  0.79647312  0.82600373  0.19960818  1
  O  O52  1  0.03207599  0.20875348  0.19673827  1
  O  O53  1  0.17759473  0.96878515  0.19652372  1
  O  O54  1  0.88175695  0.35670198  0.64353813  1
  O  O55  1  0.47640822  0.11665787  0.64339332  1
  O  O56  1  0.64014456  0.51306751  0.63651744  1
  O  O57  1  0.88228649  0.52576193  0.14272515  1
  O  O58  1  0.64285380  0.11715199  0.14265070  1
  O  O59  1  0.47449048  0.35721286  0.14262203  1
  O  O60  1  0.46800110  0.31396490  0.03238532  1
  O  O61  1  0.84573495  0.53198216  0.03241292  1
  O  O62  1  0.68659649  0.15354472  0.03240566  1
  O  O63  1  0.46780031  0.15404495  0.53323255  1
  O  O64  1  0.68726135  0.54157356  0.52622722  1
  O  O65  1  0.84591516  0.31425785  0.53339675  1
  O  O66  1  0.53757987  0.68742384  0.97141655  1
  O  O67  1  0.15426410  0.46669406  0.96860301  1
  O  O68  1  0.31390601  0.84634520  0.96886242  1
  O  O69  1  0.53166576  0.84330186  0.46771280  1
  O  O70  1  0.31566656  0.46867081  0.46905880  1
  O  O71  1  0.15042173  0.68479557  0.46880367  1
  O  O72  1  0.11993878  0.64458991  0.36018621  1
  O  O73  1  0.52069117  0.87773211  0.35959345  1
  O  O74  1  0.36045535  0.48332911  0.36092843  1
  O  O75  1  0.12442792  0.47923755  0.85962145  1
  O  O76  1  0.35549424  0.87530548  0.85992044  1
  O  O77  1  0.51707475  0.64441731  0.86300958  1
  O  O78  1  0.01316780  0.82628225  0.41259493  1
  O  O79  1  0.80477839  0.97093019  0.41148689  1
  O  O80  1  0.17313646  0.19245473  0.41193329  1
  O  O81  1  0.02227191  0.19438460  0.91098590  1
  O  O82  1  0.17252010  0.97772821  0.91147459  1
  O  O83  1  0.80592154  0.82752336  0.91192830  1
  O  O84  1  0.97787493  0.17198668  0.58873871  1
  O  O85  1  0.19464635  0.02217873  0.58925682  1
  O  O86  1  0.82743456  0.80354671  0.58788852  1
  O  O87  1  0.97664713  0.80599528  0.08855767  1
  O  O88  1  0.82849507  0.02164340  0.08860637  1
  O  O89  1  0.19358259  0.17117304  0.08847326  1
  O  O90  1  0.68916466  0.16264120  0.74591500  1
  O  O91  1  0.46901106  0.30517582  0.74453277  1
  O  O92  1  0.84332405  0.52332057  0.74543431  1
  O  O93  1  0.68289222  0.52470797  0.24425360  1
  O  O94  1  0.84144110  0.31704391  0.24366630  1
  O  O95  1  0.47583252  0.15776500  0.24381651  1
  O  O96  1  0.64485820  0.50430951  0.92250437  1
  O  O97  1  0.86071968  0.35658659  0.92184009  1
  O  O98  1  0.49621290  0.13937479  0.92190349  1
  O  O99  1  0.64597371  0.13986043  0.42200128  1
  O  O100  1  0.50188750  0.36509647  0.42211016  1
  O  O101  1  0.85579224  0.50535981  0.42194391  1
  O  O102  1  0.35288594  0.49360859  0.07756638  1
  O  O103  1  0.14029818  0.64682701  0.07759129  1
  O  O104  1  0.50548410  0.85950751  0.07755652  1
  O  O105  1  0.35420554  0.85972402  0.57761748  1
  O  O106  1  0.50604805  0.64745499  0.57621060  1
  O  O107  1  0.14039017  0.49399524  0.57815873  1
  O  O108  1  0.30862988  0.83541743  0.25586407  1
  O  O109  1  0.52463723  0.68975558  0.25592374  1
  O  O110  1  0.16385468  0.47275455  0.25638800  1
  O  O111  1  0.30237823  0.46818203  0.75596018  1
  O  O112  1  0.16592152  0.69325308  0.75597761  1
  O  O113  1  0.52395808  0.84136084  0.75532801  1
