# generated using pymatgen
data_BaTeS3
_symmetry_space_group_name_H-M   'P 1'
_cell_length_a   6.98612374
_cell_length_b   7.56500176
_cell_length_c   11.07567138
_cell_angle_alpha   90.00000000
_cell_angle_beta   90.00000000
_cell_angle_gamma   90.00000000
_symmetry_Int_Tables_number   1
_chemical_formula_structural   BaTeS3
_chemical_formula_sum   'Ba4 Te4 S12'
_cell_volume   585.34965761
_cell_formula_units_Z   4
loop_
 _symmetry_equiv_pos_site_id
 _symmetry_equiv_pos_as_xyz
  1  'x, y, z'
loop_
 _atom_site_type_symbol
 _atom_site_label
 _atom_site_symmetry_multiplicity
 _atom_site_fract_x
 _atom_site_fract_y
 _atom_site_fract_z
 _atom_site_occupancy
  Ba  Ba0  1  0.25000000  0.75628159  0.91382580  1
  Ba  Ba1  1  0.75000000  0.24371841  0.08617420  1
  Ba  Ba2  1  0.25000000  0.25628159  0.58617420  1
  Ba  Ba3  1  0.75000000  0.74371841  0.41382580  1
  Te  Te4  1  0.25000000  0.02037658  0.25500903  1
  Te  Te5  1  0.75000000  0.97962342  0.74499097  1
  Te  Te6  1  0.25000000  0.52037658  0.24499097  1
  Te  Te7  1  0.75000000  0.47962342  0.75500903  1
  S  S8  1  0.48811153  0.12200834  0.84075303  1
  S  S9  1  0.98811153  0.87799166  0.15924697  1
  S  S10  1  0.01188847  0.62200834  0.65924697  1
  S  S11  1  0.51188847  0.37799166  0.34075303  1
  S  S12  1  0.51188847  0.87799166  0.15924697  1
  S  S13  1  0.01188847  0.12200834  0.84075303  1
  S  S14  1  0.98811153  0.37799166  0.34075303  1
  S  S15  1  0.48811153  0.62200834  0.65924697  1
  S  S16  1  0.75000000  0.62729218  0.94322516  1
  S  S17  1  0.25000000  0.37270782  0.05677484  1
  S  S18  1  0.75000000  0.12729218  0.55677484  1
  S  S19  1  0.25000000  0.87270782  0.44322516  1
