# generated using pymatgen
data_Na10Zn4In4Si3(S3O16)3
_symmetry_space_group_name_H-M   'P 1'
_cell_length_a   18.04481938
_cell_length_b   9.02752733
_cell_length_c   22.85440321
_cell_angle_alpha   89.81936225
_cell_angle_beta   88.67903762
_cell_angle_gamma   120.16101734
_symmetry_Int_Tables_number   1
_chemical_formula_structural   Na10Zn4In4Si3(S3O16)3
_chemical_formula_sum   'Na30 Zn12 In12 Si9 S27 O144'
_cell_volume   3217.63207705
_cell_formula_units_Z   3
loop_
 _symmetry_equiv_pos_site_id
 _symmetry_equiv_pos_as_xyz
  1  'x, y, z'
loop_
 _atom_site_type_symbol
 _atom_site_label
 _atom_site_symmetry_multiplicity
 _atom_site_fract_x
 _atom_site_fract_y
 _atom_site_fract_z
 _atom_site_occupancy
  Na  Na0  1  0.19087282  0.37378762  0.24539435  1
  Na  Na1  1  0.69019231  0.37560336  0.24559900  1
  Na  Na2  1  0.99133950  0.63469383  0.25250408  1
  Na  Na3  1  0.49307968  0.63063380  0.25732759  1
  Na  Na4  1  0.32195284  0.64871396  0.74565178  1
  Na  Na5  1  0.81921800  0.64281120  0.74526532  1
  Na  Na6  1  0.99259077  0.35106277  0.75038635  1
  Na  Na7  1  0.19220050  0.00793496  0.74250489  1
  Na  Na8  1  0.69111104  0.00835794  0.74361152  1
  Na  Na9  1  0.52349469  0.70699789  0.57617252  1
  Na  Na10  1  0.32671362  0.96795537  0.58725359  1
  Na  Na11  1  0.82607063  0.96323674  0.58604430  1
  Na  Na12  1  0.15405354  0.98049568  0.07981153  1
  Na  Na13  1  0.65366843  0.97985663  0.07970203  1
  Na  Na14  1  0.32845117  0.68925254  0.08958720  1
  Na  Na15  1  0.82801298  0.68922996  0.08977560  1
  Na  Na16  1  0.65984906  0.01937483  0.42276125  1
  Na  Na17  1  0.35681409  0.67184833  0.41136447  1
  Na  Na18  1  0.01245074  0.00261003  0.49858414  1
  Na  Na19  1  0.50980229  0.01071645  0.49644607  1
  Na  Na20  1  0.00669281  0.02065945  0.99727774  1
  Na  Na21  1  0.50696502  0.02163725  0.99675321  1
  Na  Na22  1  0.34144025  0.32250049  0.83051287  1
  Na  Na23  1  0.83258182  0.32020907  0.83309819  1
  Na  Na24  1  0.33909479  0.33530440  0.33314635  1
  Na  Na25  1  0.83759595  0.34498816  0.33057932  1
  Na  Na26  1  0.17297927  0.65832171  0.16465319  1
  Na  Na27  1  0.67237975  0.65753288  0.16558897  1
  Na  Na28  1  0.16846444  0.68051618  0.65856301  1
  Na  Na29  1  0.66692079  0.66673734  0.66125353  1
  Zn  Zn30  1  0.98980318  0.98015058  0.34848428  1
  Zn  Zn31  1  0.49331180  0.97297779  0.34998679  1
  Zn  Zn32  1  0.99171967  0.00324677  0.84965485  1
  Zn  Zn33  1  0.49279468  0.00739725  0.84872534  1
  Zn  Zn34  1  0.33230861  0.29208935  0.67976425  1
  Zn  Zn35  1  0.82981137  0.30399995  0.67765893  1
  Zn  Zn36  1  0.32899447  0.35377524  0.18209273  1
  Zn  Zn37  1  0.82796702  0.35399667  0.18200442  1
  Zn  Zn38  1  0.16204682  0.63573340  0.01701725  1
  Zn  Zn39  1  0.66134148  0.63458442  0.01676768  1
  Zn  Zn40  1  0.15940749  0.68315299  0.51888917  1
  Zn  Zn41  1  0.66254837  0.68222607  0.51406299  1
  In  In42  1  0.00232633  0.99872687  0.64826219  1
  In  In43  1  0.50281811  0.00755456  0.65172171  1
  In  In44  1  0.99740469  0.00910268  0.15240124  1
  In  In45  1  0.49746107  0.00893495  0.15184919  1
  In  In46  1  0.32981161  0.32990705  0.98354392  1
  In  In47  1  0.82936468  0.32946163  0.98351697  1
  In  In48  1  0.33082574  0.32834044  0.48221735  1
  In  In49  1  0.83194790  0.33719553  0.48575504  1
  In  In50  1  0.17254679  0.67351506  0.31809647  1
  In  In51  1  0.67014443  0.66972284  0.32020512  1
  In  In52  1  0.17309331  0.67697233  0.82168340  1
  In  In53  1  0.66723506  0.66920999  0.81997799  1
  Si  Si54  1  0.35157216  0.70248615  0.24990305  1
  Si  Si55  1  0.85227814  0.70472267  0.25035750  1
  Si  Si56  1  0.35459807  0.00565841  0.75141906  1
  Si  Si57  1  0.85412638  0.00265643  0.75052354  1
  Si  Si58  1  0.18349037  0.03430428  0.58395145  1
  Si  Si59  1  0.68299755  0.03223977  0.58425713  1
  Si  Si60  1  0.18301645  0.33241459  0.08493159  1
  Si  Si61  1  0.68271595  0.33280819  0.08471568  1
  Si  Si62  1  0.51757015  0.66552464  0.41734925  1
  S  S63  1  0.14752368  0.00065930  0.25130229  1
  S  S64  1  0.64939288  0.00193492  0.25009993  1
  S  S65  1  0.99872049  0.29718359  0.25286575  1
  S  S66  1  0.49861374  0.29441541  0.25228569  1
  S  S67  1  0.14668760  0.29426297  0.75288244  1
  S  S68  1  0.64780697  0.29629713  0.75276150  1
  S  S69  1  0.99940908  0.70429940  0.75279761  1
  S  S70  1  0.49930475  0.70289384  0.75198914  1
  S  S71  1  0.48233618  0.33721857  0.58346336  1
  S  S72  1  0.98264441  0.33920020  0.58373255  1
  S  S73  1  0.33160044  0.62571783  0.58516244  1
  S  S74  1  0.83182946  0.62620638  0.58499889  1
  S  S75  1  0.48281168  0.62691794  0.08314913  1
  S  S76  1  0.98273638  0.62662672  0.08301350  1
  S  S77  1  0.33316151  0.04279190  0.08331013  1
  S  S78  1  0.83336688  0.04330485  0.08325151  1
  S  S79  1  0.31799797  0.66878791  0.91794390  1
  S  S80  1  0.81710080  0.66894731  0.91707840  1
  S  S81  1  0.01824417  0.37075202  0.91722787  1
  S  S82  1  0.51802713  0.37047972  0.91815120  1
  S  S83  1  0.16443497  0.96337856  0.91850984  1
  S  S84  1  0.66479071  0.96177126  0.91789527  1
  S  S85  1  0.31431436  0.96117501  0.41793439  1
  S  S86  1  0.81905676  0.96815604  0.41845319  1
  S  S87  1  0.16199208  0.36841780  0.41785230  1
  S  S88  1  0.66744243  0.37080784  0.41770171  1
  S  S89  1  0.01917683  0.66779263  0.41686245  1
  O  O90  1  0.10602540  0.03128149  0.30193844  1
  O  O91  1  0.60899348  0.03120326  0.30234628  1
  O  O92  1  0.40864760  0.78553297  0.30656601  1
  O  O93  1  0.91719868  0.79214912  0.30273054  1
  O  O94  1  0.48914634  0.18952284  0.30379320  1
  O  O95  1  0.98882505  0.19217410  0.30440880  1
  O  O96  1  0.10725507  0.18149883  0.80430489  1
  O  O97  1  0.60751777  0.18364097  0.80403381  1
  O  O98  1  0.48808155  0.78851617  0.80307669  1
  O  O99  1  0.98742804  0.78530570  0.80464661  1
  O  O100  1  0.40999733  0.02259383  0.80636255  1
  O  O101  1  0.91662609  0.04019219  0.80400955  1
  O  O102  1  0.38969395  0.95837746  0.69055773  1
  O  O103  1  0.89158927  0.95794328  0.69052114  1
  O  O104  1  0.09466887  0.22291256  0.70016015  1
  O  O105  1  0.59949873  0.22651359  0.69909610  1
  O  O106  1  0.01981190  0.81257622  0.69950780  1
  O  O107  1  0.51901581  0.81017029  0.69692604  1
  O  O108  1  0.39061623  0.80968680  0.18801543  1
  O  O109  1  0.88946210  0.80950448  0.18733188  1
  O  O110  1  0.02069064  0.23181099  0.19885039  1
  O  O111  1  0.51829368  0.22658241  0.19783593  1
  O  O112  1  0.09718953  0.96900015  0.19672344  1
  O  O113  1  0.59731704  0.97352193  0.19683161  1
  O  O114  1  0.44358203  0.36961452  0.63585116  1
  O  O115  1  0.94544887  0.36580913  0.63839715  1
  O  O116  1  0.23780598  0.10645708  0.64358583  1
  O  O117  1  0.73908934  0.11188021  0.64203512  1
  O  O118  1  0.32378135  0.52677829  0.63851530  1
  O  O119  1  0.82406760  0.52855788  0.63905537  1
  O  O120  1  0.44484508  0.52389513  0.13693255  1
  O  O121  1  0.94493362  0.52401128  0.13699337  1
  O  O122  1  0.32262209  0.12546282  0.13528980  1
  O  O123  1  0.82305409  0.12622833  0.13525522  1
  O  O124  1  0.23966138  0.36773040  0.14287471  1
  O  O125  1  0.73947725  0.36878211  0.14259176  1
  O  O126  1  0.22310918  0.28479424  0.02821726  1
  O  O127  1  0.72279486  0.28480666  0.02800816  1
  O  O128  1  0.42889914  0.54676555  0.03153844  1
  O  O129  1  0.92892044  0.54588140  0.03149606  1
  O  O130  1  0.34966304  0.14577751  0.02901026  1
  O  O131  1  0.85010951  0.14652120  0.02894183  1
  O  O132  1  0.22779631  0.15295278  0.52621149  1
  O  O133  1  0.72321270  0.14268458  0.52337720  1
  O  O134  1  0.34876585  0.55265873  0.53149477  1
  O  O135  1  0.84856103  0.55179789  0.53210170  1
  O  O136  1  0.42989531  0.30704199  0.53139706  1
  O  O137  1  0.92760214  0.31120295  0.53259840  1
  O  O138  1  0.27362363  0.68881324  0.96953206  1
  O  O139  1  0.77382270  0.68871244  0.96932737  1
  O  O140  1  0.07090620  0.46059469  0.96676345  1
  O  O141  1  0.56947771  0.45667946  0.96882779  1
  O  O142  1  0.15493117  0.85757077  0.97051860  1
  O  O143  1  0.65564465  0.85779211  0.97041253  1
  O  O144  1  0.27296490  0.85042184  0.47048391  1
  O  O145  1  0.77893709  0.86440841  0.47219941  1
  O  O146  1  0.15272063  0.45745927  0.46833436  1
  O  O147  1  0.65909519  0.45853683  0.46877343  1
  O  O148  1  0.07110789  0.68198492  0.46666466  1
  O  O149  1  0.57499978  0.69884901  0.47402352  1
  O  O150  1  0.05620925  0.64056775  0.36057825  1
  O  O151  1  0.55861837  0.63863278  0.35595153  1
  O  O152  1  0.26217654  0.88447495  0.36516343  1
  O  O153  1  0.76430703  0.89144599  0.36671229  1
  O  O154  1  0.17825270  0.47289673  0.36161151  1
  O  O155  1  0.68223316  0.46886692  0.36180744  1
  O  O156  1  0.05627853  0.47268435  0.86065754  1
  O  O157  1  0.55627187  0.47474649  0.86303475  1
  O  O158  1  0.17697239  0.88710437  0.86299012  1
  O  O159  1  0.67790741  0.88529405  0.86296366  1
  O  O160  1  0.26647681  0.63812548  0.86369436  1
  O  O161  1  0.76622231  0.64144101  0.86318564  1
  O  O162  1  0.01198822  0.82198238  0.41239747  1
  O  O163  1  0.51081150  0.84221029  0.41394794  1
  O  O164  1  0.39952288  0.97584006  0.41143977  1
  O  O165  1  0.90485874  0.98946985  0.41096040  1
  O  O166  1  0.08674397  0.19749655  0.41139160  1
  O  O167  1  0.59112733  0.19755016  0.41298257  1
  O  O168  1  0.01147790  0.20222204  0.91297021  1
  O  O169  1  0.51148622  0.20166697  0.91333795  1
  O  O170  1  0.08779117  0.98022659  0.91271907  1
  O  O171  1  0.58847580  0.97968497  0.91212821  1
  O  O172  1  0.40329341  0.82222706  0.91198994  1
  O  O173  1  0.90306980  0.82290720  0.91135554  1
  O  O174  1  0.48548548  0.17461019  0.58931218  1
  O  O175  1  0.98416561  0.17504616  0.58777042  1
  O  O176  1  0.08780616  0.01443526  0.58687628  1
  O  O177  1  0.58469087  0.00225907  0.58866377  1
  O  O178  1  0.41050450  0.80294367  0.58685607  1
  O  O179  1  0.90791302  0.80530460  0.58614347  1
  O  O180  1  0.48855574  0.79850273  0.08687426  1
  O  O181  1  0.98855935  0.79811544  0.08666639  1
  O  O182  1  0.40687152  0.01084246  0.08565921  1
  O  O183  1  0.90730824  0.01168817  0.08565326  1
  O  O184  1  0.08916077  0.15171307  0.08945331  1
  O  O185  1  0.58914600  0.15188113  0.08907453  1
  O  O186  1  0.33838018  0.16786943  0.74855556  1
  O  O187  1  0.84391732  0.17431860  0.74624685  1
  O  O188  1  0.23501096  0.32660093  0.74524956  1
  O  O189  1  0.73643260  0.32307343  0.74634605  1
  O  O190  1  0.42036678  0.53693697  0.74501714  1
  O  O191  1  0.92098364  0.53482582  0.74585170  1
  O  O192  1  0.34438678  0.51215203  0.24728674  1
  O  O193  1  0.84413969  0.51293775  0.24727773  1
  O  O194  1  0.42234984  0.31247508  0.24517062  1
  O  O195  1  0.92230273  0.31388315  0.24524854  1
  O  O196  1  0.23446270  0.14856952  0.24414829  1
  O  O197  1  0.73577871  0.15368955  0.24336634  1
  O  O198  1  0.32592093  0.51205644  0.92183002  1
  O  O199  1  0.82577380  0.51245983  0.92084171  1
  O  O200  1  0.43110612  0.35346323  0.92304357  1
  O  O201  1  0.93159634  0.35465784  0.92209572  1
  O  O202  1  0.24500286  0.13447314  0.91978814  1
  O  O203  1  0.74564018  0.13416524  0.91905706  1
  O  O204  1  0.32311835  0.13227709  0.42118978  1
  O  O205  1  0.82410460  0.13986410  0.42203425  1
  O  O206  1  0.24344882  0.36146322  0.42005903  1
  O  O207  1  0.74537160  0.34783786  0.41996428  1
  O  O208  1  0.41818961  0.50017356  0.42134612  1
  O  O209  1  0.93162826  0.50855158  0.42214581  1
  O  O210  1  0.18099064  0.51127325  0.07793574  1
  O  O211  1  0.68105044  0.51194692  0.07781519  1
  O  O212  1  0.07134068  0.65795157  0.07523216  1
  O  O213  1  0.57133610  0.65855439  0.07529549  1
  O  O214  1  0.25282917  0.87179354  0.07803276  1
  O  O215  1  0.75317370  0.87255260  0.07793579  1
  O  O216  1  0.18142123  0.84973064  0.57854664  1
  O  O217  1  0.67662257  0.84299946  0.58067638  1
  O  O218  1  0.25581101  0.64517803  0.57923727  1
  O  O219  1  0.75425134  0.64083932  0.57910771  1
  O  O220  1  0.06929279  0.48660019  0.57577490  1
  O  O221  1  0.56913789  0.48679520  0.57716734  1
  O  O222  1  0.14950319  0.83618930  0.25792644  1
  O  O223  1  0.65358314  0.84142813  0.25510471  1
  O  O224  1  0.25250083  0.66980868  0.25291129  1
  O  O225  1  0.75346212  0.67241205  0.25566343  1
  O  O226  1  0.07568059  0.47527439  0.25692304  1
  O  O227  1  0.57682315  0.47076666  0.25454859  1
  O  O228  1  0.15143401  0.46593219  0.75927845  1
  O  O229  1  0.65774211  0.47113224  0.75871465  1
  O  O230  1  0.07516374  0.67684662  0.75771354  1
  O  O231  1  0.57749101  0.68561991  0.75680997  1
  O  O232  1  0.25590924  0.82545324  0.75458175  1
  O  O233  1  0.75676262  0.82750948  0.75579287  1
