# generated using pymatgen
data_Na2YNb3Si2(PO6)4
_symmetry_space_group_name_H-M   'P 1'
_cell_length_a   8.92896845
_cell_length_b   8.93350881
_cell_length_c   23.13388798
_cell_angle_alpha   90.05853625
_cell_angle_beta   90.03997042
_cell_angle_gamma   119.98830705
_symmetry_Int_Tables_number   1
_chemical_formula_structural   Na2YNb3Si2(PO6)4
_chemical_formula_sum   'Na6 Y3 Nb9 Si6 P12 O72'
_cell_volume   1598.28096958
_cell_formula_units_Z   3
loop_
 _symmetry_equiv_pos_site_id
 _symmetry_equiv_pos_as_xyz
  1  'x, y, z'
loop_
 _atom_site_type_symbol
 _atom_site_label
 _atom_site_symmetry_multiplicity
 _atom_site_fract_x
 _atom_site_fract_y
 _atom_site_fract_z
 _atom_site_occupancy
  Na  Na0  1  0.99613362  0.99852469  0.49645422  1
  Na  Na1  1  0.99847941  0.99830010  0.00183212  1
  Na  Na2  1  0.66837332  0.33381582  0.83315921  1
  Na  Na3  1  0.66637626  0.33499965  0.32767995  1
  Na  Na4  1  0.33352683  0.66234215  0.16444727  1
  Na  Na5  1  0.32833855  0.66324992  0.66785976  1
  Y  Y6  1  0.99887131  0.00043496  0.35738951  1
  Y  Y7  1  0.66988495  0.33504523  0.68802896  1
  Y  Y8  1  0.66514968  0.33483648  0.18263557  1
  Nb  Nb9  1  0.00045342  0.00012936  0.85853975  1
  Nb  Nb10  1  0.99922965  0.00218207  0.64507572  1
  Nb  Nb11  1  0.00302744  0.00344031  0.14632810  1
  Nb  Nb12  1  0.66133073  0.33175744  0.97826897  1
  Nb  Nb13  1  0.67007950  0.32927147  0.47883141  1
  Nb  Nb14  1  0.33303934  0.66437411  0.01773628  1
  Nb  Nb15  1  0.33597379  0.66744074  0.52064699  1
  Nb  Nb16  1  0.33770658  0.67129292  0.31112078  1
  Nb  Nb17  1  0.33234974  0.66609215  0.81417210  1
  Si  Si18  1  0.96060703  0.33448838  0.58355708  1
  Si  Si19  1  0.37069350  0.33418387  0.08259676  1
  Si  Si20  1  0.61897841  0.66398162  0.91603369  1
  Si  Si21  1  0.04308916  0.38099547  0.91599509  1
  Si  Si22  1  0.33638399  0.95446361  0.91639240  1
  Si  Si23  1  0.61789661  0.95661300  0.41791168  1
  P  P24  1  0.28844857  0.99428746  0.25088363  1
  P  P25  1  0.70743398  0.71128042  0.25061819  1
  P  P26  1  0.00583046  0.29486901  0.25092601  1
  P  P27  1  0.27889633  0.28685810  0.75195845  1
  P  P28  1  0.00780431  0.72122190  0.75176215  1
  P  P29  1  0.71209916  0.99110699  0.75197105  1
  P  P30  1  0.37306955  0.04117003  0.58220023  1
  P  P31  1  0.66817808  0.62578085  0.58236594  1
  P  P32  1  0.96189205  0.62936618  0.08149133  1
  P  P33  1  0.66692629  0.03768526  0.08132863  1
  P  P34  1  0.34398148  0.38875633  0.41797366  1
  P  P35  1  0.04654660  0.65821515  0.41801311  1
  O  O36  1  0.20860340  0.01589846  0.30509260  1
  O  O37  1  0.80765816  0.79352798  0.30508647  1
  O  O38  1  0.98439238  0.19131231  0.30466397  1
  O  O39  1  0.18204036  0.17703348  0.80510487  1
  O  O40  1  0.99560393  0.81866056  0.80526953  1
  O  O41  1  0.82294866  0.00579705  0.80515914  1
  O  O42  1  0.80520842  0.97512773  0.69596717  1
  O  O43  1  0.16992872  0.19381913  0.69585052  1
  O  O44  1  0.02455720  0.82875345  0.69599347  1
  O  O45  1  0.79872583  0.82647329  0.19580073  1
  O  O46  1  0.02583817  0.19741783  0.19569340  1
  O  O47  1  0.17124160  0.97291264  0.19593028  1
  O  O48  1  0.89158343  0.37577952  0.64066065  1
  O  O49  1  0.47872071  0.10866699  0.63665741  1
  O  O50  1  0.62702647  0.52067905  0.63700697  1
  O  O51  1  0.89858250  0.52530681  0.13628955  1
  O  O52  1  0.63126019  0.10465910  0.13625479  1
  O  O53  1  0.47813098  0.37615663  0.14024047  1
  O  O54  1  0.47059297  0.30472800  0.02660613  1
  O  O55  1  0.84186182  0.53599968  0.02874727  1
  O  O56  1  0.69704540  0.15804603  0.02848377  1
  O  O57  1  0.46259538  0.16070591  0.52900112  1
  O  O58  1  0.69517896  0.53573479  0.52924440  1
  O  O59  1  0.83079639  0.30340223  0.52702259  1
  O  O60  1  0.53035880  0.69771072  0.97175531  1
  O  O61  1  0.16730209  0.47043030  0.97138841  1
  O  O62  1  0.30211542  0.83386406  0.97207037  1
  O  O63  1  0.50989778  0.83959012  0.47308482  1
  O  O64  1  0.32654353  0.48272198  0.47166356  1
  O  O65  1  0.15442195  0.66901859  0.47164608  1
  O  O66  1  0.13083298  0.63364513  0.36237668  1
  O  O67  1  0.49718166  0.85896288  0.35963219  1
  O  O68  1  0.36176133  0.49708194  0.36260657  1
  O  O69  1  0.13737283  0.50192410  0.85854545  1
  O  O70  1  0.36419011  0.86186734  0.85866688  1
  O  O71  1  0.49781844  0.63478544  0.85853231  1
  O  O72  1  0.03003365  0.81819860  0.41790237  1
  O  O73  1  0.80543938  0.97990562  0.42045468  1
  O  O74  1  0.18691209  0.21008273  0.41752479  1
  O  O75  1  0.02381506  0.19004066  0.90668575  1
  O  O76  1  0.16771245  0.97858846  0.90677907  1
  O  O77  1  0.81070438  0.83422266  0.90699069  1
  O  O78  1  0.97684714  0.15739954  0.59174701  1
  O  O79  1  0.18976375  0.02176571  0.58978194  1
  O  O80  1  0.83388658  0.80809211  0.59038416  1
  O  O81  1  0.97493150  0.81042640  0.08933741  1
  O  O82  1  0.83164229  0.01856987  0.08905130  1
  O  O83  1  0.17694281  0.15664925  0.09105242  1
  O  O84  1  0.69330182  0.15071284  0.75006077  1
  O  O85  1  0.45648219  0.30423037  0.74991378  1
  O  O86  1  0.84626274  0.54377952  0.75102211  1
  O  O87  1  0.67685965  0.52931693  0.24585486  1
  O  O88  1  0.85477027  0.32488823  0.24429795  1
  O  O89  1  0.47138881  0.14198456  0.24427154  1
  O  O90  1  0.64161455  0.49545975  0.92534017  1
  O  O91  1  0.85384266  0.35985315  0.92561454  1
  O  O92  1  0.50755506  0.14462348  0.92485143  1
  O  O93  1  0.62466939  0.14554330  0.42506585  1
  O  O94  1  0.51245949  0.37967673  0.42513330  1
  O  O95  1  0.86349228  0.49290739  0.42500490  1
  O  O96  1  0.33875621  0.49701190  0.07039894  1
  O  O97  1  0.14676947  0.66094356  0.07036906  1
  O  O98  1  0.50967117  0.85512559  0.07051691  1
  O  O99  1  0.34250036  0.85606410  0.57119767  1
  O  O100  1  0.51505728  0.65933406  0.57147386  1
  O  O101  1  0.15537602  0.49387804  0.57047706  1
  O  O102  1  0.29296600  0.81875166  0.25552374  1
  O  O103  1  0.52381457  0.70027080  0.25614800  1
  O  O104  1  0.17881612  0.47393084  0.25557131  1
  O  O105  1  0.28975459  0.46609408  0.75522112  1
  O  O106  1  0.17531959  0.70797520  0.75577189  1
  O  O107  1  0.53286998  0.82264788  0.75522599  1
