# generated using pymatgen
data_Na3Ti2SiGe2P5O24
_symmetry_space_group_name_H-M   'P 1'
_cell_length_a   8.56087117
_cell_length_b   8.54084895
_cell_length_c   22.04679184
_cell_angle_alpha   90.04546879
_cell_angle_beta   89.90403081
_cell_angle_gamma   119.91687880
_symmetry_Int_Tables_number   1
_chemical_formula_structural   Na3Ti2SiGe2P5O24
_chemical_formula_sum   'Na9 Ti6 Si3 Ge6 P15 O72'
_cell_volume   1397.19677916
_cell_formula_units_Z   3
loop_
 _symmetry_equiv_pos_site_id
 _symmetry_equiv_pos_as_xyz
  1  'x, y, z'
loop_
 _atom_site_type_symbol
 _atom_site_label
 _atom_site_symmetry_multiplicity
 _atom_site_fract_x
 _atom_site_fract_y
 _atom_site_fract_z
 _atom_site_occupancy
  Na  Na0  1  0.36679135  -0.00018386  0.74969384  1
  Na  Na1  1  0.66519061  0.96719764  0.58408062  1
  Na  Na2  1  0.66754368  0.69952892  0.08270832  1
  Na  Na3  1  0.00685554  0.00071574  0.49955122  1
  Na  Na4  1  0.00509471  0.00419249  0.99905836  1
  Na  Na5  1  0.67256136  0.33806348  0.83393216  1
  Na  Na6  1  0.66668432  0.33334881  0.33337158  1
  Na  Na7  1  0.32698028  0.66592017  0.16750028  1
  Na  Na8  1  0.32827225  0.65749438  0.66667330  1
  Ti  Ti9  1  0.00011082  0.00125187  0.35301268  1
  Ti  Ti10  1  0.00608747  0.00057058  0.14580223  1
  Ti  Ti11  1  0.32154500  0.66499687  0.01965114  1
  Ti  Ti12  1  0.32778030  0.66733243  0.52101676  1
  Ti  Ti13  1  0.33321321  0.66536336  0.31373613  1
  Ti  Ti14  1  0.34030736  0.66618068  0.81312264  1
  Si  Si15  1  0.72224172  0.00524830  0.74894902  1
  Si  Si16  1  0.37464434  0.05245146  0.58408022  1
  Si  Si17  1  0.95083656  0.61296459  0.08358379  1
  Ge  Ge18  1  0.99554440  0.00037119  0.85274023  1
  Ge  Ge19  1  0.00295581  0.99864982  0.64718760  1
  Ge  Ge20  1  0.66990808  0.33150315  0.68621521  1
  Ge  Ge21  1  0.67084188  0.33424296  0.18642171  1
  Ge  Ge22  1  0.66876910  0.33614329  0.98040271  1
  Ge  Ge23  1  0.66110506  0.33145732  0.48079680  1
  P  P24  1  0.29429825  0.00434165  0.24942318  1
  P  P25  1  0.71029072  0.70697640  0.24928480  1
  P  P26  1  0.99628092  0.28892017  0.24923992  1
  P  P27  1  0.28485787  0.28643129  0.74945759  1
  P  P28  1  0.99289546  0.70951867  0.74984199  1
  P  P29  1  0.95305851  0.33470371  0.58369366  1
  P  P30  1  0.66921838  0.61590232  0.58399317  1
  P  P31  1  0.66642625  0.05220407  0.08327617  1
  P  P32  1  0.38212900  0.33020968  0.08300223  1
  P  P33  1  0.62738683  0.66640052  0.91756098  1
  P  P34  1  0.03991776  0.37307750  0.91600249  1
  P  P35  1  0.33320287  0.96216271  0.91610386  1
  P  P36  1  0.62304670  0.95977300  0.41744516  1
  P  P37  1  0.33701420  0.37789206  0.41757218  1
  P  P38  1  0.03881889  0.66206460  0.41734248  1
  O  O39  1  0.20622888  0.03523893  0.30573388  1
  O  O40  1  0.82976005  0.79575006  0.30538365  1
  O  O41  1  0.96657277  0.17084828  0.30601426  1
  O  O42  1  0.20844869  0.16358933  0.80648170  1
  O  O43  1  0.96277358  0.79403148  0.80743826  1
  O  O44  1  0.84081078  0.03953066  0.80945830  1
  O  O45  1  0.80069678  0.96344911  0.68725039  1
  O  O46  1  0.16837295  0.20434087  0.69255397  1
  O  O47  1  0.04117691  0.83418908  0.69332595  1
  O  O48  1  0.79274664  0.82411893  0.19204505  1
  O  O49  1  0.03034727  0.20286360  0.19322350  1
  O  O50  1  0.17314964  0.96968520  0.19326861  1
  O  O51  1  0.87344809  0.37225563  0.64096867  1
  O  O52  1  0.50432814  0.12950620  0.64420159  1
  O  O53  1  0.63297684  0.49972649  0.64148532  1
  O  O54  1  0.86541914  0.49388589  0.14388517  1
  O  O55  1  0.62726607  0.12876940  0.14103546  1
  O  O56  1  0.50222980  0.37247526  0.14019416  1
  O  O57  1  0.46176388  0.29415650  0.02541608  1
  O  O58  1  0.82264996  0.53473622  0.02397915  1
  O  O59  1  0.70184979  0.16702122  0.02556575  1
  O  O60  1  0.46648992  0.17158897  0.52386193  1
  O  O61  1  0.70650908  0.53838755  0.52603147  1
  O  O62  1  0.83206031  0.29292514  0.52678552  1
  O  O63  1  0.54424215  0.69968466  0.97447264  1
  O  O64  1  0.15991075  0.46090927  0.97262250  1
  O  O65  1  0.30013256  0.84035652  0.97215835  1
  O  O66  1  0.54044472  0.84238140  0.47465736  1
  O  O67  1  0.30306580  0.46414698  0.47351917  1
  O  O68  1  0.16049056  0.69697997  0.47346538  1
  O  O69  1  0.12702415  0.63135891  0.36097626  1
  O  O70  1  0.50365019  0.87113732  0.36133445  1
  O  O71  1  0.36691873  0.49576287  0.36068320  1
  O  O72  1  0.12784882  0.49382965  0.86035104  1
  O  O73  1  0.36642226  0.87749366  0.85899499  1
  O  O74  1  0.50620664  0.63519340  0.86118822  1
  O  O75  1  0.02274818  0.83234166  0.40950999  1
  O  O76  1  0.80970776  0.97647075  0.40934085  1
  O  O77  1  0.16793271  0.19061889  0.40929568  1
  O  O78  1  0.02699483  0.18601663  0.91002829  1
  O  O79  1  0.16108773  0.97702044  0.90853601  1
  O  O80  1  0.81547472  0.83686520  0.90951400  1
  O  O81  1  0.96843695  0.16171098  0.59001929  1
  O  O82  1  0.17400190  0.02456600  0.59210301  1
  O  O83  1  0.83457443  0.81001323  0.58973026  1
  O  O84  1  0.97108165  0.81362225  0.09076087  1
  O  O85  1  0.83258628  0.02701004  0.09000515  1
  O  O86  1  0.19309764  0.16633245  0.09008629  1
  O  O87  1  0.68851701  0.17840877  0.74287936  1
  O  O88  1  0.47499280  0.30660925  0.74285666  1
  O  O89  1  0.82453630  0.52210752  0.74190205  1
  O  O90  1  0.69001741  0.51737468  0.24303927  1
  O  O91  1  0.82450721  0.30452571  0.24367393  1
  O  O92  1  0.48162892  0.17462755  0.24165881  1
  O  O93  1  0.64026158  0.49223193  0.92273118  1
  O  O94  1  0.85188986  0.35540511  0.92387426  1
  O  O95  1  0.50517125  0.14857270  0.92450192  1
  O  O96  1  0.64313768  0.14936942  0.42390967  1
  O  O97  1  0.50877096  0.36190480  0.42325154  1
  O  O98  1  0.85157804  0.49186766  0.42527880  1
  O  O99  1  0.36646026  0.50221511  0.07630444  1
  O  O100  1  0.15203432  0.64130639  0.07597077  1
  O  O101  1  0.50317291  0.85889329  0.07632962  1
  O  O102  1  0.36068326  0.85349071  0.57596382  1
  O  O103  1  0.50301178  0.64098990  0.57704951  1
  O  O104  1  0.14114328  0.49945453  0.57654710  1
  O  O105  1  0.31062182  0.83422503  0.25716425  1
  O  O106  1  0.52350104  0.69027382  0.25733142  1
  O  O107  1  0.16552400  0.47612432  0.25735829  1
  O  O108  1  0.30448686  0.47359148  0.75710800  1
  O  O109  1  0.16372599  0.69269396  0.75713591  1
  O  O110  1  0.51639359  0.82992522  0.75737596  1
