# generated using pymatgen
data_AuSeBr
_symmetry_space_group_name_H-M   'P 1'
_cell_length_a   6.92433513
_cell_length_b   7.51845485
_cell_length_c   12.45785328
_cell_angle_alpha   90.00000000
_cell_angle_beta   90.00000000
_cell_angle_gamma   90.00000000
_symmetry_Int_Tables_number   1
_chemical_formula_structural   AuSeBr
_chemical_formula_sum   'Au8 Se8 Br8'
_cell_volume   648.55959208
_cell_formula_units_Z   8
loop_
 _symmetry_equiv_pos_site_id
 _symmetry_equiv_pos_as_xyz
  1  'x, y, z'
loop_
 _atom_site_type_symbol
 _atom_site_label
 _atom_site_symmetry_multiplicity
 _atom_site_fract_x
 _atom_site_fract_y
 _atom_site_fract_z
 _atom_site_occupancy
  Au  Au0  1  0.33551189  0.74992127  0.75000000  1
  Au  Au1  1  0.83551189  0.75007873  0.75000000  1
  Au  Au2  1  0.16448811  0.24992127  0.25000000  1
  Au  Au3  1  0.66448811  0.25007873  0.25000000  1
  Au  Au4  1  0.58609214  0.36178584  0.75000000  1
  Au  Au5  1  0.08609214  0.13821416  0.75000000  1
  Au  Au6  1  0.91390786  0.86178584  0.25000000  1
  Au  Au7  1  0.41390786  0.63821416  0.25000000  1
  Se  Se8  1  0.58503797  0.61944069  0.87299955  1
  Se  Se9  1  0.08503797  0.88055931  0.62700045  1
  Se  Se10  1  0.41496203  0.38055931  0.37299955  1
  Se  Se11  1  0.58503797  0.61944069  0.62700045  1
  Se  Se12  1  0.08503797  0.88055931  0.87299955  1
  Se  Se13  1  0.91496203  0.11944069  0.37299955  1
  Se  Se14  1  0.41496203  0.38055931  0.12700045  1
  Se  Se15  1  0.91496203  0.11944069  0.12700045  1
  Br  Br16  1  0.91349001  0.63226432  0.39426733  1
  Br  Br17  1  0.08650999  0.36773568  0.89426733  1
  Br  Br18  1  0.58650999  0.13226432  0.60573267  1
  Br  Br19  1  0.58650999  0.13226432  0.89426733  1
  Br  Br20  1  0.41349001  0.86773568  0.39426733  1
  Br  Br21  1  0.91349001  0.63226432  0.10573267  1
  Br  Br22  1  0.41349001  0.86773568  0.10573267  1
  Br  Br23  1  0.08650999  0.36773568  0.60573267  1
