# generated using pymatgen
data_Na5NbIn3SiP5O24
_symmetry_space_group_name_H-M   'P 1'
_cell_length_a   9.06036141
_cell_length_b   9.06175500
_cell_length_c   22.71703665
_cell_angle_alpha   90.04012005
_cell_angle_beta   90.09756206
_cell_angle_gamma   120.01836389
_symmetry_Int_Tables_number   1
_chemical_formula_structural   Na5NbIn3SiP5O24
_chemical_formula_sum   'Na15 Nb3 In9 Si3 P15 O72'
_cell_volume   1614.94756565
_cell_formula_units_Z   3
loop_
 _symmetry_equiv_pos_site_id
 _symmetry_equiv_pos_as_xyz
  1  'x, y, z'
loop_
 _atom_site_type_symbol
 _atom_site_label
 _atom_site_symmetry_multiplicity
 _atom_site_fract_x
 _atom_site_fract_y
 _atom_site_fract_z
 _atom_site_occupancy
  Na  Na0  1  0.63626739  0.99939499  0.25150380  1
  Na  Na1  1  0.36303956  0.36276416  0.25021973  1
  Na  Na2  1  0.00075531  0.63669746  0.25066304  1
  Na  Na3  1  0.30622871  0.34165413  0.58791684  1
  Na  Na4  1  0.03503358  0.70242808  0.58535017  1
  Na  Na5  1  0.66456941  0.96062619  0.58508824  1
  Na  Na6  1  0.29591030  0.95836469  0.07912552  1
  Na  Na7  1  0.97545578  0.67684900  0.91419910  1
  Na  Na8  1  0.69712222  0.01941360  0.91152236  1
  Na  Na9  1  0.99646960  0.99712237  0.49566110  1
  Na  Na10  1  0.00911392  0.01987127  0.99672883  1
  Na  Na11  1  0.65335433  0.33123304  0.82364863  1
  Na  Na12  1  0.66674504  0.33115611  0.33558122  1
  Na  Na13  1  0.33276831  0.65323208  0.16102431  1
  Na  Na14  1  0.34123873  0.66571405  0.66891191  1
  Nb  Nb15  1  0.66567449  0.33269824  0.97898235  1
  Nb  Nb16  1  0.66811144  0.33903871  0.47990005  1
  Nb  Nb17  1  0.32925902  0.66559231  0.81461723  1
  In  In18  1  0.99930598  0.99922189  0.35244851  1
  In  In19  1  0.00792436  0.00861086  0.84832540  1
  In  In20  1  0.99857687  0.99900742  0.65301036  1
  In  In21  1  0.99382330  0.00042280  0.14500779  1
  In  In22  1  0.66605494  0.33467189  0.68661754  1
  In  In23  1  0.66923732  0.33633505  0.18069897  1
  In  In24  1  0.33072781  0.65769451  0.01670256  1
  In  In25  1  0.33603800  0.66670630  0.51242077  1
  In  In26  1  0.33452721  0.66739943  0.32291954  1
  Si  Si27  1  0.66585333  0.62938746  0.58431246  1
  Si  Si28  1  0.03970663  0.36973351  0.91821015  1
  Si  Si29  1  0.33108698  0.95877464  0.91965402  1
  P  P30  1  0.29573611  0.99902009  0.24829752  1
  P  P31  1  0.70326293  0.70453695  0.25007561  1
  P  P32  1  0.00148141  0.29636462  0.24993470  1
  P  P33  1  0.30086400  0.30368557  0.74907626  1
  P  P34  1  0.00202371  0.70023523  0.75138562  1
  P  P35  1  0.69588199  0.99694834  0.75093716  1
  P  P36  1  0.95799982  0.33461691  0.58254819  1
  P  P37  1  0.37717115  0.04284001  0.58244334  1
  P  P38  1  0.96335691  0.63036801  0.08381977  1
  P  P39  1  0.66695017  0.03875292  0.08267294  1
  P  P40  1  0.37406374  0.33501844  0.08446683  1
  P  P41  1  0.62268308  0.66342627  0.91662143  1
  P  P42  1  0.63737689  0.97287434  0.41740881  1
  P  P43  1  0.33345840  0.36238950  0.41733335  1
  P  P44  1  0.03086830  0.66545837  0.41768031  1
  O  O45  1  0.21187601  0.03364751  0.30124444  1
  O  O46  1  0.81828480  0.78243087  0.30431881  1
  O  O47  1  0.96402556  0.18144665  0.30407658  1
  O  O48  1  0.21214170  0.19189150  0.80223314  1
  O  O49  1  0.98051391  0.78492481  0.80662149  1
  O  O50  1  0.80061952  0.01609868  0.80655869  1
  O  O51  1  0.76972019  0.96695821  0.69325946  1
  O  O52  1  0.19898624  0.23474895  0.69039397  1
  O  O53  1  0.03413814  0.80389594  0.69375870  1
  O  O54  1  0.77945435  0.81745780  0.19495084  1
  O  O55  1  0.03789836  0.21988864  0.19467579  1
  O  O56  1  0.18964020  0.96711305  0.19093414  1
  O  O57  1  0.88110861  0.36623754  0.63749615  1
  O  O58  1  0.48985139  0.11317865  0.63705344  1
  O  O59  1  0.62145780  0.50195462  0.63869380  1
  O  O60  1  0.88730134  0.53636206  0.14220602  1
  O  O61  1  0.64020373  0.11424494  0.14019196  1
  O  O62  1  0.46469940  0.35167799  0.14378463  1
  O  O63  1  0.48421192  0.32269685  0.03228463  1
  O  O64  1  0.84834693  0.52540456  0.02981704  1
  O  O65  1  0.67830505  0.15668386  0.02872057  1
  O  O66  1  0.47517071  0.15947268  0.52826605  1
  O  O67  1  0.68854680  0.52322279  0.52668501  1
  O  O68  1  0.83981595  0.31103353  0.52814499  1
  O  O69  1  0.55535164  0.70766899  0.97158513  1
  O  O70  1  0.14793951  0.44420619  0.97670985  1
  O  O71  1  0.30299163  0.85478744  0.98003089  1
  O  O72  1  0.55339483  0.86665221  0.47294965  1
  O  O73  1  0.31104470  0.44539550  0.47305214  1
  O  O74  1  0.13565694  0.68640050  0.47351358  1
  O  O75  1  0.10454649  0.63335601  0.36076092  1
  O  O76  1  0.53065736  0.89882393  0.36025854  1
  O  O77  1  0.36754339  0.46914124  0.36058019  1
  O  O78  1  0.13776020  0.50215652  0.86221808  1
  O  O79  1  0.37073409  0.86072383  0.86467613  1
  O  O80  1  0.50417114  0.63216794  0.86285650  1
  O  O81  1  0.00447579  0.81927620  0.41392764  1
  O  O82  1  0.81642221  0.99572052  0.41371709  1
  O  O83  1  0.17961676  0.18227323  0.41332943  1
  O  O84  1  0.98457437  0.17228792  0.91025133  1
  O  O85  1  0.16211595  0.97183085  0.91062772  1
  O  O86  1  0.80378390  0.81167877  0.90729362  1
  O  O87  1  0.97064363  0.17009529  0.58451662  1
  O  O88  1  0.20455322  0.04004657  0.58498895  1
  O  O89  1  0.84432401  0.81314833  0.58506370  1
  O  O90  1  0.97565130  0.80756706  0.08138184  1
  O  O91  1  0.83273975  0.03304844  0.08105128  1
  O  O92  1  0.20473038  0.16217583  0.08146469  1
  O  O93  1  0.67088701  0.15240327  0.74760811  1
  O  O94  1  0.48041281  0.32773772  0.74738718  1
  O  O95  1  0.85032723  0.51841382  0.74834341  1
  O  O96  1  0.68184752  0.52258897  0.24516788  1
  O  O97  1  0.84090238  0.31785251  0.24453690  1
  O  O98  1  0.47869174  0.15895221  0.24500093  1
  O  O99  1  0.63795049  0.49878907  0.92513533  1
  O  O100  1  0.85271024  0.37053742  0.92485352  1
  O  O101  1  0.51150270  0.14785365  0.92507635  1
  O  O102  1  0.65165699  0.15194709  0.42487809  1
  O  O103  1  0.49909727  0.34744255  0.42497965  1
  O  O104  1  0.85109742  0.49827606  0.42456306  1
  O  O105  1  0.35600115  0.49306737  0.07946246  1
  O  O106  1  0.14453530  0.65543003  0.08103524  1
  O  O107  1  0.50314400  0.86418354  0.07745148  1
  O  O108  1  0.34604893  0.85980231  0.57447071  1
  O  O109  1  0.49955713  0.65395316  0.57735397  1
  O  O110  1  0.13633894  0.49448400  0.57529447  1
  O  O111  1  0.31410894  0.83738515  0.25561599  1
  O  O112  1  0.52184310  0.68353474  0.25654032  1
  O  O113  1  0.16187520  0.47764552  0.25662055  1
  O  O114  1  0.31602145  0.48377183  0.75856057  1
  O  O115  1  0.17049995  0.68851642  0.75936900  1
  O  O116  1  0.51607585  0.83044373  0.75851060  1
