# generated using pymatgen
data_NaYGeP2SO12
_symmetry_space_group_name_H-M   'P 1'
_cell_length_a   8.75943391
_cell_length_b   8.88413196
_cell_length_c   22.76004196
_cell_angle_alpha   88.02165887
_cell_angle_beta   90.00000000
_cell_angle_gamma   119.53676753
_symmetry_Int_Tables_number   1
_chemical_formula_structural   NaYGeP2SO12
_chemical_formula_sum   'Na6 Y6 Ge6 P12 S6 O72'
_cell_volume   1539.78803592
_cell_formula_units_Z   6
loop_
 _symmetry_equiv_pos_site_id
 _symmetry_equiv_pos_as_xyz
  1  'x, y, z'
loop_
 _atom_site_type_symbol
 _atom_site_label
 _atom_site_symmetry_multiplicity
 _atom_site_fract_x
 _atom_site_fract_y
 _atom_site_fract_z
 _atom_site_occupancy
  Na  Na0  1  0.98115867  0.98716165  0.49667157  1
  Na  Na1  1  0.00600298  0.98716165  0.99667157  1
  Na  Na2  1  0.64782567  0.32049465  0.83000457  1
  Na  Na3  1  0.67266998  0.32049465  0.33000457  1
  Na  Na4  1  0.31449167  0.65382865  0.16333857  1
  Na  Na5  1  0.33933598  0.65382865  0.66333857  1
  Y  Y6  1  0.99474385  0.00267872  0.64191723  1
  Y  Y7  1  0.00793487  0.00267872  0.14191723  1
  Y  Y8  1  0.66141085  0.33601172  0.97525023  1
  Y  Y9  1  0.67460187  0.33601172  0.47525023  1
  Y  Y10  1  0.32807685  0.66934572  0.30858423  1
  Y  Y11  1  0.34126787  0.66934572  0.80858423  1
  Ge  Ge12  1  0.00804877  0.01175990  0.35327271  1
  Ge  Ge13  1  0.00371113  0.01175990  0.85327271  1
  Ge  Ge14  1  0.67471577  0.34509290  0.68660571  1
  Ge  Ge15  1  0.67037813  0.34509290  0.18660571  1
  Ge  Ge16  1  0.34138177  0.67842690  0.01993971  1
  Ge  Ge17  1  0.33704413  0.67842690  0.51993971  1
  P  P18  1  0.30646049  0.03084446  0.25030876  1
  P  P19  1  0.97812866  0.27706300  0.24888147  1
  P  P20  1  0.29893434  0.27706300  0.74888147  1
  P  P21  1  0.72438397  0.03084446  0.75030876  1
  P  P22  1  0.97312749  0.36417746  0.58364176  1
  P  P23  1  0.64479566  0.61039600  0.58221447  1
  P  P24  1  0.96560134  0.61039600  0.08221447  1
  P  P25  1  0.39105097  0.36417746  0.08364176  1
  P  P26  1  0.63979349  0.69751146  0.91697576  1
  P  P27  1  0.31146166  0.94373000  0.91554847  1
  P  P28  1  0.63226734  0.94373000  0.41554847  1
  P  P29  1  0.05771697  0.69751146  0.41697576  1
  S  S30  1  0.71960929  0.69485894  0.25109812  1
  S  S31  1  0.97524964  0.69485894  0.75109812  1
  S  S32  1  0.38627629  0.02819194  0.58443112  1
  S  S33  1  0.64191664  0.02819194  0.08443112  1
  S  S34  1  0.05294229  0.36152594  0.91776512  1
  S  S35  1  0.30858264  0.36152594  0.41776512  1
  O  O36  1  0.21202284  0.05098946  0.30684111  1
  O  O37  1  0.82236109  0.77599114  0.30429622  1
  O  O38  1  0.95069207  0.16123858  0.30811207  1
  O  O39  1  0.21054651  0.16123858  0.80811207  1
  O  O40  1  0.95363005  0.77599114  0.80429622  1
  O  O41  1  0.83896662  0.05098946  0.80684111  1
  O  O42  1  0.79977569  0.99845109  0.69613081  1
  O  O43  1  0.19332917  0.19218429  0.69576897  1
  O  O44  1  0.00228330  0.79661441  0.69685913  1
  O  O45  1  0.79433110  0.79661441  0.19685913  1
  O  O46  1  -0.00114488  0.19218429  0.19576897  1
  O  O47  1  0.19867540  0.99845109  0.19613081  1
  O  O48  1  0.87868984  0.38432246  0.64017411  1
  O  O49  1  0.48902809  0.10932414  0.63762922  1
  O  O50  1  0.61735907  0.49457158  0.64144507  1
  O  O51  1  0.87721351  0.49457158  0.14144507  1
  O  O52  1  0.62029705  0.10932414  0.13762922  1
  O  O53  1  0.50563362  0.38432246  0.14017411  1
  O  O54  1  0.46644269  0.33178409  0.02946381  1
  O  O55  1  0.85999617  0.52551729  0.02910197  1
  O  O56  1  0.66895030  0.12994741  0.03019213  1
  O  O57  1  0.46099810  0.12994741  0.53019213  1
  O  O58  1  0.66552212  0.52551729  0.52910197  1
  O  O59  1  0.86534240  0.33178409  0.52946381  1
  O  O60  1  0.54535584  0.71765646  0.97350811  1
  O  O61  1  0.15569409  0.44265814  0.97096322  1
  O  O62  1  0.28402507  0.82790558  0.97477907  1
  O  O63  1  0.54387951  0.82790558  0.47477907  1
  O  O64  1  0.28696305  0.44265814  0.47096322  1
  O  O65  1  0.17229962  0.71765646  0.47350811  1
  O  O66  1  0.13310869  0.66511809  0.36279781  1
  O  O67  1  0.52666217  0.85885129  0.36243597  1
  O  O68  1  0.33561630  0.46328141  0.36352613  1
  O  O69  1  0.12766410  0.46328141  0.86352613  1
  O  O70  1  0.33218812  0.85885129  0.86243597  1
  O  O71  1  0.53200840  0.66511809  0.86279781  1
  O  O72  1  0.05657551  0.87463235  0.41005729  1
  O  O73  1  0.81785657  0.95406926  0.41040452  1
  O  O74  1  0.13822983  0.19008478  0.41381539  1
  O  O75  1  0.05185495  0.19008478  0.91381539  1
  O  O76  1  0.13621269  0.95406926  0.91040452  1
  O  O77  1  0.81805683  0.87463235  0.91005729  1
  O  O78  1  0.01535346  0.21735937  0.58973301  1
  O  O79  1  0.20425135  0.99154351  0.58861507  1
  O  O80  1  0.80045185  0.79247510  0.58721655  1
  O  O81  1  0.99202325  0.79247510  0.08721655  1
  O  O82  1  0.78729216  0.99154351  0.08861507  1
  O  O83  1  0.20200591  0.21735937  0.08973301  1
  O  O84  1  0.72324251  0.20796535  0.74339029  1
  O  O85  1  0.48452357  0.28740226  0.74373752  1
  O  O86  1  0.80489683  0.52341778  0.74714839  1
  O  O87  1  0.71852195  0.52341778  0.24714839  1
  O  O88  1  0.80287969  0.28740226  0.24373752  1
  O  O89  1  0.48472383  0.20796535  0.24339029  1
  O  O90  1  0.68202046  0.55069237  0.92306601  1
  O  O91  1  0.87091835  0.32487651  0.92194807  1
  O  O92  1  0.46711885  0.12580810  0.92054955  1
  O  O93  1  0.65869025  0.12580810  0.42054955  1
  O  O94  1  0.45395916  0.32487651  0.42194807  1
  O  O95  1  0.86867291  0.55069237  0.42306601  1
  O  O96  1  0.38990851  0.54129935  0.07672429  1
  O  O97  1  0.15118957  0.62073626  0.07707152  1
  O  O98  1  0.47156283  0.85675178  0.08048239  1
  O  O99  1  0.38518795  0.85675178  0.58048239  1
  O  O100  1  0.46954569  0.62073626  0.57707152  1
  O  O101  1  0.15138983  0.54129935  0.57672429  1
  O  O102  1  0.34868646  0.88402637  0.25640001  1
  O  O103  1  0.53758435  0.65821051  0.25528207  1
  O  O104  1  0.13378485  0.45914210  0.25388355  1
  O  O105  1  0.32535625  0.45914210  0.75388355  1
  O  O106  1  0.12062516  0.65821051  0.75528207  1
  O  O107  1  0.53533891  0.88402637  0.75640001  1
