# generated using pymatgen
data_Na3ScAl(PO4)3
_symmetry_space_group_name_H-M   'P 1'
_cell_length_a   8.80231920
_cell_length_b   8.79178633
_cell_length_c   22.09426157
_cell_angle_alpha   89.99415196
_cell_angle_beta   89.96116812
_cell_angle_gamma   119.97988750
_symmetry_Int_Tables_number   1
_chemical_formula_structural   Na3ScAl(PO4)3
_chemical_formula_sum   'Na18 Sc6 Al6 P18 O72'
_cell_volume   1481.05840994
_cell_formula_units_Z   6
loop_
 _symmetry_equiv_pos_site_id
 _symmetry_equiv_pos_as_xyz
  1  'x, y, z'
loop_
 _atom_site_type_symbol
 _atom_site_label
 _atom_site_symmetry_multiplicity
 _atom_site_fract_x
 _atom_site_fract_y
 _atom_site_fract_z
 _atom_site_occupancy
  Na  Na0  1  0.00031358  0.00006681  0.50081275  1
  Na  Na1  1  0.99927475  0.99919719  0.00124283  1
  Na  Na2  1  0.64715094  0.32233692  0.83201389  1
  Na  Na3  1  0.67782070  0.35276965  0.33324166  1
  Na  Na4  1  0.33305293  0.66662047  0.16847574  1
  Na  Na5  1  0.33331323  0.66637908  0.66611191  1
  Na  Na6  1  0.63683792  0.99960933  0.24995039  1
  Na  Na7  1  0.36438242  0.36254765  0.24997032  1
  Na  Na8  1  0.63571904  0.63364555  0.74873043  1
  Na  Na9  1  0.00044674  0.36423167  0.74868497  1
  Na  Na10  1  0.03387898  0.70140941  0.58368414  1
  Na  Na11  1  0.66421615  0.96554494  0.58355277  1
  Na  Na12  1  0.30080378  0.96908885  0.08449370  1
  Na  Na13  1  0.03088479  0.33438428  0.08429608  1
  Na  Na14  1  0.96903968  0.66535083  0.91712557  1
  Na  Na15  1  0.69683174  0.02886728  0.91666611  1
  Na  Na16  1  0.97096934  0.30137674  0.41695780  1
  Na  Na17  1  0.33363898  0.03228174  0.41762459  1
  Sc  Sc18  1  0.99283362  0.99052632  0.34946896  1
  Sc  Sc19  1  0.00966087  0.00756550  0.84869410  1
  Sc  Sc20  1  0.66165932  0.33609642  0.98483828  1
  Sc  Sc21  1  0.34038145  0.66564887  0.02116949  1
  Sc  Sc22  1  0.33408608  0.65970527  0.52051992  1
  Sc  Sc23  1  0.33442491  0.67182790  0.81219358  1
  Al  Al24  1  0.00706519  0.00603761  0.64710259  1
  Al  Al25  1  0.99493681  0.99372167  0.15082388  1
  Al  Al26  1  0.66117581  0.32920882  0.68347191  1
  Al  Al27  1  0.67122437  0.33899917  0.18495396  1
  Al  Al28  1  0.66441313  0.33866441  0.48273585  1
  Al  Al29  1  0.32746657  0.66442644  0.31555060  1
  P  P30  1  0.29484876  0.99700648  0.24815113  1
  P  P31  1  0.70571693  0.70245388  0.24732937  1
  P  P32  1  0.99946616  0.29882445  0.24811496  1
  P  P33  1  0.29692288  0.28614083  0.74462376  1
  P  P34  1  0.99439651  0.70558838  0.74505937  1
  P  P35  1  0.71117589  0.00778891  0.74492083  1
  P  P36  1  0.94716716  0.32612239  0.58473342  1
  P  P37  1  0.37814705  0.05577785  0.58381023  1
  P  P38  1  0.67181397  0.61939453  0.58549574  1
  P  P39  1  0.95305976  0.63057319  0.08727036  1
  P  P40  1  0.67468493  0.04409662  0.08816324  1
  P  P41  1  0.37043720  0.32652840  0.08975139  1
  P  P42  1  0.62794179  0.66541156  0.91472379  1
  P  P43  1  0.03906965  0.37063345  0.91732073  1
  P  P44  1  0.33334121  0.96215416  0.91833188  1
  P  P45  1  0.62199982  0.95992161  0.41625920  1
  P  P46  1  0.34338943  0.38070752  0.41440343  1
  P  P47  1  0.03842817  0.65958873  0.41719003  1
  O  O48  1  0.22029955  0.03839433  0.30524190  1
  O  O49  1  0.81543904  0.77916038  0.30490578  1
  O  O50  1  0.96003724  0.18253136  0.30533918  1
  O  O51  1  0.22124326  0.18311525  0.80358068  1
  O  O52  1  0.96071423  0.77983875  0.80381413  1
  O  O53  1  0.81952302  0.04114023  0.80380730  1
  O  O54  1  0.80482014  0.97571179  0.69082927  1
  O  O55  1  0.16826937  0.19531600  0.69189562  1
  O  O56  1  0.02036722  0.82502525  0.69022366  1
  O  O57  1  0.79624504  0.83177131  0.19417461  1
  O  O58  1  0.03489208  0.20772531  0.19355973  1
  O  O59  1  0.17620635  0.97046085  0.19277788  1
  O  O60  1  0.86122098  0.35830274  0.64077202  1
  O  O61  1  0.50078961  0.14212408  0.63801945  1
  O  O62  1  0.64638776  0.50973174  0.64276098  1
  O  O63  1  0.85830757  0.50041554  0.13893238  1
  O  O64  1  0.64268854  0.13778756  0.14185068  1
  O  O65  1  0.48818202  0.35257586  0.14444902  1
  O  O66  1  0.44694595  0.29013946  0.03222152  1
  O  O67  1  0.85455944  0.55814857  0.02670217  1
  O  O68  1  0.70866569  0.15287465  0.02905008  1
  O  O69  1  0.46122808  0.16084205  0.52468095  1
  O  O70  1  0.70269253  0.53295946  0.52932981  1
  O  O71  1  0.83332107  0.29633497  0.52691919  1
  O  O72  1  0.54178322  0.69781335  0.96993378  1
  O  O73  1  0.14673024  0.45645243  0.97470580  1
  O  O74  1  0.30432460  0.85115385  0.97596785  1
  O  O75  1  0.54256273  0.85236641  0.47436918  1
  O  O76  1  0.30188675  0.45912525  0.47003465  1
  O  O77  1  0.15015111  0.69559327  0.47520876  1
  O  O78  1  0.13115116  0.62857063  0.36241920  1
  O  O79  1  0.50326366  0.86998851  0.36001239  1
  O  O80  1  0.36530113  0.49187248  0.35693609  1
  O  O81  1  0.12214074  0.48387081  0.86000895  1
  O  O82  1  0.36347551  0.87350052  0.86282190  1
  O  O83  1  0.52205040  0.64166945  0.85645189  1
  O  O84  1  0.02461486  0.82697443  0.41012287  1
  O  O85  1  0.81009212  0.98971690  0.41083365  1
  O  O86  1  0.17786660  0.19347077  0.40907623  1
  O  O87  1  0.01270010  0.18439534  0.91304541  1
  O  O88  1  0.16529710  0.97312360  0.91230467  1
  O  O89  1  0.81222131  0.83215564  0.91109495  1
  O  O90  1  0.96460295  0.15874505  0.59131251  1
  O  O91  1  0.18907981  0.02721049  0.59095165  1
  O  O92  1  0.83934425  0.80868402  0.59039618  1
  O  O93  1  0.98001108  0.81789264  0.09533234  1
  O  O94  1  0.84171699  0.02865944  0.09603500  1
  O  O95  1  0.18308956  0.15983992  0.09566569  1
  O  O96  1  0.69376018  0.17368617  0.73782173  1
  O  O97  1  0.48416614  0.31378329  0.73792897  1
  O  O98  1  0.82831158  0.51817850  0.73928524  1
  O  O99  1  0.67872207  0.51531806  0.23895691  1
  O  O100  1  0.83264267  0.31395985  0.23904697  1
  O  O101  1  0.48225234  0.16334295  0.24034882  1
  O  O102  1  0.65251518  0.50449094  0.92035636  1
  O  O103  1  0.85467730  0.35374155  0.92130057  1
  O  O104  1  0.50140382  0.14269806  0.92234359  1
  O  O105  1  0.63833757  0.14596795  0.42236180  1
  O  O106  1  0.50631401  0.35844808  0.42343677  1
  O  O107  1  0.85612210  0.49067662  0.42473651  1
  O  O108  1  0.34571453  0.48780005  0.08397241  1
  O  O109  1  0.13869084  0.64769972  0.08318695  1
  O  O110  1  0.50527223  0.86383912  0.08315138  1
  O  O111  1  0.35704041  0.86750055  0.58004789  1
  O  O112  1  0.51234526  0.64841718  0.58102054  1
  O  O113  1  0.12995835  0.49395711  0.58035078  1
  O  O114  1  0.31799075  0.83370116  0.25702535  1
  O  O115  1  0.52016779  0.68683346  0.25537158  1
  O  O116  1  0.17003407  0.47962154  0.25689779  1
  O  O117  1  0.31352027  0.47177568  0.74989118  1
  O  O118  1  0.15570456  0.67980484  0.74969831  1
  O  O119  1  0.53062117  0.83793520  0.74977039  1
