# generated using pymatgen
data_MgFe12(OF)12
_symmetry_space_group_name_H-M   'P 1'
_cell_length_a   9.86543686
_cell_length_b   14.46227218
_cell_length_c   3.11803000
_cell_angle_alpha   90.00000000
_cell_angle_beta   90.00000000
_cell_angle_gamma   90.66205149
_symmetry_Int_Tables_number   1
_chemical_formula_structural   MgFe12(OF)12
_chemical_formula_sum   'Mg1 Fe12 O12 F12'
_cell_volume   444.84032338
_cell_formula_units_Z   1
loop_
 _symmetry_equiv_pos_site_id
 _symmetry_equiv_pos_as_xyz
  1  'x, y, z'
loop_
 _atom_site_type_symbol
 _atom_site_label
 _atom_site_symmetry_multiplicity
 _atom_site_fract_x
 _atom_site_fract_y
 _atom_site_fract_z
 _atom_site_occupancy
  Mg  Mg0  1  0.18153200  0.54714900  0.00000000  1
  Fe  Fe1  1  0.99359400  0.00102200  0.00000000  1
  Fe  Fe2  1  0.00098200  0.32445800  0.00000000  1
  Fe  Fe3  1  0.98134100  0.70243500  0.00000000  1
  Fe  Fe4  1  0.21627300  0.15277200  0.50000000  1
  Fe  Fe5  1  0.25862600  0.35569500  0.50000000  1
  Fe  Fe6  1  0.24565100  0.86973300  0.50000000  1
  Fe  Fe7  1  0.55346400  0.34766000  0.00000000  1
  Fe  Fe8  1  0.50092200  0.00435200  0.00000000  1
  Fe  Fe9  1  0.51516400  0.67318000  0.00000000  1
  Fe  Fe10  1  0.74712200  0.14023000  0.50000000  1
  Fe  Fe11  1  0.73581400  0.51683200  0.50000000  1
  Fe  Fe12  1  0.70535100  0.84551700  0.50000000  1
  O  O13  1  0.09180400  0.26390000  0.50000000  1
  O  O14  1  0.07606500  0.92881000  0.50000000  1
  O  O15  1  0.14855700  0.09362400  0.00000000  1
  O  O16  1  0.15327200  0.41716700  0.00000000  1
  O  O17  1  0.33875900  0.91507700  0.00000000  1
  O  O18  1  0.45226700  0.38494700  0.50000000  1
  O  O19  1  0.58239400  0.94676900  0.50000000  1
  O  O20  1  0.60678100  0.61176800  0.50000000  1
  O  O21  1  0.64119100  0.10656300  0.00000000  1
  O  O22  1  0.68808700  0.44477200  0.00000000  1
  O  O23  1  0.63836800  0.77833500  0.00000000  1
  O  O24  1  0.89907500  0.06195200  0.50000000  1
  F  F25  1  0.09923000  0.60751400  0.50000000  1
  F  F26  1  0.15840700  0.76964600  0.00000000  1
  F  F27  1  0.32521400  0.23757400  0.00000000  1
  F  F28  1  0.36323500  0.58030600  0.00000000  1
  F  F29  1  0.39617500  0.08085400  0.50000000  1
  F  F30  1  0.40473100  0.73462300  0.50000000  1
  F  F31  1  0.63581000  0.26941600  0.50000000  1
  F  F32  1  0.84854400  0.23138000  0.00000000  1
  F  F33  1  0.82484100  0.90263400  0.00000000  1
  F  F34  1  0.86588000  0.58004200  0.00000000  1
  F  F35  1  0.91181200  0.39751800  0.50000000  1
  F  F36  1  0.87794900  0.75247500  0.50000000  1
