# generated using pymatgen
data_Na4Mg3ZrSiS5O24
_symmetry_space_group_name_H-M   'P 1'
_cell_length_a   8.87736090
_cell_length_b   8.88751858
_cell_length_c   22.74960000
_cell_angle_alpha   90.01669577
_cell_angle_beta   90.20007369
_cell_angle_gamma   120.10232937
_symmetry_Int_Tables_number   1
_chemical_formula_structural   Na4Mg3ZrSiS5O24
_chemical_formula_sum   'Na12 Mg9 Zr3 Si3 S15 O72'
_cell_volume   1552.80240066
_cell_formula_units_Z   3
loop_
 _symmetry_equiv_pos_site_id
 _symmetry_equiv_pos_as_xyz
  1  'x, y, z'
loop_
 _atom_site_type_symbol
 _atom_site_label
 _atom_site_symmetry_multiplicity
 _atom_site_fract_x
 _atom_site_fract_y
 _atom_site_fract_z
 _atom_site_occupancy
  Na  Na0  1  0.36205486  0.36263006  0.24991850  1
  Na  Na1  1  0.31897131  0.34556177  0.58885971  1
  Na  Na2  1  0.02072313  0.69702509  0.58302380  1
  Na  Na3  1  0.99230924  0.67742240  0.91784963  1
  Na  Na4  1  0.69934133  0.02992975  0.90988978  1
  Na  Na5  1  0.30636314  0.28577601  0.91814434  1
  Na  Na6  1  0.96679249  0.98120315  0.49861853  1
  Na  Na7  1  0.01760843  0.01463256  0.00218555  1
  Na  Na8  1  0.66625337  0.32213952  0.82441682  1
  Na  Na9  1  0.68149285  0.32758941  0.32763394  1
  Na  Na10  1  0.33040160  0.67917624  0.16612755  1
  Na  Na11  1  0.36893975  0.68007102  0.66116831  1
  Mg  Mg12  1  0.99407850  0.99594411  0.34873320  1
  Mg  Mg13  1  0.00622482  0.00785106  0.84877763  1
  Mg  Mg14  1  0.98314136  0.99214887  0.64893308  1
  Mg  Mg15  1  0.99731198  0.99568444  0.15193372  1
  Mg  Mg16  1  0.66074908  0.33709984  0.68358723  1
  Mg  Mg17  1  0.67474666  0.33298463  0.18463544  1
  Mg  Mg18  1  0.31605762  0.65998861  0.01894544  1
  Mg  Mg19  1  0.35275318  0.67600863  0.51488003  1
  Mg  Mg20  1  0.33525638  0.67777667  0.31534869  1
  Zr  Zr21  1  0.66708670  0.32488007  0.98563567  1
  Zr  Zr22  1  0.67022159  0.34438785  0.47981496  1
  Zr  Zr23  1  0.32359577  0.67097514  0.81395552  1
  Si  Si24  1  0.66444230  0.63583820  0.58690923  1
  Si  Si25  1  0.04127407  0.36827672  0.91943121  1
  Si  Si26  1  0.32818852  0.95893541  0.91924684  1
  S  S27  1  0.29230092  0.00031165  0.24981582  1
  S  S28  1  0.70425121  0.70413035  0.24996937  1
  S  S29  1  0.00075329  0.29269341  0.25041789  1
  S  S30  1  0.29730049  0.29138301  0.74866121  1
  S  S31  1  0.99239088  0.70469258  0.74875497  1
  S  S32  1  0.70840613  0.00494712  0.74984271  1
  S  S33  1  0.96022898  0.33298955  0.58484274  1
  S  S34  1  0.37469265  0.03846631  0.58510468  1
  S  S35  1  0.96370922  0.63379935  0.08677046  1
  S  S36  1  0.66742060  0.03008846  0.08705336  1
  S  S37  1  0.36786440  0.33563673  0.08732362  1
  S  S38  1  0.62440642  0.66779967  0.91809066  1
  S  S39  1  0.62975176  0.95811973  0.41478848  1
  S  S40  1  0.32377723  0.36831277  0.41484570  1
  S  S41  1  0.04848012  0.67359249  0.41669771  1
  O  O42  1  0.21074588  0.02922176  0.30207405  1
  O  O43  1  0.80854845  0.78542403  0.30296067  1
  O  O44  1  0.97667863  0.18803069  0.30335512  1
  O  O45  1  0.21059215  0.19547556  0.80273591  1
  O  O46  1  0.98011603  0.78774040  0.80324822  1
  O  O47  1  0.80084443  0.01765620  0.80561828  1
  O  O48  1  0.79730134  0.98735093  0.69878111  1
  O  O49  1  0.19350834  0.20872003  0.69523256  1
  O  O50  1  0.01270829  0.80830420  0.69602340  1
  O  O51  1  0.78543135  0.80794506  0.19711624  1
  O  O52  1  0.02923532  0.21111193  0.19805845  1
  O  O53  1  0.18783908  0.97709297  0.19661579  1
  O  O54  1  0.87442930  0.35402771  0.63642635  1
  O  O55  1  0.48416917  0.11315069  0.63708031  1
  O  O56  1  0.62647806  0.50149545  0.63956352  1
  O  O57  1  0.86585318  0.52015134  0.13554708  1
  O  O58  1  0.64722644  0.12552546  0.13571514  1
  O  O59  1  0.47550538  0.34922845  0.13879232  1
  O  O60  1  0.45555936  0.31640358  0.03212343  1
  O  O61  1  0.86378211  0.55250134  0.02971537  1
  O  O62  1  0.68890564  0.13491389  0.03005552  1
  O  O63  1  0.46174487  0.14758283  0.53175550  1
  O  O64  1  0.69432830  0.53269864  0.52778268  1
  O  O65  1  0.84976761  0.30071144  0.53085307  1
  O  O66  1  0.54959390  0.70026707  0.96997986  1
  O  O67  1  0.17313506  0.44862263  0.97321157  1
  O  O68  1  0.30060989  0.83874782  0.97434717  1
  O  O69  1  0.54869969  0.85967705  0.46858978  1
  O  O70  1  0.30870935  0.45154792  0.46889394  1
  O  O71  1  0.14097228  0.68724533  0.47246132  1
  O  O72  1  0.13418964  0.65087138  0.36566785  1
  O  O73  1  0.52325579  0.87767623  0.36236706  1
  O  O74  1  0.35214098  0.47440953  0.36191988  1
  O  O75  1  0.12768048  0.49817072  0.86109026  1
  O  O76  1  0.38325754  0.88184124  0.86094687  1
  O  O77  1  0.51206620  0.63043220  0.86473537  1
  O  O78  1  0.02141637  0.82344901  0.41111466  1
  O  O79  1  0.80554460  0.97944335  0.40969183  1
  O  O80  1  0.17153003  0.19269558  0.40950367  1
  O  O81  1  0.99628096  0.17101208  0.90819264  1
  O  O82  1  0.15881678  0.97801693  0.90814244  1
  O  O83  1  0.79949385  0.81679541  0.90768125  1
  O  O84  1  0.99469786  0.18708510  0.58983183  1
  O  O85  1  0.20590223  0.03604350  0.59013089  1
  O  O86  1  0.84747275  0.81919317  0.58724862  1
  O  O87  1  0.97794890  0.80615823  0.09040896  1
  O  O88  1  0.82792666  0.02087007  0.09076602  1
  O  O89  1  0.19497627  0.17728330  0.08933885  1
  O  O90  1  0.68609994  0.15851499  0.74503726  1
  O  O91  1  0.47023754  0.30562700  0.74627218  1
  O  O92  1  0.84218964  0.52701773  0.74518723  1
  O  O93  1  0.67946492  0.52404484  0.24446829  1
  O  O94  1  0.84647948  0.31481981  0.24345508  1
  O  O95  1  0.46810094  0.16262005  0.24414535  1
  O  O96  1  0.64152292  0.50903342  0.92460020  1
  O  O97  1  0.85234777  0.36573151  0.92521256  1
  O  O98  1  0.49980366  0.15991446  0.92408234  1
  O  O99  1  0.64872348  0.13662852  0.42055920  1
  O  O100  1  0.48530486  0.34855409  0.42068008  1
  O  O101  1  0.86901642  0.50769524  0.41949567  1
  O  O102  1  0.35851231  0.49534398  0.08207074  1
  O  O103  1  0.13514988  0.64681166  0.08311009  1
  O  O104  1  0.51193280  0.85842707  0.08030228  1
  O  O105  1  0.33684662  0.85822794  0.57594647  1
  O  O106  1  0.48772505  0.64395445  0.57681642  1
  O  O107  1  0.12930955  0.49700120  0.57660626  1
  O  O108  1  0.31458485  0.84671740  0.25620155  1
  O  O109  1  0.52389409  0.67879408  0.25537875  1
  O  O110  1  0.16243930  0.46807768  0.25647911  1
  O  O111  1  0.32016919  0.47155878  0.75257002  1
  O  O112  1  0.15738234  0.69164606  0.75121157  1
  O  O113  1  0.53166433  0.84158520  0.75170184  1
