# generated using pymatgen
data_K2Te2O5
_symmetry_space_group_name_H-M   'P 1'
_cell_length_a   15.22047894
_cell_length_b   5.47089394
_cell_length_c   7.73038793
_cell_angle_alpha   85.93436384
_cell_angle_beta   90.00000000
_cell_angle_gamma   90.00000000
_symmetry_Int_Tables_number   1
_chemical_formula_structural   K2Te2O5
_chemical_formula_sum   'K8 Te8 O20'
_cell_volume   642.08661416
_cell_formula_units_Z   4
loop_
 _symmetry_equiv_pos_site_id
 _symmetry_equiv_pos_as_xyz
  1  'x, y, z'
loop_
 _atom_site_type_symbol
 _atom_site_label
 _atom_site_symmetry_multiplicity
 _atom_site_fract_x
 _atom_site_fract_y
 _atom_site_fract_z
 _atom_site_occupancy
  K  K0  1  0.43261618  0.26569837  0.62597035  1
  K  K1  1  0.93261618  0.23430163  0.37402965  1
  K  K2  1  0.56738382  0.73430163  0.37402965  1
  K  K3  1  0.06738382  0.76569837  0.62597035  1
  K  K4  1  0.31836607  0.73557585  0.87915234  1
  K  K5  1  0.81836607  0.76442415  0.12084766  1
  K  K6  1  0.68163393  0.26442415  0.12084766  1
  K  K7  1  0.18163393  0.23557585  0.87915234  1
  Te  Te8  1  0.31653778  0.80118649  0.41392571  1
  Te  Te9  1  0.81653778  0.69881351  0.58607429  1
  Te  Te10  1  0.68346222  0.19881351  0.58607429  1
  Te  Te11  1  0.18346222  0.30118649  0.41392571  1
  Te  Te12  1  0.43763109  0.24763418  0.11911181  1
  Te  Te13  1  0.93763109  0.25236582  0.88088819  1
  Te  Te14  1  0.56236891  0.75236582  0.88088819  1
  Te  Te15  1  0.06236891  0.74763418  0.11911181  1
  O  O16  1  0.35409147  0.22663144  0.94634872  1
  O  O17  1  0.85409147  0.27336856  0.05365128  1
  O  O18  1  0.64590853  0.77336856  0.05365128  1
  O  O19  1  0.14590853  0.72663144  0.94634872  1
  O  O20  1  0.36387016  0.16047197  0.31525544  1
  O  O21  1  0.86387016  0.33952803  0.68474456  1
  O  O22  1  0.63612984  0.83952803  0.68474456  1
  O  O23  1  0.13612984  0.66047197  0.31525544  1
  O  O24  1  0.43870187  0.58348381  0.14367594  1
  O  O25  1  0.93870187  0.91651619  0.85632406  1
  O  O26  1  0.56129813  0.41651619  0.85632406  1
  O  O27  1  0.06129813  0.08348381  0.14367594  1
  O  O28  1  0.25558165  0.49891971  0.55329160  1
  O  O29  1  0.75558165  0.00108029  0.44670840  1
  O  O30  1  0.74441835  0.50108029  0.44670840  1
  O  O31  1  0.24441835  0.99891971  0.55329160  1
  O  O32  1  0.09035843  0.26587152  0.56502731  1
  O  O33  1  0.59035843  0.23412848  0.43497269  1
  O  O34  1  0.90964157  0.73412848  0.43497269  1
  O  O35  1  0.40964157  0.76587152  0.56502731  1
