# generated using pymatgen
data_Na3TaInSi2PO12
_symmetry_space_group_name_H-M   'P 1'
_cell_length_a   9.12042046
_cell_length_b   9.12042014
_cell_length_c   22.45827881
_cell_angle_alpha   89.52537413
_cell_angle_beta   90.47462591
_cell_angle_gamma   119.88994974
_symmetry_Int_Tables_number   1
_chemical_formula_structural   Na3TaInSi2PO12
_chemical_formula_sum   'Na18 Ta6 In6 Si12 P6 O72'
_cell_volume   1619.56153823
_cell_formula_units_Z   6
loop_
 _symmetry_equiv_pos_site_id
 _symmetry_equiv_pos_as_xyz
  1  'x, y, z'
loop_
 _atom_site_type_symbol
 _atom_site_label
 _atom_site_symmetry_multiplicity
 _atom_site_fract_x
 _atom_site_fract_y
 _atom_site_fract_z
 _atom_site_occupancy
  Na  Na0  1  0.99312293  0.99130007  0.49376075  1
  Na  Na1  1  0.00869993  0.00687707  0.99376075  1
  Na  Na2  1  0.65978993  0.32463307  0.82709375  1
  Na  Na3  1  0.67536693  0.34021007  0.32709375  1
  Na  Na4  1  0.32645593  0.65796707  0.16042775  1
  Na  Na5  1  0.34203293  0.67354407  0.66042775  1
  Na  Na6  1  0.65465040  0.01623899  0.25026657  1
  Na  Na7  1  0.98008263  0.62148761  0.24702981  1
  Na  Na8  1  0.98376101  0.34534960  0.75026657  1
  Na  Na9  1  0.37851239  0.01991737  0.74702981  1
  Na  Na10  1  0.32131740  0.34957199  0.58359957  1
  Na  Na11  1  0.64674963  0.95482061  0.58036281  1
  Na  Na12  1  0.65042801  0.67868260  0.08359957  1
  Na  Na13  1  0.04517939  0.35325037  0.08036281  1
  Na  Na14  1  0.98798340  0.68290599  0.91693357  1
  Na  Na15  1  0.31341563  0.28815461  0.91369681  1
  Na  Na16  1  0.31709401  0.01201660  0.41693357  1
  Na  Na17  1  0.71184539  0.68658437  0.41369681  1
  Ta  Ta18  1  0.99654377  0.99556284  0.64643091  1
  Ta  Ta19  1  0.00443716  0.00345623  0.14643091  1
  Ta  Ta20  1  0.66321077  0.32889584  0.97976391  1
  Ta  Ta21  1  0.67110416  0.33678923  0.47976391  1
  Ta  Ta22  1  0.32987677  0.66222984  0.31309791  1
  Ta  Ta23  1  0.33777016  0.67012323  0.81309791  1
  In  In24  1  0.99712828  0.00347327  0.35026917  1
  In  In25  1  0.99652673  0.00287172  0.85026917  1
  In  In26  1  0.66379528  0.33680627  0.68360217  1
  In  In27  1  0.66319373  0.33620472  0.18360217  1
  In  In28  1  0.33046128  0.67014027  0.01693617  1
  In  In29  1  0.32985973  0.66953872  0.51693617  1
  Si  Si30  1  0.70139692  0.70437989  0.25160506  1
  Si  Si31  1  0.00406810  0.29673345  0.24866222  1
  Si  Si32  1  0.29562011  0.29860308  0.75160506  1
  Si  Si33  1  0.70326655  0.99593190  0.74866222  1
  Si  Si34  1  0.36806392  0.03771289  0.58493806  1
  Si  Si35  1  0.67073510  0.63006645  0.58199522  1
  Si  Si36  1  0.96228711  0.63193608  0.08493806  1
  Si  Si37  1  0.36993355  0.32926490  0.08199522  1
  Si  Si38  1  0.03472992  0.37104689  0.91827206  1
  Si  Si39  1  0.33740110  0.96340045  0.91532922  1
  Si  Si40  1  0.62895311  0.96527008  0.41827206  1
  Si  Si41  1  0.03659955  0.66259890  0.41532922  1
  P  P42  1  0.29091044  0.99400196  0.25238072  1
  P  P43  1  0.00599804  0.70908956  0.75238072  1
  P  P44  1  0.95757744  0.32733496  0.58571372  1
  P  P45  1  0.67266504  0.04242256  0.08571372  1
  P  P46  1  0.62424344  0.66066896  0.91904772  1
  P  P47  1  0.33933104  0.37575656  0.41904772  1
  O  O48  1  0.22348811  0.01962481  0.31075169  1
  O  O49  1  0.81200365  0.77936547  0.31136401  1
  O  O50  1  0.96575640  0.17809875  0.30557273  1
  O  O51  1  0.22063453  0.18799635  0.81136401  1
  O  O52  1  0.98037519  0.77651189  0.81075169  1
  O  O53  1  0.82190125  0.03424360  0.80557273  1
  O  O54  1  0.80020289  0.97245090  0.68914887  1
  O  O55  1  0.16297595  0.19327306  0.69371293  1
  O  O56  1  0.02331466  0.83167827  0.69897335  1
  O  O57  1  0.80672694  0.83702405  0.19371293  1
  O  O58  1  0.02754910  0.19979711  0.18914887  1
  O  O59  1  0.16832173  0.97668534  0.19897335  1
  O  O60  1  0.89015511  0.35295781  0.64408469  1
  O  O61  1  0.47867065  0.11269847  0.64469701  1
  O  O62  1  0.63242340  0.51143175  0.63890573  1
  O  O63  1  0.88730153  0.52132935  0.14469701  1
  O  O64  1  0.64704219  0.10984489  0.14408469  1
  O  O65  1  0.48856825  0.36757660  0.13890573  1
  O  O66  1  0.46686989  0.30578390  0.02248187  1
  O  O67  1  0.82964295  0.52660606  0.02704593  1
  O  O68  1  0.68998166  0.16501127  0.03230635  1
  O  O69  1  0.47339394  0.17035705  0.52704593  1
  O  O70  1  0.69421610  0.53313011  0.52248187  1
  O  O71  1  0.83498873  0.31001834  0.53230635  1
  O  O72  1  0.55682111  0.68629181  0.97741869  1
  O  O73  1  0.14533665  0.44603247  0.97803101  1
  O  O74  1  0.29908940  0.84476575  0.97223973  1
  O  O75  1  0.55396753  0.85466335  0.47803101  1
  O  O76  1  0.31370819  0.44317889  0.47741869  1
  O  O77  1  0.15523425  0.70091060  0.47223973  1
  O  O78  1  0.13353589  0.63911790  0.35581587  1
  O  O79  1  0.49630895  0.85994006  0.36037993  1
  O  O80  1  0.35664766  0.49834527  0.36564035  1
  O  O81  1  0.14005994  0.50369105  0.86037993  1
  O  O82  1  0.36088210  0.86646411  0.85581587  1
  O  O83  1  0.50165473  0.64335234  0.86564035  1
  O  O84  1  0.01294182  0.82768024  0.41126801  1
  O  O85  1  0.81484013  0.98836160  0.41311747  1
  O  O86  1  0.20023754  0.19273679  0.41042981  1
  O  O87  1  0.01163840  0.18515987  0.91311747  1
  O  O88  1  0.17231976  0.98705818  0.91126801  1
  O  O89  1  0.80726321  0.79976246  0.91042981  1
  O  O90  1  0.95464095  0.15282696  0.58672721  1
  O  O91  1  0.18663468  0.04097284  0.58977745  1
  O  O92  1  0.84405879  0.81875130  0.58875127  1
  O  O93  1  0.95902716  0.81336532  0.08977745  1
  O  O94  1  0.84717304  0.04535905  0.08672721  1
  O  O95  1  0.18124870  0.15594121  0.08875127  1
  O  O96  1  0.67960882  0.16101324  0.74460101  1
  O  O97  1  0.48150713  0.32169460  0.74645047  1
  O  O98  1  0.86690454  0.52606979  0.74376281  1
  O  O99  1  0.67830540  0.51849287  0.24645047  1
  O  O100  1  0.83898676  0.32039118  0.24460101  1
  O  O101  1  0.47393021  0.13309546  0.24376281  1
  O  O102  1  0.62130795  0.48615996  0.92006021  1
  O  O103  1  0.85330168  0.37430584  0.92311045  1
  O  O104  1  0.51072579  0.15208430  0.92208427  1
  O  O105  1  0.62569416  0.14669832  0.42311045  1
  O  O106  1  0.51384004  0.37869205  0.42006021  1
  O  O107  1  0.84791570  0.48927421  0.42208427  1
  O  O108  1  0.34627482  0.49434724  0.07793501  1
  O  O109  1  0.14817313  0.65502860  0.07978447  1
  O  O110  1  0.53357054  0.85940379  0.07709681  1
  O  O111  1  0.34497140  0.85182687  0.57978447  1
  O  O112  1  0.50565276  0.65372518  0.57793501  1
  O  O113  1  0.14059621  0.46642946  0.57709681  1
  O  O114  1  0.28797395  0.81949396  0.25339421  1
  O  O115  1  0.51996768  0.70763984  0.25644445  1
  O  O116  1  0.17739179  0.48541830  0.25541827  1
  O  O117  1  0.29236016  0.48003232  0.75644445  1
  O  O118  1  0.18050604  0.71202605  0.75339421  1
  O  O119  1  0.51458170  0.82260821  0.75541827  1
