# generated using pymatgen
data_Na3MgTaSi(PO6)2
_symmetry_space_group_name_H-M   'P 1'
_cell_length_a   15.63973173
_cell_length_b   8.99561746
_cell_length_c   8.85903503
_cell_angle_alpha   90.00000000
_cell_angle_beta   124.40127262
_cell_angle_gamma   90.00000000
_symmetry_Int_Tables_number   1
_chemical_formula_structural   Na3MgTaSi(PO6)2
_chemical_formula_sum   'Na12 Mg4 Ta4 Si4 P8 O48'
_cell_volume   1028.38038357
_cell_formula_units_Z   4
loop_
 _symmetry_equiv_pos_site_id
 _symmetry_equiv_pos_as_xyz
  1  'x, y, z'
loop_
 _atom_site_type_symbol
 _atom_site_label
 _atom_site_symmetry_multiplicity
 _atom_site_fract_x
 _atom_site_fract_y
 _atom_site_fract_z
 _atom_site_occupancy
  Na  Na0  1  0.25206599  0.72058905  0.98079014  1
  Na  Na1  1  0.75206599  0.77941095  0.48079014  1
  Na  Na2  1  0.75206599  0.22058905  0.98079014  1
  Na  Na3  1  0.25206599  0.27941095  0.48079014  1
  Na  Na4  1  0.51101163  0.10903998  0.75741127  1
  Na  Na5  1  0.51101163  0.89096002  0.25741127  1
  Na  Na6  1  0.01101163  0.60903998  0.75741127  1
  Na  Na7  1  0.01101163  0.39096002  0.25741127  1
  Na  Na8  1  0.18258038  0.93385033  0.29764420  1
  Na  Na9  1  0.18258038  0.06614967  0.79764420  1
  Na  Na10  1  0.68258038  0.43385033  0.29764420  1
  Na  Na11  1  0.68258038  0.56614967  0.79764420  1
  Mg  Mg12  1  0.10278054  0.74678397  0.56153340  1
  Mg  Mg13  1  0.10278054  0.25321603  0.06153340  1
  Mg  Mg14  1  0.60278054  0.24678397  0.56153340  1
  Mg  Mg15  1  0.60278054  0.75321603  0.06153340  1
  Ta  Ta16  1  0.89499318  0.75527001  0.93704939  1
  Ta  Ta17  1  0.89499318  0.24472999  0.43704939  1
  Ta  Ta18  1  0.39499318  0.25527001  0.93704939  1
  Ta  Ta19  1  0.39499318  0.74472999  0.43704939  1
  Si  Si20  1  0.64714499  0.89119632  0.74651344  1
  Si  Si21  1  0.64714499  0.10880368  0.24651344  1
  Si  Si22  1  0.14714499  0.39119632  0.74651344  1
  Si  Si23  1  0.14714499  0.60880368  0.24651344  1
  P  P24  1  0.99908672  0.95848845  0.76158955  1
  P  P25  1  0.99908672  0.04151155  0.26158955  1
  P  P26  1  0.49908672  0.45848845  0.76158955  1
  P  P27  1  0.49908672  0.54151155  0.26158955  1
  P  P28  1  0.35505813  0.89975924  0.76298284  1
  P  P29  1  0.35505813  0.10024076  0.26298284  1
  P  P30  1  0.85505813  0.39975924  0.76298284  1
  P  P31  1  0.85505813  0.60024076  0.26298284  1
  O  O32  1  0.15035529  0.56869555  0.73684303  1
  O  O33  1  0.85481680  0.57692860  0.75568601  1
  O  O34  1  0.85481680  0.42307140  0.25568601  1
  O  O35  1  0.15035529  0.43130445  0.23684303  1
  O  O36  1  0.65035529  0.06869555  0.73684303  1
  O  O37  1  0.35481680  0.07692860  0.75568601  1
  O  O38  1  0.35481680  0.92307140  0.25568601  1
  O  O39  1  0.65035529  0.93130445  0.23684303  1
  O  O40  1  0.43698471  0.56878941  0.59085075  1
  O  O41  1  0.56060075  0.54660253  0.93555677  1
  O  O42  1  0.56060075  0.45339747  0.43555677  1
  O  O43  1  0.43698471  0.43121059  0.09085075  1
  O  O44  1  0.93698471  0.06878941  0.59085075  1
  O  O45  1  0.06060075  0.04660253  0.93555677  1
  O  O46  1  0.06060075  0.95339747  0.43555677  1
  O  O47  1  0.93698471  0.93121059  0.09085075  1
  O  O48  1  0.25578009  0.85381515  0.74490848  1
  O  O49  1  0.74615440  0.80523200  0.75567400  1
  O  O50  1  0.74615440  0.19476800  0.25567400  1
  O  O51  1  0.25578009  0.14618485  0.24490848  1
  O  O52  1  0.75578009  0.35381515  0.74490848  1
  O  O53  1  0.24615440  0.30523200  0.75567400  1
  O  O54  1  0.24615440  0.69476800  0.25567400  1
  O  O55  1  0.75578009  0.64618485  0.24490848  1
  O  O56  1  0.35628234  0.85714640  0.58726341  1
  O  O57  1  0.64508393  0.82470882  0.90953766  1
  O  O58  1  0.64508393  0.17529118  0.40953766  1
  O  O59  1  0.35628234  0.14285360  0.08726341  1
  O  O60  1  0.85628234  0.35714640  0.58726341  1
  O  O61  1  0.14508393  0.32470882  0.90953766  1
  O  O62  1  0.14508393  0.67529118  0.40953766  1
  O  O63  1  0.85628234  0.64285360  0.08726341  1
  O  O64  1  0.45265210  0.84341402  0.93350569  1
  O  O65  1  0.53534126  0.82153009  0.55432114  1
  O  O66  1  0.53534126  0.17846991  0.05432114  1
  O  O67  1  0.45265210  0.15658598  0.43350569  1
  O  O68  1  0.95265210  0.34341402  0.93350569  1
  O  O69  1  0.03534126  0.32153009  0.55432114  1
  O  O70  1  0.03534126  0.67846991  0.05432114  1
  O  O71  1  0.95265210  0.65658598  0.43350569  1
  O  O72  1  0.06946277  0.85610892  0.73963850  1
  O  O73  1  0.91176399  0.86202045  0.75070033  1
  O  O74  1  0.91176399  0.13797955  0.25070033  1
  O  O75  1  0.06946277  0.14389108  0.23963850  1
  O  O76  1  0.56946277  0.35610892  0.73963850  1
  O  O77  1  0.41176399  0.36202045  0.75070033  1
  O  O78  1  0.41176399  0.63797955  0.25070033  1
  O  O79  1  0.56946277  0.64389108  0.23963850  1
