# generated using pymatgen
data_Hg3(SeI)2
_symmetry_space_group_name_H-M   'P 1'
_cell_length_a   12.10719576
_cell_length_b   12.10502416
_cell_length_c   12.10650287
_cell_angle_alpha   132.23761228
_cell_angle_beta   131.51063525
_cell_angle_gamma   70.42795366
_symmetry_Int_Tables_number   1
_chemical_formula_structural   Hg3(SeI)2
_chemical_formula_sum   'Hg12 Se8 I8'
_cell_volume   963.94531792
_cell_formula_units_Z   4
loop_
 _symmetry_equiv_pos_site_id
 _symmetry_equiv_pos_as_xyz
  1  'x, y, z'
loop_
 _atom_site_type_symbol
 _atom_site_label
 _atom_site_symmetry_multiplicity
 _atom_site_fract_x
 _atom_site_fract_y
 _atom_site_fract_z
 _atom_site_occupancy
  Hg  Hg0  1  0.15089408  0.65088630  0.00001012  1
  Hg  Hg1  1  0.34908191  0.34912770  0.49998492  1
  Hg  Hg2  1  0.84913088  0.34911385  0.00002660  1
  Hg  Hg3  1  0.65091483  0.65084498  0.50001129  1
  Hg  Hg4  1  0.02577430  0.74614241  0.27186421  1
  Hg  Hg5  1  0.47429697  0.74614001  0.72041296  1
  Hg  Hg6  1  0.52570226  0.25383480  0.27958554  1
  Hg  Hg7  1  0.97425424  0.25385225  0.72816047  1
  Hg  Hg8  1  0.11772157  0.07428725  0.95655823  1
  Hg  Hg9  1  0.38227159  0.33889861  0.95667426  1
  Hg  Hg10  1  0.88222597  0.92566994  0.04339255  1
  Hg  Hg11  1  0.61774433  0.66111995  0.04338093  1
  Se  Se12  1  0.13177153  0.88548782  0.26148134  1
  Se  Se13  1  0.36823354  0.62954061  0.75358348  1
  Se  Se14  1  0.37593984  0.11462801  0.24640389  1
  Se  Se15  1  0.12407522  0.37051027  0.73877896  1
  Se  Se16  1  0.86825331  0.11455992  0.73859251  1
  Se  Se17  1  0.63171728  0.37041785  0.24635191  1
  Se  Se18  1  0.62396917  0.88532685  0.75355975  1
  Se  Se19  1  0.87593826  0.62947568  0.26118790  1
  I  I20  1  0.99948162  0.74533458  0.74581205  1
  I  I21  1  0.50052994  0.24629522  0.74583163  1
  I  I22  1  0.00049656  0.25467525  0.25411863  1
  I  I23  1  0.49946567  0.75368549  0.25420010  1
  I  I24  1  0.75031523  0.49252229  0.74221001  1
  I  I25  1  0.24988251  0.50776056  0.25779853  1
  I  I26  1  0.75000693  0.00306339  0.25309788  1
  I  I27  1  0.24991148  0.99680015  0.74692936  1
