# generated using pymatgen
data_Na2HfZrSi2SO12
_symmetry_space_group_name_H-M   'P 1'
_cell_length_a   9.09852798
_cell_length_b   9.09740200
_cell_length_c   23.11890369
_cell_angle_alpha   89.82554661
_cell_angle_beta   90.18410048
_cell_angle_gamma   119.92900057
_symmetry_Int_Tables_number   1
_chemical_formula_structural   Na2HfZrSi2SO12
_chemical_formula_sum   'Na12 Hf6 Zr6 Si12 S6 O72'
_cell_volume   1658.41726943
_cell_formula_units_Z   6
loop_
 _symmetry_equiv_pos_site_id
 _symmetry_equiv_pos_as_xyz
  1  'x, y, z'
loop_
 _atom_site_type_symbol
 _atom_site_label
 _atom_site_symmetry_multiplicity
 _atom_site_fract_x
 _atom_site_fract_y
 _atom_site_fract_z
 _atom_site_occupancy
  Na  Na0  1  0.99172233  0.62527717  0.25465833  1
  Na  Na1  1  0.37544299  0.00737942  0.75551671  1
  Na  Na2  1  0.65844302  0.95863591  0.58809210  1
  Na  Na3  1  0.04280420  0.34126248  0.08794669  1
  Na  Na4  1  0.32519985  0.29082270  0.92175691  1
  Na  Na5  1  0.70908700  0.67403499  0.42177561  1
  Na  Na6  1  0.01726709  0.98412448  0.50127948  1
  Na  Na7  1  0.01647007  0.98257153  0.00105699  1
  Na  Na8  1  0.68437323  0.31714962  0.83473970  1
  Na  Na9  1  0.68262863  0.31584921  0.33420582  1
  Na  Na10  1  0.35058728  0.65056062  0.16762678  1
  Na  Na11  1  0.34937269  0.64919651  0.66818715  1
  Hf  Hf12  1  0.00340743  0.01518847  0.85393607  1
  Hf  Hf13  1  0.67014687  0.34828356  0.18571004  1
  Hf  Hf14  1  0.66550384  0.33275262  0.97962024  1
  Hf  Hf15  1  0.31753197  0.66270677  0.01974620  1
  Hf  Hf16  1  0.33617875  0.68086621  0.51986695  1
  Hf  Hf17  1  0.33396602  0.66791481  0.81445251  1
  Zr  Zr18  1  0.98380340  0.99638653  0.35312682  1
  Zr  Zr19  1  0.99913729  0.99936899  0.64769850  1
  Zr  Zr20  1  0.00088949  0.00062786  0.14606693  1
  Zr  Zr21  1  0.65030986  0.32952857  0.68693040  1
  Zr  Zr22  1  0.66761223  0.33423893  0.48044172  1
  Zr  Zr23  1  0.33237791  0.66610851  0.31338630  1
  Si  Si24  1  0.70336096  0.70796209  0.24965758  1
  Si  Si25  1  0.99692626  0.29396748  0.24716338  1
  Si  Si26  1  0.28862648  0.29704826  0.75138943  1
  Si  Si27  1  0.70566028  0.99945652  0.74897569  1
  Si  Si28  1  0.36931218  0.04093462  0.58347211  1
  Si  Si29  1  0.66420080  0.62793207  0.58106656  1
  Si  Si30  1  0.95498263  0.62667387  0.08277249  1
  Si  Si31  1  0.37573259  0.33667581  0.08058919  1
  Si  Si32  1  0.03788272  0.37798661  0.91690702  1
  Si  Si33  1  0.33201469  0.95934681  0.91482741  1
  Si  Si34  1  0.62214831  0.96188293  0.41739144  1
  Si  Si35  1  0.04046554  0.66831891  0.41487481  1
  S  S36  1  0.29434920  0.00447024  0.25036679  1
  S  S37  1  0.99930941  0.70823901  0.75201275  1
  S  S38  1  0.96106149  0.33725148  0.58405107  1
  S  S39  1  0.66216428  0.04286021  0.08319282  1
  S  S40  1  0.62412704  0.66885829  0.91737339  1
  S  S41  1  0.33042025  0.37503230  0.41793628  1
  O  O42  1  0.21686914  0.02739256  0.30241325  1
  O  O43  1  0.82158955  0.78831647  0.30809233  1
  O  O44  1  0.98638991  0.17817757  0.30315118  1
  O  O45  1  0.20517800  0.17619077  0.80894613  1
  O  O46  1  0.97806803  0.79054408  0.80385243  1
  O  O47  1  0.82359522  0.00944402  0.80413829  1
  O  O48  1  0.78874647  0.97500515  0.68923371  1
  O  O49  1  0.17252863  0.19383885  0.69573255  1
  O  O50  1  0.02522914  0.81395181  0.69952785  1
  O  O51  1  0.80948477  0.82772805  0.19508167  1
  O  O52  1  0.02228493  0.20915169  0.18810657  1
  O  O53  1  0.18754411  0.97993426  0.19817870  1
  O  O54  1  0.88309469  0.36034593  0.63606341  1
  O  O55  1  0.48818405  0.12194820  0.64176291  1
  O  O56  1  0.65362420  0.51134307  0.63684192  1
  O  O57  1  0.87399243  0.50900524  0.14120981  1
  O  O58  1  0.64076997  0.12139481  0.13565000  1
  O  O59  1  0.49057851  0.34621712  0.13661607  1
  O  O60  1  0.46090720  0.31241158  0.02156319  1
  O  O61  1  0.83660524  0.52114293  0.02812378  1
  O  O62  1  0.68478538  0.14905105  0.03124641  1
  O  O63  1  0.47490877  0.16023973  0.52884320  1
  O  O64  1  0.68975918  0.54388039  0.52194202  1
  O  O65  1  0.85470746  0.31284073  0.53187796  1
  O  O66  1  0.54526999  0.69186300  0.96958737  1
  O  O67  1  0.15772883  0.45934307  0.97498838  1
  O  O68  1  0.32096484  0.84244920  0.97045783  1
  O  O69  1  0.53874094  0.84307729  0.47529074  1
  O  O70  1  0.31090754  0.45715384  0.47005944  1
  O  O71  1  0.15632871  0.67650764  0.47038790  1
  O  O72  1  0.12387195  0.64438200  0.35520339  1
  O  O73  1  0.50637762  0.85783141  0.36189668  1
  O  O74  1  0.35355219  0.47988707  0.36549302  1
  O  O75  1  0.14293421  0.49674106  0.86220840  1
  O  O76  1  0.35710555  0.87468271  0.85579643  1
  O  O77  1  0.51726492  0.64394362  0.86542649  1
  O  O78  1  0.02538931  0.84142373  0.41238136  1
  O  O79  1  0.80870352  0.97269431  0.41242657  1
  O  O80  1  0.18409816  0.20420374  0.41226481  1
  O  O81  1  0.02568688  0.19053812  0.91076212  1
  O  O82  1  0.15905882  0.97565239  0.91132541  1
  O  O83  1  0.79615917  0.81480973  0.91044402  1
  O  O84  1  0.96978238  0.17762013  0.58776744  1
  O  O85  1  0.18162391  0.01907383  0.58861814  1
  O  O86  1  0.82487193  0.82352343  0.58701400  1
  O  O87  1  0.97789193  0.81541484  0.08758296  1
  O  O88  1  0.82215522  0.03444620  0.08658712  1
  O  O89  1  0.17932564  0.17540031  0.08621898  1
  O  O90  1  0.68995822  0.17239914  0.74595868  1
  O  O91  1  0.47516211  0.30753001  0.74590342  1
  O  O92  1  0.85356706  0.53760030  0.74581304  1
  O  O93  1  0.69186794  0.52160424  0.24333399  1
  O  O94  1  0.82360759  0.30850246  0.24395039  1
  O  O95  1  0.46670209  0.15070749  0.24302537  1
  O  O96  1  0.63295422  0.50903190  0.92158329  1
  O  O97  1  0.84942162  0.35507117  0.92256375  1
  O  O98  1  0.49314924  0.15531257  0.92117435  1
  O  O99  1  0.64525286  0.15030881  0.42160886  1
  O  O100  1  0.49022140  0.36678793  0.42143767  1
  O  O101  1  0.84444046  0.50756815  0.42017546  1
  O  O102  1  0.35990036  0.50977064  0.07739485  1
  O  O103  1  0.14233882  0.63900100  0.07687512  1
  O  O104  1  0.51577040  0.87063409  0.07659970  1
  O  O105  1  0.35763289  0.85445811  0.57732651  1
  O  O106  1  0.49078636  0.64241528  0.57797426  1
  O  O107  1  0.13332142  0.48338827  0.57686810  1
  O  O108  1  0.30333440  0.84495583  0.25391469  1
  O  O109  1  0.51554109  0.68586998  0.25451875  1
  O  O110  1  0.15765245  0.48969632  0.25293716  1
  O  O111  1  0.31173453  0.48523137  0.75686621  1
  O  O112  1  0.15923748  0.69972505  0.75657158  1
  O  O113  1  0.51011726  0.83863718  0.75539530  1
