# generated using pymatgen
data_VBrO
_symmetry_space_group_name_H-M   'P 1'
_cell_length_a   3.42819595
_cell_length_b   3.77685904
_cell_length_c   8.70527860
_cell_angle_alpha   90.00000000
_cell_angle_beta   90.00000000
_cell_angle_gamma   90.00000000
_symmetry_Int_Tables_number   1
_chemical_formula_structural   VBrO
_chemical_formula_sum   'V2 Br2 O2'
_cell_volume   112.71431825
_cell_formula_units_Z   2
loop_
 _symmetry_equiv_pos_site_id
 _symmetry_equiv_pos_as_xyz
  1  'x, y, z'
loop_
 _atom_site_type_symbol
 _atom_site_label
 _atom_site_symmetry_multiplicity
 _atom_site_fract_x
 _atom_site_fract_y
 _atom_site_fract_z
 _atom_site_occupancy
  V  V0  1  0.74999900  0.74999900  0.89672108  1
  V  V1  1  0.24999900  0.25000000  0.10327792  1
  Br  Br2  1  0.24999900  0.74999900  0.68404234  1
  Br  Br3  1  0.74999900  0.25000000  0.31595766  1
  O  O4  1  0.74999900  0.25000000  0.96256393  1
  O  O5  1  0.24999900  0.74999900  0.03743607  1
