# generated using pymatgen
data_Na9Ta2Zn10P3(S5O24)3
_symmetry_space_group_name_H-M   'P 1'
_cell_length_a   8.79037380
_cell_length_b   8.80006770
_cell_length_c   22.68113744
_cell_angle_alpha   89.68661852
_cell_angle_beta   90.28669541
_cell_angle_gamma   119.91777432
_symmetry_Int_Tables_number   1
_chemical_formula_structural   Na9Ta2Zn10P3(S5O24)3
_chemical_formula_sum   'Na9 Ta2 Zn10 P3 S15 O72'
_cell_volume   1520.68782296
_cell_formula_units_Z   1
loop_
 _symmetry_equiv_pos_site_id
 _symmetry_equiv_pos_as_xyz
  1  'x, y, z'
loop_
 _atom_site_type_symbol
 _atom_site_label
 _atom_site_symmetry_multiplicity
 _atom_site_fract_x
 _atom_site_fract_y
 _atom_site_fract_z
 _atom_site_occupancy
  Na  Na0  1  0.66764884  0.96908481  0.58608692  1
  Na  Na1  1  0.30112166  0.96907136  0.08604297  1
  Na  Na2  1  0.33235107  0.04051096  0.41556797  1
  Na  Na3  1  0.00501508  0.00684844  0.50080672  1
  Na  Na4  1  0.99108514  0.00155815  0.00026584  1
  Na  Na5  1  0.66872940  0.32819630  0.83157893  1
  Na  Na6  1  0.66468230  0.33673785  0.33091160  1
  Na  Na7  1  0.33342031  0.66107777  0.16188323  1
  Na  Na8  1  0.32628671  0.65922734  0.66160907  1
  Ta  Ta9  1  0.33377898  0.66310610  0.31265852  1
  Ta  Ta10  1  0.33851718  0.67091151  0.81277348  1
  Zn  Zn11  1  0.01073166  0.01091028  0.34772029  1
  Zn  Zn12  1  0.99379824  0.00257020  0.84811142  1
  Zn  Zn13  1  0.99754295  0.99842246  0.65220692  1
  Zn  Zn14  1  0.00023925  0.99786017  0.15194923  1
  Zn  Zn15  1  0.66823463  0.32733385  0.68355461  1
  Zn  Zn16  1  0.65835139  0.32577546  0.18343882  1
  Zn  Zn17  1  0.67106740  0.33647691  0.98497173  1
  Zn  Zn18  1  0.66525445  0.34574796  0.48448128  1
  Zn  Zn19  1  0.33263278  0.65822559  0.01761885  1
  Zn  Zn20  1  0.32401225  0.64789640  0.51777628  1
  P  P21  1  0.29673721  0.00594039  0.25029914  1
  P  P22  1  0.71362247  0.00898950  0.74950478  1
  P  P23  1  0.33219405  0.37163221  0.41846645  1
  S  S24  1  0.71218145  0.70826430  0.25111757  1
  S  S25  1  0.99511420  0.29025282  0.25017619  1
  S  S26  1  0.29369859  0.29018051  0.75112992  1
  S  S27  1  0.99668835  0.70716321  0.75129143  1
  S  S28  1  0.95960042  0.33513591  0.58310092  1
  S  S29  1  0.36845270  0.03753386  0.58247120  1
  S  S30  1  0.66859431  0.62701888  0.58431522  1
  S  S31  1  0.95783382  0.62518861  0.08343948  1
  S  S32  1  0.66992318  0.04005023  0.08285635  1
  S  S33  1  0.37393627  0.33531879  0.08286352  1
  S  S34  1  0.62696454  0.66697920  0.91798089  1
  S  S35  1  0.04192416  0.37427441  0.91731416  1
  S  S36  1  0.33123976  0.95954742  0.91765293  1
  S  S37  1  0.62917530  0.95729964  0.41762116  1
  S  S38  1  0.04094461  0.66467537  0.41721586  1
  O  O39  1  0.21612583  0.02602390  0.30722915  1
  O  O40  1  0.81193840  0.78831174  0.30483884  1
  O  O41  1  0.97000443  0.18858280  0.30400546  1
  O  O42  1  0.21653202  0.18741025  0.80459157  1
  O  O43  1  0.97655186  0.78683218  0.80474916  1
  O  O44  1  0.81797562  0.02893359  0.80495122  1
  O  O45  1  0.77329853  0.96065102  0.69264503  1
  O  O46  1  0.18632729  0.22372358  0.69775342  1
  O  O47  1  0.03990262  0.81486786  0.69785920  1
  O  O48  1  0.77660468  0.81529938  0.19766594  1
  O  O49  1  0.03561640  0.22281345  0.19740785  1
  O  O50  1  0.18575334  0.96187679  0.19383655  1
  O  O51  1  0.88042260  0.36027898  0.63662913  1
  O  O52  1  0.48290339  0.11896315  0.63449915  1
  O  O53  1  0.64184017  0.51946784  0.63723487  1
  O  O54  1  0.87863481  0.51915910  0.13672063  1
  O  O55  1  0.63580061  0.11749452  0.13562195  1
  O  O56  1  0.47986783  0.36254785  0.13651279  1
  O  O57  1  0.45192215  0.30201940  0.02969121  1
  O  O58  1  0.85427756  0.54747291  0.02929186  1
  O  O59  1  0.69543403  0.14516200  0.02871792  1
  O  O60  1  0.44519386  0.13934557  0.52693664  1
  O  O61  1  0.69429762  0.55057521  0.53015772  1
  O  O62  1  0.84795137  0.30249529  0.52959698  1
  O  O63  1  0.54458002  0.69376135  0.96963212  1
  O  O64  1  0.14842124  0.45609764  0.96988207  1
  O  O65  1  0.30665112  0.85469392  0.97126887  1
  O  O66  1  0.54919143  0.85594738  0.47155647  1
  O  O67  1  0.30489696  0.45700529  0.47150258  1
  O  O68  1  0.15418218  0.70014730  0.46911768  1
  O  O69  1  0.13534590  0.64507795  0.36309624  1
  O  O70  1  0.50691521  0.86407952  0.36425602  1
  O  O71  1  0.35273870  0.49394044  0.36234233  1
  O  O72  1  0.13687102  0.49015288  0.86336152  1
  O  O73  1  0.35258430  0.86133864  0.86429190  1
  O  O74  1  0.50931259  0.64602137  0.86360249  1
  O  O75  1  0.02419588  0.82240715  0.40891228  1
  O  O76  1  0.80016506  0.97206192  0.40820491  1
  O  O77  1  0.17033280  0.18746362  0.41086905  1
  O  O78  1  0.02747129  0.20146015  0.91002212  1
  O  O79  1  0.17371159  0.97398592  0.90807981  1
  O  O80  1  0.79986845  0.82307753  0.90958895  1
  O  O81  1  0.97468153  0.17244248  0.58815355  1
  O  O82  1  0.19295591  0.01964316  0.58944862  1
  O  O83  1  0.82676638  0.80754006  0.58833176  1
  O  O84  1  0.98106574  0.80627357  0.08756416  1
  O  O85  1  0.82668817  0.02014335  0.08969189  1
  O  O86  1  0.19702183  0.17254947  0.08814490  1
  O  O87  1  0.67772095  0.16139148  0.74421059  1
  O  O88  1  0.47337716  0.32258743  0.74467812  1
  O  O89  1  0.84664755  0.52964048  0.74486103  1
  O  O90  1  0.68391453  0.53030506  0.24501231  1
  O  O91  1  0.84777584  0.32263354  0.24394501  1
  O  O92  1  0.48314638  0.16170616  0.24464229  1
  O  O93  1  0.63412421  0.50340183  0.91912001  1
  O  O94  1  0.86920688  0.36416488  0.91885261  1
  O  O95  1  0.49408793  0.13064630  0.91878467  1
  O  O96  1  0.63588210  0.12905094  0.41857236  1
  O  O97  1  0.49964437  0.35482874  0.41872538  1
  O  O98  1  0.87089699  0.50262218  0.41946873  1
  O  O99  1  0.35447981  0.49285320  0.07705309  1
  O  O100  1  0.14042097  0.65020764  0.07845271  1
  O  O101  1  0.50477262  0.86361571  0.07721656  1
  O  O102  1  0.35769693  0.86167908  0.57725641  1
  O  O103  1  0.51166878  0.65268041  0.57954753  1
  O  O104  1  0.13577589  0.49332860  0.57828020  1
  O  O105  1  0.31386457  0.83174619  0.26188337  1
  O  O106  1  0.52578385  0.68931736  0.25954806  1
  O  O107  1  0.16302598  0.47447514  0.25909100  1
  O  O108  1  0.30957983  0.47458005  0.76047879  1
  O  O109  1  0.16275457  0.68673736  0.76066284  1
  O  O110  1  0.51999892  0.83321776  0.76209094  1
