# generated using pymatgen
data_Y2MgCr2O8
_symmetry_space_group_name_H-M   'P 1'
_cell_length_a   5.04606392
_cell_length_b   5.14940728
_cell_length_c   7.89629546
_cell_angle_alpha   105.43100438
_cell_angle_beta   105.25056005
_cell_angle_gamma   100.19807994
_symmetry_Int_Tables_number   1
_chemical_formula_structural   Y2MgCr2O8
_chemical_formula_sum   'Y2 Mg1 Cr2 O8'
_cell_volume   183.96253586
_cell_formula_units_Z   1
loop_
 _symmetry_equiv_pos_site_id
 _symmetry_equiv_pos_as_xyz
  1  'x, y, z'
loop_
 _atom_site_type_symbol
 _atom_site_label
 _atom_site_symmetry_multiplicity
 _atom_site_fract_x
 _atom_site_fract_y
 _atom_site_fract_z
 _atom_site_occupancy
  Y  Y0  1  0.40225430  0.15339330  0.80590757  1
  Y  Y1  1  0.57957248  0.82835121  0.15828816  1
  Mg  Mg2  1  0.73513251  0.48126412  0.46537596  1
  Cr  Cr3  1  0.92888188  0.67934637  0.85841071  1
  Cr  Cr4  1  0.06659424  0.31518098  0.13184869  1
  O  O5  1  0.90631381  0.23462025  0.30939598  1
  O  O6  1  0.72696515  0.94990145  0.92958291  1
  O  O7  1  0.40491623  0.56978264  0.30869741  1
  O  O8  1  0.20257316  0.47990576  0.92986666  1
  O  O9  1  0.80358895  0.51588590  0.05180044  1
  O  O10  1  0.24805788  0.03417570  0.05123769  1
  O  O11  1  0.02862518  0.79072357  0.66947785  1
  O  O12  1  0.64152423  0.37996974  0.67010998  1
