# generated using pymatgen
data_Na2Nb4Ga4Si5S7O48
_symmetry_space_group_name_H-M   'P 1'
_cell_length_a   17.50034036
_cell_length_b   8.74203433
_cell_length_c   22.63785596
_cell_angle_alpha   90.17250209
_cell_angle_beta   89.66262704
_cell_angle_gamma   120.01631764
_symmetry_Int_Tables_number   1
_chemical_formula_structural   Na2Nb4Ga4Si5S7O48
_chemical_formula_sum   'Na6 Nb12 Ga12 Si15 S21 O144'
_cell_volume   2998.78937358
_cell_formula_units_Z   3
loop_
 _symmetry_equiv_pos_site_id
 _symmetry_equiv_pos_as_xyz
  1  'x, y, z'
loop_
 _atom_site_type_symbol
 _atom_site_label
 _atom_site_symmetry_multiplicity
 _atom_site_fract_x
 _atom_site_fract_y
 _atom_site_fract_z
 _atom_site_occupancy
  Na  Na0  1  0.00035655  0.99397792  0.49708550  1
  Na  Na1  1  0.49705655  0.00257054  0.99542154  1
  Na  Na2  1  0.33315497  0.32684354  0.84218110  1
  Na  Na3  1  0.83305814  0.33743630  0.83946258  1
  Na  Na4  1  0.33048364  0.32605640  0.33650232  1
  Na  Na5  1  0.83841069  0.33954176  0.33838687  1
  Nb  Nb6  1  0.50269495  0.01293403  0.35341783  1
  Nb  Nb7  1  0.00766550  0.99213192  0.85702764  1
  Nb  Nb8  1  0.50617225  0.01292582  0.63875175  1
  Nb  Nb9  1  0.00779247  0.00299625  0.13794146  1
  Nb  Nb10  1  0.33457343  0.34845836  0.69051544  1
  Nb  Nb11  1  0.82876414  0.32805904  0.69398299  1
  Nb  Nb12  1  0.32984573  0.32801585  0.19117583  1
  Nb  Nb13  1  0.83378876  0.32123395  0.18860693  1
  Nb  Nb14  1  0.16482617  0.67013869  0.02490216  1
  Nb  Nb15  1  0.66228277  0.65916650  0.02264795  1
  Nb  Nb16  1  0.16294963  0.66668847  0.52282368  1
  Nb  Nb17  1  0.66681355  0.66932593  0.52588228  1
  Ga  Ga18  1  0.00658124  0.98404389  0.35453339  1
  Ga  Ga19  1  0.50334122  0.02443350  0.85554884  1
  Ga  Ga20  1  0.00802238  0.01287643  0.66027288  1
  Ga  Ga21  1  0.50707817  0.00730157  0.15408345  1
  Ga  Ga22  1  0.32686244  0.31959010  0.97164949  1
  Ga  Ga23  1  0.83919039  0.33154378  0.98430870  1
  Ga  Ga24  1  0.33686522  0.34227582  0.48586390  1
  Ga  Ga25  1  0.83858352  0.33652767  0.48025062  1
  Ga  Ga26  1  0.15077232  0.66815303  0.31241274  1
  Ga  Ga27  1  0.66548479  0.66942603  0.30480149  1
  Ga  Ga28  1  0.16436701  0.67450874  0.80630030  1
  Ga  Ga29  1  0.65356340  0.63618590  0.81297227  1
  Si  Si30  1  0.13891406  0.98860375  0.25336362  1
  Si  Si31  1  0.64424664  0.99584726  0.24812867  1
  Si  Si32  1  0.50501387  0.29574596  0.24719774  1
  Si  Si33  1  0.14354226  0.30126363  0.75066028  1
  Si  Si34  1  0.63724520  0.28795332  0.75437859  1
  Si  Si35  1  0.00477062  0.71760420  0.74697156  1
  Si  Si36  1  0.46995644  0.32929187  0.57946699  1
  Si  Si37  1  0.69927072  0.06671503  0.57801964  1
  Si  Si38  1  0.33213445  0.61778120  0.58085089  1
  Si  Si39  1  0.97087798  0.61137431  0.07952569  1
  Si  Si40  1  0.83231829  0.04433759  0.08029484  1
  Si  Si41  1  0.20045255  0.34058835  0.07781978  1
  Si  Si42  1  0.51610874  0.37172804  0.91610657  1
  Si  Si43  1  0.17424082  0.95110102  0.91249082  1
  Si  Si44  1  0.01426269  0.65909472  0.41657677  1
  S  S45  1  0.35220855  0.71344142  0.25132234  1
  S  S46  1  0.85673182  0.71554576  0.25215009  1
  S  S47  1  0.00244382  0.28442074  0.25410093  1
  S  S48  1  0.50350246  0.72198926  0.75396500  1
  S  S49  1  0.35745448  0.99887701  0.75043556  1
  S  S50  1  0.85184492  0.98920975  0.75180223  1
  S  S51  1  0.97571329  0.32049290  0.58327269  1
  S  S52  1  0.18618331  0.04939607  0.58165655  1
  S  S53  1  0.84000712  0.63114935  0.58245190  1
  S  S54  1  0.47486026  0.63055121  0.08284155  1
  S  S55  1  0.34109520  0.04755372  0.08311708  1
  S  S56  1  0.68660818  0.32380479  0.08142166  1
  S  S57  1  0.31387171  0.67185285  0.91385116  1
  S  S58  1  0.80780190  0.65816564  0.91586437  1
  S  S59  1  0.01795990  0.37731331  0.91573597  1
  S  S60  1  0.66871190  0.95742240  0.91487876  1
  S  S61  1  0.30821479  0.95844162  0.41589981  1
  S  S62  1  0.81154744  0.95329894  0.41348432  1
  S  S63  1  0.16845849  0.37923818  0.41479565  1
  S  S64  1  0.67017110  0.38632559  0.41452723  1
  S  S65  1  0.52063604  0.65938110  0.41534055  1
  O  O66  1  0.10547738  0.04821436  0.31071890  1
  O  O67  1  0.59334642  0.02876357  0.30677119  1
  O  O68  1  0.41154256  0.79658770  0.30440021  1
  O  O69  1  0.91136000  0.78990503  0.30618113  1
  O  O70  1  0.48045147  0.16012172  0.30699229  1
  O  O71  1  0.98214014  0.17319486  0.30716582  1
  O  O72  1  0.09379948  0.16102808  0.80691425  1
  O  O73  1  0.60208841  0.15897399  0.81039232  1
  O  O74  1  0.48287013  0.79247372  0.80659585  1
  O  O75  1  0.97932931  0.80002049  0.80582383  1
  O  O76  1  0.41169584  0.03617107  0.80419674  1
  O  O77  1  0.90963275  0.02726077  0.80338095  1
  O  O78  1  0.40100509  0.97885256  0.69704860  1
  O  O79  1  0.89042438  0.96595640  0.69628184  1
  O  O80  1  0.08714917  0.22426822  0.69069606  1
  O  O81  1  0.58098025  0.19039705  0.69461394  1
  O  O82  1  0.01142977  0.82391261  0.68754650  1
  O  O83  1  0.51000384  0.81752497  0.69892272  1
  O  O84  1  0.39121223  0.81642487  0.19737572  1
  O  O85  1  0.89630696  0.82198331  0.19903184  1
  O  O86  1  0.00951981  0.20186551  0.19959481  1
  O  O87  1  0.51270551  0.19974997  0.18951315  1
  O  O88  1  0.07987697  0.96994080  0.19528087  1
  O  O89  1  0.58536051  0.95897988  0.19047839  1
  O  O90  1  0.42784807  0.36352753  0.63884054  1
  O  O91  1  0.93937537  0.35894631  0.63624981  1
  O  O92  1  0.24040740  0.12668375  0.63502300  1
  O  O93  1  0.75882522  0.14842722  0.63680268  1
  O  O94  1  0.31266901  0.49146827  0.64012366  1
  O  O95  1  0.82256201  0.51864285  0.63543358  1
  O  O96  1  0.43977078  0.52203647  0.13731267  1
  O  O97  1  0.92578483  0.49391025  0.13968403  1
  O  O98  1  0.32610491  0.13110445  0.13717911  1
  O  O99  1  0.81247523  0.13196162  0.14057215  1
  O  O100  1  0.25758542  0.36899561  0.13887009  1
  O  O101  1  0.74003793  0.35231445  0.13561650  1
  O  O102  1  0.24392950  0.29876552  0.02383217  1
  O  O103  1  0.72681998  0.29987763  0.02772068  1
  O  O104  1  0.42347200  0.54945228  0.03034796  1
  O  O105  1  0.91312175  0.53806687  0.02169786  1
  O  O106  1  0.35694618  0.15464466  0.03045294  1
  O  O107  1  0.84965558  0.16169868  0.02316786  1
  O  O108  1  0.22613873  0.15184738  0.52718365  1
  O  O109  1  0.74070041  0.18453403  0.52073266  1
  O  O110  1  0.34976525  0.53818544  0.52245443  1
  O  O111  1  0.85517877  0.55404394  0.52897449  1
  O  O112  1  0.41432736  0.28942145  0.52055534  1
  O  O113  1  0.92406702  0.29715478  0.52928418  1
  O  O114  1  0.27151386  0.69686886  0.96854775  1
  O  O115  1  0.76657484  0.68241573  0.97097950  1
  O  O116  1  0.07102778  0.45450817  0.97079655  1
  O  O117  1  0.58235078  0.47351456  0.97422244  1
  O  O118  1  0.15860427  0.83384384  0.97334249  1
  O  O119  1  0.66096004  0.84710304  0.96900993  1
  O  O120  1  0.26773257  0.85195153  0.47090206  1
  O  O121  1  0.76858076  0.84248760  0.46819111  1
  O  O122  1  0.16054213  0.47412830  0.46892386  1
  O  O123  1  0.65691170  0.46550758  0.46943612  1
  O  O124  1  0.07930568  0.68621034  0.47468952  1
  O  O125  1  0.57474822  0.68595209  0.47000434  1
  O  O126  1  0.05686704  0.61755166  0.35992589  1
  O  O127  1  0.56434798  0.63627670  0.36373166  1
  O  O128  1  0.25598426  0.87174465  0.36330023  1
  O  O129  1  0.75670933  0.86523509  0.36195147  1
  O  O130  1  0.18423564  0.48846179  0.36196869  1
  O  O131  1  0.68049279  0.49290071  0.36261807  1
  O  O132  1  0.05979634  0.48383704  0.86361134  1
  O  O133  1  0.55966963  0.49734309  0.85941400  1
  O  O134  1  0.18482773  0.85434825  0.85673016  1
  O  O135  1  0.68485186  0.88019442  0.86172078  1
  O  O136  1  0.26112532  0.64477821  0.86165138  1
  O  O137  1  0.75484733  0.63699474  0.86305223  1
  O  O138  1  0.00750919  0.83879639  0.41454972  1
  O  O139  1  0.51180447  0.82044995  0.40998399  1
  O  O140  1  0.39718874  0.97254417  0.41119924  1
  O  O141  1  0.90095137  0.97429397  0.41013363  1
  O  O142  1  0.08419135  0.20822333  0.41402821  1
  O  O143  1  0.58567300  0.20675879  0.41011874  1
  O  O144  1  0.00576296  0.19586202  0.90992407  1
  O  O145  1  0.50982482  0.17903826  0.91461683  1
  O  O146  1  0.08072936  0.96112007  0.90835646  1
  O  O147  1  0.58494637  0.96009484  0.91405499  1
  O  O148  1  0.40406125  0.83389547  0.91011974  1
  O  O149  1  0.89537119  0.82203791  0.91136317  1
  O  O150  1  0.48633665  0.16488692  0.59122719  1
  O  O151  1  0.98586373  0.16361913  0.58969536  1
  O  O152  1  0.09652369  0.02273016  0.58738636  1
  O  O153  1  0.59973430  0.02679265  0.59142495  1
  O  O154  1  0.41518345  0.80573588  0.59916407  1
  O  O155  1  0.91285814  0.81197357  0.58994792  1
  O  O156  1  0.48625603  0.80973572  0.09073892  1
  O  O157  1  0.98596205  0.80783713  0.09181971  1
  O  O158  1  0.41591443  0.01683150  0.09199653  1
  O  O159  1  0.91582801  0.02567961  0.09972928  1
  O  O160  1  0.10099996  0.17538690  0.09243961  1
  O  O161  1  0.59663453  0.16994160  0.08724681  1
  O  O162  1  0.34765816  0.16092150  0.74230668  1
  O  O163  1  0.84741392  0.16065381  0.74528499  1
  O  O164  1  0.23873177  0.29989635  0.74313148  1
  O  O165  1  0.73729634  0.30609077  0.74153409  1
  O  O166  1  0.42242305  0.53317506  0.74714957  1
  O  O167  1  0.91418053  0.51919785  0.73961608  1
  O  O168  1  0.34950239  0.53728876  0.24663437  1
  O  O169  1  0.84696830  0.53475595  0.24472142  1
  O  O170  1  0.41673634  0.31701891  0.24181711  1
  O  O171  1  0.92220929  0.31239080  0.24751955  1
  O  O172  1  0.23906074  0.16903693  0.24071387  1
  O  O173  1  0.73903134  0.18605457  0.24515318  1
  O  O174  1  0.32461647  0.51510453  0.92158549  1
  O  O175  1  0.81750020  0.49991572  0.92171304  1
  O  O176  1  0.42398136  0.36465947  0.92809102  1
  O  O177  1  0.92808959  0.35925178  0.92092751  1
  O  O178  1  0.25358675  0.14955561  0.91702399  1
  O  O179  1  0.74598770  0.13938828  0.92248512  1
  O  O180  1  0.31845144  0.13663921  0.42174833  1
  O  O181  1  0.81776396  0.12798940  0.42026688  1
  O  O182  1  0.24555768  0.35162683  0.42233773  1
  O  O183  1  0.74509576  0.35734430  0.41962633  1
  O  O184  1  0.43131671  0.50096622  0.42050252  1
  O  O185  1  0.91760557  0.48330425  0.42609539  1
  O  O186  1  0.18820440  0.51083339  0.06873115  1
  O  O187  1  0.68021327  0.48913490  0.07595778  1
  O  O188  1  0.06921803  0.63118065  0.07381932  1
  O  O189  1  0.56679183  0.65212366  0.07526307  1
  O  O190  1  0.25783916  0.87156411  0.07781853  1
  O  O191  1  0.74636226  0.84906063  0.07119774  1
  O  O192  1  0.18004425  0.87057933  0.57474715  1
  O  O193  1  0.68663464  0.86667389  0.56838977  1
  O  O194  1  0.24612830  0.64235526  0.57021704  1
  O  O195  1  0.75529511  0.63862209  0.57350963  1
  O  O196  1  0.06649188  0.48217859  0.57449670  1
  O  O197  1  0.57088094  0.50331247  0.56960959  1
  O  O198  1  0.15766606  0.82768684  0.25808607  1
  O  O199  1  0.66344307  0.84279723  0.26329580  1
  O  O200  1  0.26453142  0.68419002  0.26293945  1
  O  O201  1  0.76847813  0.69253383  0.26030922  1
  O  O202  1  0.08287148  0.45836377  0.25908006  1
  O  O203  1  0.59017975  0.47430876  0.26371670  1
  O  O204  1  0.16462955  0.49237118  0.76701942  1
  O  O205  1  0.65737123  0.48717758  0.75761260  1
  O  O206  1  0.08573170  0.69124153  0.75708285  1
  O  O207  1  0.58299402  0.70709672  0.75848150  1
  O  O208  1  0.27090000  0.84299294  0.75479005  1
  O  O209  1  0.76288813  0.84374936  0.76067630  1
