# generated using pymatgen
data_Na3Ta2Nb2Si5PO24
_symmetry_space_group_name_H-M   'P 1'
_cell_length_a   8.93842056
_cell_length_b   8.89757132
_cell_length_c   22.89449457
_cell_angle_alpha   89.93177823
_cell_angle_beta   90.24784245
_cell_angle_gamma   119.82061563
_symmetry_Int_Tables_number   1
_chemical_formula_structural   Na3Ta2Nb2Si5PO24
_chemical_formula_sum   'Na9 Ta6 Nb6 Si15 P3 O72'
_cell_volume   1579.68982045
_cell_formula_units_Z   3
loop_
 _symmetry_equiv_pos_site_id
 _symmetry_equiv_pos_as_xyz
  1  'x, y, z'
loop_
 _atom_site_type_symbol
 _atom_site_label
 _atom_site_symmetry_multiplicity
 _atom_site_fract_x
 _atom_site_fract_y
 _atom_site_fract_z
 _atom_site_occupancy
  Na  Na0  1  0.99993301  0.63377439  0.24994874  1
  Na  Na1  1  0.99982274  0.36409164  0.75017924  1
  Na  Na2  1  0.66728249  0.96837710  0.58341027  1
  Na  Na3  1  0.00662683  0.99943771  0.49912561  1
  Na  Na4  1  0.00121983  0.00014377  0.99998830  1
  Na  Na5  1  0.65960409  0.33161809  0.83414072  1
  Na  Na6  1  0.66046503  0.32524892  0.33432999  1
  Na  Na7  1  0.34103739  0.66567346  0.16584375  1
  Na  Na8  1  0.33426608  0.66567711  0.66667204  1
  Ta  Ta9  1  0.99740034  0.99817741  0.35479947  1
  Ta  Ta10  1  0.00368378  0.00268431  0.85486812  1
  Ta  Ta11  1  0.00307440  0.99909556  0.64521866  1
  Ta  Ta12  1  0.00222374  0.00085898  0.14503835  1
  Ta  Ta13  1  0.66301429  0.33333233  0.68808268  1
  Ta  Ta14  1  0.66925750  0.33374321  0.47857054  1
  Nb  Nb15  1  0.66397200  0.33407144  0.18820282  1
  Nb  Nb16  1  0.66572293  0.33480112  0.97835441  1
  Nb  Nb17  1  0.32305882  0.66096022  0.02176477  1
  Nb  Nb18  1  0.32986716  0.66751161  0.52131394  1
  Nb  Nb19  1  0.33583606  0.67040267  0.31190899  1
  Nb  Nb20  1  0.33537194  0.67380834  0.81196982  1
  Si  Si21  1  0.28810980  0.00503718  0.25076092  1
  Si  Si22  1  0.71173314  0.71669896  0.24923056  1
  Si  Si23  1  0.00016567  0.28485555  0.24995283  1
  Si  Si24  1  0.28977044  0.28595412  0.75035569  1
  Si  Si25  1  0.99760519  0.71312573  0.75071729  1
  Si  Si26  1  0.71254563  0.99679934  0.74938114  1
  Si  Si27  1  0.95552405  0.33619212  0.58433629  1
  Si  Si28  1  0.37775329  0.05009391  0.58245515  1
  Si  Si29  1  0.66698079  0.61967209  0.58266498  1
  Si  Si30  1  0.95277379  0.62233232  0.08386499  1
  Si  Si31  1  0.37727960  0.33264507  0.08258259  1
  Si  Si32  1  0.04328011  0.37690791  0.91568177  1
  Si  Si33  1  0.33264721  0.95648101  0.91755900  1
  Si  Si34  1  0.62349061  0.95656227  0.41758482  1
  Si  Si35  1  0.04260751  0.66630945  0.41567144  1
  P  P36  1  0.66725078  0.04603378  0.08304275  1
  P  P37  1  0.62015517  0.66919870  0.91718096  1
  P  P38  1  0.33323360  0.37862161  0.41668642  1
  O  O39  1  0.19515127  0.02997313  0.30790833  1
  O  O40  1  0.83874516  0.80352686  0.30624386  1
  O  O41  1  0.97153936  0.16521692  0.30738012  1
  O  O42  1  0.19429547  0.16455732  0.80741183  1
  O  O43  1  0.96963423  0.80451642  0.80769491  1
  O  O44  1  0.83877602  0.03382294  0.80596235  1
  O  O45  1  0.80049100  0.97126213  0.69024784  1
  O  O46  1  0.16164658  0.19690209  0.69370828  1
  O  O47  1  0.02898714  0.83401199  0.69310565  1
  O  O48  1  0.80483709  0.83487021  0.19207047  1
  O  O49  1  0.02847831  0.19361181  0.19263768  1
  O  O50  1  0.16122251  0.96482032  0.19374073  1
  O  O51  1  0.86737370  0.36293939  0.64306498  1
  O  O52  1  0.50501232  0.13609454  0.63948402  1
  O  O53  1  0.63840787  0.49886791  0.64029658  1
  O  O54  1  0.86782050  0.50462302  0.14255125  1
  O  O55  1  0.64043866  0.13270426  0.13781250  1
  O  O56  1  0.50032261  0.35837143  0.13991065  1
  O  O57  1  0.47240217  0.30414651  0.02606860  1
  O  O58  1  0.83248776  0.52425120  0.02695362  1
  O  O59  1  0.69440188  0.16023463  0.02843648  1
  O  O60  1  0.47210877  0.16819809  0.52541653  1
  O  O61  1  0.69560028  0.52779121  0.52575782  1
  O  O62  1  0.82756649  0.29914213  0.52774734  1
  O  O63  1  0.53495779  0.69456309  0.97161140  1
  O  O64  1  0.16825971  0.47203789  0.97292443  1
  O  O65  1  0.30888860  0.83366853  0.97387551  1
  O  O66  1  0.53397153  0.83775945  0.47587815  1
  O  O67  1  0.30680557  0.46551088  0.47137167  1
  O  O68  1  0.16710246  0.69129839  0.47251154  1
  O  O69  1  0.13237886  0.63706594  0.35751460  1
  O  O70  1  0.49922201  0.85723126  0.36072506  1
  O  O71  1  0.35973422  0.49196860  0.36197927  1
  O  O72  1  0.13538887  0.49493014  0.85768005  1
  O  O73  1  0.36200046  0.86215040  0.86008483  1
  O  O74  1  0.50698423  0.63976901  0.86190407  1
  O  O75  1  0.02848827  0.84172107  0.41027623  1
  O  O76  1  0.81477259  0.97771327  0.40946277  1
  O  O77  1  0.17093514  0.19780325  0.40986728  1
  O  O78  1  0.02197200  0.18416590  0.91024310  1
  O  O79  1  0.15895435  0.97123597  0.91021065  1
  O  O80  1  0.80150070  0.82944448  0.90927243  1
  O  O81  1  0.96555174  0.15768504  0.59010090  1
  O  O82  1  0.18663288  0.02646100  0.59004939  1
  O  O83  1  0.83331323  0.81546076  0.59003991  1
  O  O84  1  0.97210449  0.81372278  0.08966956  1
  O  O85  1  0.83047427  0.02882905  0.09014883  1
  O  O86  1  0.18588092  0.16347345  0.09045701  1
  O  O87  1  0.70018340  0.17418509  0.74299722  1
  O  O88  1  0.47957505  0.30535586  0.74331980  1
  O  O89  1  0.83334994  0.51660778  0.74346789  1
  O  O90  1  0.70106821  0.52677590  0.24285624  1
  O  O91  1  0.83316137  0.31366115  0.24279640  1
  O  O92  1  0.48079091  0.16983879  0.24267435  1
  O  O93  1  0.63934954  0.50480466  0.92337709  1
  O  O94  1  0.85366719  0.35894963  0.92467120  1
  O  O95  1  0.50435149  0.14718814  0.92393842  1
  O  O96  1  0.63831123  0.14655559  0.42308181  1
  O  O97  1  0.49572241  0.36021230  0.42351210  1
  O  O98  1  0.85169247  0.49607799  0.42385838  1
  O  O99  1  0.36468412  0.50902203  0.07609077  1
  O  O100  1  0.14632486  0.64416379  0.07624425  1
  O  O101  1  0.50663301  0.86477161  0.07595006  1
  O  O102  1  0.36652145  0.85975042  0.57609033  1
  O  O103  1  0.49944721  0.64742595  0.57623721  1
  O  O104  1  0.14718693  0.50328551  0.57583464  1
  O  O105  1  0.29906184  0.82580583  0.25711986  1
  O  O106  1  0.51919521  0.68931321  0.25737968  1
  O  O107  1  0.16693356  0.48057853  0.25725271  1
  O  O108  1  0.30157609  0.47451344  0.75772134  1
  O  O109  1  0.16649932  0.68526216  0.75697294  1
  O  O110  1  0.52171132  0.82679109  0.75697643  1
