# generated using pymatgen
data_Na3Ca2Nb4(PO4)9
_symmetry_space_group_name_H-M   'P 1'
_cell_length_a   8.91285096
_cell_length_b   8.91285066
_cell_length_c   23.16209229
_cell_angle_alpha   90.00000000
_cell_angle_beta   90.00000000
_cell_angle_gamma   120.00000110
_symmetry_Int_Tables_number   1
_chemical_formula_structural   Na3Ca2Nb4(PO4)9
_chemical_formula_sum   'Na6 Ca4 Nb8 P18 O72'
_cell_volume   1593.46191852
_cell_formula_units_Z   2
loop_
 _symmetry_equiv_pos_site_id
 _symmetry_equiv_pos_as_xyz
  1  'x, y, z'
loop_
 _atom_site_type_symbol
 _atom_site_label
 _atom_site_symmetry_multiplicity
 _atom_site_fract_x
 _atom_site_fract_y
 _atom_site_fract_z
 _atom_site_occupancy
  Na  Na0  1  -0.00000000  0.00000000  0.49588776  1
  Na  Na1  1  -0.00000000  0.00000000  0.99588776  1
  Na  Na2  1  0.66666700  0.33333300  0.82253185  1
  Na  Na3  1  0.66666700  0.33333300  0.32253185  1
  Na  Na4  1  0.33333300  0.66666700  0.16788217  1
  Na  Na5  1  0.33333300  0.66666700  0.66788217  1
  Ca  Ca6  1  -0.00000000  0.00000000  0.35894386  1
  Ca  Ca7  1  -0.00000000  0.00000000  0.85894386  1
  Ca  Ca8  1  0.66666700  0.33333300  0.68139090  1
  Ca  Ca9  1  0.66666700  0.33333300  0.18139090  1
  Nb  Nb10  1  -0.00000000  0.00000000  0.65028898  1
  Nb  Nb11  1  -0.00000000  0.00000000  0.15028898  1
  Nb  Nb12  1  0.66666700  0.33333300  0.97999215  1
  Nb  Nb13  1  0.66666700  0.33333300  0.47999215  1
  Nb  Nb14  1  0.33333300  0.66666700  0.01964667  1
  Nb  Nb15  1  0.33333300  0.66666700  0.51964667  1
  Nb  Nb16  1  0.33333300  0.66666700  0.31024729  1
  Nb  Nb17  1  0.33333300  0.66666700  0.81024729  1
  P  P18  1  0.29063445  0.99695292  0.25253025  1
  P  P19  1  0.70631847  0.70936555  0.25253025  1
  P  P20  1  0.00304708  0.29368153  0.25253025  1
  P  P21  1  0.29063445  0.29368153  0.75253025  1
  P  P22  1  0.00304708  0.70936555  0.75253025  1
  P  P23  1  0.70631847  0.99695292  0.75253025  1
  P  P24  1  0.96100892  0.32970460  0.58191037  1
  P  P25  1  0.36869669  0.03899108  0.58191037  1
  P  P26  1  0.67029540  0.63130331  0.58191037  1
  P  P27  1  0.96100892  0.63130331  0.08191037  1
  P  P28  1  0.67029540  0.03899108  0.08191037  1
  P  P29  1  0.36869669  0.32970460  0.08191037  1
  P  P30  1  0.61247266  0.65721910  0.91833777  1
  P  P31  1  0.04474544  0.38752734  0.91833777  1
  P  P32  1  0.34278090  0.95525456  0.91833777  1
  P  P33  1  0.61247266  0.95525456  0.41833777  1
  P  P34  1  0.34278090  0.38752734  0.41833777  1
  P  P35  1  0.04474544  0.65721910  0.41833777  1
  O  O36  1  0.20729165  0.01476142  0.30548416  1
  O  O37  1  0.80746977  0.79270835  0.30548416  1
  O  O38  1  0.98523858  0.19253023  0.30548416  1
  O  O39  1  0.20729165  0.19253023  0.80548416  1
  O  O40  1  0.98523858  0.79270835  0.80548416  1
  O  O41  1  0.80746977  0.01476142  0.80548416  1
  O  O42  1  0.80260312  0.97147997  0.69607407  1
  O  O43  1  0.16887685  0.19739688  0.69607407  1
  O  O44  1  0.02852003  0.83112315  0.69607407  1
  O  O45  1  0.80260312  0.83112315  0.19607407  1
  O  O46  1  0.02852003  0.19739688  0.19607407  1
  O  O47  1  0.16887685  0.97147997  0.19607407  1
  O  O48  1  0.90529155  0.37802751  0.63579690  1
  O  O49  1  0.47273697  0.09470845  0.63579690  1
  O  O50  1  0.62197249  0.52726303  0.63579690  1
  O  O51  1  0.90529155  0.52726303  0.13579690  1
  O  O52  1  0.62197249  0.09470845  0.13579690  1
  O  O53  1  0.47273697  0.37802751  0.13579690  1
  O  O54  1  0.46721599  0.30602459  0.02894609  1
  O  O55  1  0.83880959  0.53278401  0.02894609  1
  O  O56  1  0.69397541  0.16119041  0.02894609  1
  O  O57  1  0.46721599  0.16119041  0.52894609  1
  O  O58  1  0.69397541  0.53278401  0.52894609  1
  O  O59  1  0.83880959  0.30602459  0.52894609  1
  O  O60  1  0.50960436  0.66457174  0.97084467  1
  O  O61  1  0.15496638  0.49039564  0.97084467  1
  O  O62  1  0.33542826  0.84503362  0.97084467  1
  O  O63  1  0.50960436  0.84503362  0.47084467  1
  O  O64  1  0.33542826  0.49039564  0.47084467  1
  O  O65  1  0.15496638  0.66457174  0.47084467  1
  O  O66  1  0.13292563  0.63476737  0.36301850  1
  O  O67  1  0.50184074  0.86707437  0.36301850  1
  O  O68  1  0.36523263  0.49815926  0.36301850  1
  O  O69  1  0.13292563  0.49815926  0.86301850  1
  O  O70  1  0.36523263  0.86707437  0.86301850  1
  O  O71  1  0.50184074  0.63476737  0.86301850  1
  O  O72  1  0.02513643  0.81426255  0.42029851  1
  O  O73  1  0.78912612  0.97486357  0.42029851  1
  O  O74  1  0.18573745  0.21087388  0.42029851  1
  O  O75  1  0.02513643  0.21087388  0.92029851  1
  O  O76  1  0.18573745  0.97486357  0.92029851  1
  O  O77  1  0.78912612  0.81426255  0.92029851  1
  O  O78  1  0.97743544  0.16427088  0.58760597  1
  O  O79  1  0.18683544  0.02256456  0.58760597  1
  O  O80  1  0.83572912  0.81316456  0.58760597  1
  O  O81  1  0.97743544  0.81316456  0.08760597  1
  O  O82  1  0.83572912  0.02256456  0.08760597  1
  O  O83  1  0.18683544  0.16427088  0.08760597  1
  O  O84  1  0.66950406  0.14078587  0.74320841  1
  O  O85  1  0.47128281  0.33049594  0.74320841  1
  O  O86  1  0.85921413  0.52871719  0.74320841  1
  O  O87  1  0.66950406  0.52871719  0.24320841  1
  O  O88  1  0.85921413  0.33049594  0.24320841  1
  O  O89  1  0.47128281  0.14078587  0.24320841  1
  O  O90  1  0.62235718  0.48632427  0.92624973  1
  O  O91  1  0.86396809  0.37764282  0.92624973  1
  O  O92  1  0.51367573  0.13603191  0.92624973  1
  O  O93  1  0.62235718  0.13603191  0.42624973  1
  O  O94  1  0.51367573  0.37764282  0.42624973  1
  O  O95  1  0.86396809  0.48632427  0.42624973  1
  O  O96  1  0.33670750  0.48391102  0.06740167  1
  O  O97  1  0.14720252  0.66329250  0.06740167  1
  O  O98  1  0.51608898  0.85279748  0.06740167  1
  O  O99  1  0.33670750  0.85279748  0.56740167  1
  O  O100  1  0.51608898  0.66329250  0.56740167  1
  O  O101  1  0.14720252  0.48391102  0.56740167  1
  O  O102  1  0.29281949  0.81787382  0.25668904  1
  O  O103  1  0.52505332  0.70718051  0.25668904  1
  O  O104  1  0.18212618  0.47494668  0.25668904  1
  O  O105  1  0.29281949  0.47494668  0.75668904  1
  O  O106  1  0.18212618  0.70718051  0.75668904  1
  O  O107  1  0.52505332  0.81787382  0.75668904  1
