# generated using pymatgen
data_Na18Ca4Ta20Si27(SO16)9
_symmetry_space_group_name_H-M   'P 1'
_cell_length_a   17.99393431
_cell_length_b   8.99835525
_cell_length_c   22.91241289
_cell_angle_alpha   90.07609999
_cell_angle_beta   90.09513453
_cell_angle_gamma   120.06341203
_symmetry_Int_Tables_number   1
_chemical_formula_structural   Na18Ca4Ta20Si27(SO16)9
_chemical_formula_sum   'Na18 Ca4 Ta20 Si27 S9 O144'
_cell_volume   3210.78268093
_cell_formula_units_Z   1
loop_
 _symmetry_equiv_pos_site_id
 _symmetry_equiv_pos_as_xyz
  1  'x, y, z'
loop_
 _atom_site_type_symbol
 _atom_site_label
 _atom_site_symmetry_multiplicity
 _atom_site_fract_x
 _atom_site_fract_y
 _atom_site_fract_z
 _atom_site_occupancy
  Na  Na0  1  0.31538773  0.01777756  0.24189590  1
  Na  Na1  1  0.81550750  0.01384721  0.25252664  1
  Na  Na2  1  0.99359821  0.61758708  0.24184663  1
  Na  Na3  1  0.31641842  0.61699208  0.75483348  1
  Na  Na4  1  0.81517421  0.61280209  0.74586045  1
  Na  Na5  1  0.49305547  0.36962731  0.74380118  1
  Na  Na6  1  0.99397704  0.99462416  0.49498492  1
  Na  Na7  1  0.50100050  0.00305719  0.49877352  1
  Na  Na8  1  0.00099203  0.99959342  0.00091419  1
  Na  Na9  1  0.49283609  0.98748492  0.99814004  1
  Na  Na10  1  0.32533025  0.32024241  0.82867930  1
  Na  Na11  1  0.83286057  0.33258539  0.82702858  1
  Na  Na12  1  0.33478818  0.33612741  0.32350691  1
  Na  Na13  1  0.82617088  0.33005507  0.32317489  1
  Na  Na14  1  0.16453122  0.66712086  0.15905446  1
  Na  Na15  1  0.65167658  0.65058835  0.16950200  1
  Na  Na16  1  0.16180564  0.66623112  0.67483760  1
  Na  Na17  1  0.66151612  0.65874052  0.66164938  1
  Ca  Ca18  1  0.33249903  0.32731001  0.68721637  1
  Ca  Ca19  1  0.83287212  0.33791770  0.68528220  1
  Ca  Ca20  1  0.33769729  0.33448732  0.18385519  1
  Ca  Ca21  1  0.83207343  0.33696976  0.18643990  1
  Ta  Ta22  1  0.99895697  0.00141285  0.35716599  1
  Ta  Ta23  1  0.50594608  0.01072652  0.35836881  1
  Ta  Ta24  1  0.00685226  0.00088325  0.86030700  1
  Ta  Ta25  1  0.49894580  0.99605703  0.85804181  1
  Ta  Ta26  1  0.00204995  0.99066250  0.64812215  1
  Ta  Ta27  1  0.50124452  0.01443543  0.65101849  1
  Ta  Ta28  1  0.00186542  0.98979390  0.15031462  1
  Ta  Ta29  1  0.50284923  0.00505596  0.14317414  1
  Ta  Ta30  1  0.34087808  0.33902554  0.97835749  1
  Ta  Ta31  1  0.83993662  0.34971571  0.97469506  1
  Ta  Ta32  1  0.34081879  0.33246989  0.47408936  1
  Ta  Ta33  1  0.83327541  0.34365278  0.47505057  1
  Ta  Ta34  1  0.16719032  0.67436036  0.01668817  1
  Ta  Ta35  1  0.66347698  0.66900216  0.01480133  1
  Ta  Ta36  1  0.16717153  0.66501180  0.51325141  1
  Ta  Ta37  1  0.66658820  0.65944567  0.51658537  1
  Ta  Ta38  1  0.16258922  0.65917902  0.31421844  1
  Ta  Ta39  1  0.66394914  0.66422966  0.31060515  1
  Ta  Ta40  1  0.16493077  0.66568356  0.81312588  1
  Ta  Ta41  1  0.66186674  0.66481534  0.81551463  1
  Si  Si42  1  0.14504914  0.00015682  0.25576247  1
  Si  Si43  1  0.63989002  0.99166611  0.25125659  1
  Si  Si44  1  0.85364365  0.71443849  0.25360495  1
  Si  Si45  1  0.00582298  0.28709590  0.25045584  1
  Si  Si46  1  0.50251536  0.28845914  0.25206613  1
  Si  Si47  1  0.13971489  0.29013173  0.75185857  1
  Si  Si48  1  0.64473446  0.29066754  0.75610872  1
  Si  Si49  1  0.00321958  0.71193494  0.75482405  1
  Si  Si50  1  0.50658171  0.72494226  0.75015443  1
  Si  Si51  1  0.35336561  0.99315611  0.75430809  1
  Si  Si52  1  0.48238059  0.33203297  0.58510341  1
  Si  Si53  1  0.83324126  0.63330144  0.58465743  1
  Si  Si54  1  0.48370102  0.63097826  0.08419908  1
  Si  Si55  1  0.98254718  0.63197634  0.08532162  1
  Si  Si56  1  0.33185779  0.03602702  0.08513248  1
  Si  Si57  1  0.30928296  0.66079692  0.91580783  1
  Si  Si58  1  0.81052746  0.67095282  0.91541843  1
  Si  Si59  1  0.02483888  0.37995962  0.91660821  1
  Si  Si60  1  0.52092895  0.37256045  0.91645789  1
  Si  Si61  1  0.17225214  0.96048193  0.91600387  1
  Si  Si62  1  0.66875480  0.96259041  0.91621168  1
  Si  Si63  1  0.31175438  0.95306693  0.41398530  1
  Si  Si64  1  0.80947206  0.95499367  0.41595247  1
  Si  Si65  1  0.16830194  0.37425017  0.41629606  1
  Si  Si66  1  0.66813099  0.38371248  0.41447577  1
  Si  Si67  1  0.02146056  0.66890212  0.41625381  1
  Si  Si68  1  0.52595650  0.67215047  0.41622083  1
  S  S69  1  0.35734818  0.72145693  0.25230378  1
  S  S70  1  0.85791648  0.99303978  0.75182036  1
  S  S71  1  0.98434536  0.33549749  0.58097033  1
  S  S72  1  0.18373641  0.03245410  0.58069875  1
  S  S73  1  0.68482494  0.03661861  0.58087568  1
  S  S74  1  0.33220553  0.63044714  0.58106120  1
  S  S75  1  0.83393948  0.03559329  0.08098112  1
  S  S76  1  0.18375146  0.33232502  0.08159474  1
  S  S77  1  0.68593712  0.33703231  0.08035906  1
  O  O78  1  0.08906098  0.00192040  0.31094425  1
  O  O79  1  0.58688453  0.00128751  0.30824208  1
  O  O80  1  0.40772377  0.80810121  0.30537904  1
  O  O81  1  0.91349721  0.82166585  0.30938728  1
  O  O82  1  0.49473427  0.16464791  0.30808235  1
  O  O83  1  0.99812063  0.17252405  0.30783732  1
  O  O84  1  0.08532239  0.16865406  0.80695328  1
  O  O85  1  0.58969396  0.17632840  0.81064967  1
  O  O86  1  0.49824270  0.82443147  0.80690062  1
  O  O87  1  0.99159281  0.82051756  0.80763883  1
  O  O88  1  0.41420613  0.00657731  0.80890163  1
  O  O89  1  0.90786839  0.00909823  0.80446110  1
  O  O90  1  0.40341823  0.97014290  0.69395367  1
  O  O91  1  0.90050069  0.97045010  0.69722516  1
  O  O92  1  0.08073335  0.18974355  0.69164430  1
  O  O93  1  0.58279383  0.20092881  0.69549011  1
  O  O94  1  0.01115930  0.83174788  0.69386987  1
  O  O95  1  0.51723608  0.84145332  0.69045906  1
  O  O96  1  0.39771709  0.82606003  0.19824015  1
  O  O97  1  0.90372725  0.83756075  0.19415014  1
  O  O98  1  0.01656845  0.19274452  0.19134298  1
  O  O99  1  0.51054084  0.18553463  0.19364121  1
  O  O100  1  0.08249511  0.96501381  0.19579570  1
  O  O101  1  0.58205614  0.97483827  0.19244179  1
  O  O102  1  0.45316690  0.36788365  0.64618390  1
  O  O103  1  0.95185283  0.36609698  0.63481167  1
  O  O104  1  0.23126446  0.09646132  0.63490716  1
  O  O105  1  0.73286819  0.10212361  0.63487876  1
  O  O106  1  0.31487001  0.53740183  0.63617944  1
  O  O107  1  0.81558531  0.54031900  0.64609283  1
  O  O108  1  0.45435436  0.52857237  0.14296208  1
  O  O109  1  0.95319912  0.53841977  0.14649586  1
  O  O110  1  0.30805153  0.08233531  0.14658244  1
  O  O111  1  0.81732092  0.09525957  0.13643649  1
  O  O112  1  0.23069832  0.36172848  0.13556807  1
  O  O113  1  0.73259387  0.36574992  0.13426814  1
  O  O114  1  0.22720086  0.30785593  0.03013571  1
  O  O115  1  0.72850295  0.30968420  0.02908347  1
  O  O116  1  0.42008705  0.53045700  0.02685438  1
  O  O117  1  0.91416109  0.51938351  0.03015248  1
  O  O118  1  0.34417247  0.16932323  0.03020899  1
  O  O119  1  0.84182719  0.14937498  0.03121943  1
  O  O120  1  0.22529330  0.14133354  0.52945285  1
  O  O121  1  0.73144528  0.15094288  0.53020586  1
  O  O122  1  0.33956464  0.53317165  0.53104849  1
  O  O123  1  0.84547837  0.52137349  0.53002311  1
  O  O124  1  0.41399815  0.30909955  0.53002529  1
  O  O125  1  0.92925202  0.31315131  0.52957609  1
  O  O126  1  0.26068349  0.68922576  0.97040019  1
  O  O127  1  0.76364536  0.69306812  0.97223619  1
  O  O128  1  0.08309573  0.46675949  0.97342331  1
  O  O129  1  0.58336905  0.47529954  0.97153214  1
  O  O130  1  0.15342756  0.83594744  0.97186246  1
  O  O131  1  0.65552944  0.83678063  0.97153802  1
  O  O132  1  0.26166013  0.83397392  0.47151728  1
  O  O133  1  0.76102435  0.83130016  0.47116908  1
  O  O134  1  0.15552414  0.47519926  0.47293982  1
  O  O135  1  0.65363740  0.46997389  0.47221776  1
  O  O136  1  0.08267696  0.68762790  0.47253812  1
  O  O137  1  0.58340504  0.69825493  0.47365467  1
  O  O138  1  0.06694066  0.63478490  0.35919406  1
  O  O139  1  0.56860647  0.63450546  0.35969592  1
  O  O140  1  0.25115157  0.86380133  0.35703671  1
  O  O141  1  0.75138148  0.87165805  0.35694203  1
  O  O142  1  0.18353016  0.50204666  0.36075724  1
  O  O143  1  0.68440915  0.50349231  0.35833662  1
  O  O144  1  0.06773137  0.50165762  0.85934678  1
  O  O145  1  0.56696899  0.49725895  0.85841855  1
  O  O146  1  0.18315148  0.86466104  0.85874494  1
  O  O147  1  0.68386812  0.86630614  0.85956452  1
  O  O148  1  0.25125227  0.63444874  0.85630180  1
  O  O149  1  0.75158066  0.63980165  0.85656551  1
  O  O150  1  0.01141156  0.83561922  0.41315091  1
  O  O151  1  0.50849349  0.83146011  0.40926213  1
  O  O152  1  0.40557626  0.97291920  0.40984893  1
  O  O153  1  0.90555492  0.97938288  0.41073785  1
  O  O154  1  0.08287292  0.18900414  0.41205729  1
  O  O155  1  0.58429726  0.19029982  0.41053636  1
  O  O156  1  0.00835676  0.18572858  0.90814845  1
  O  O157  1  0.51183385  0.18613299  0.91211062  1
  O  O158  1  0.08488084  0.97770901  0.91015033  1
  O  O159  1  0.58340360  0.97707399  0.91053911  1
  O  O160  1  0.40503049  0.83060516  0.90958453  1
  O  O161  1  0.90562421  0.83760322  0.90802248  1
  O  O162  1  0.48986469  0.15302114  0.58704333  1
  O  O163  1  0.99419690  0.17982597  0.58473422  1
  O  O164  1  0.09552198  0.01605185  0.58601774  1
  O  O165  1  0.59812315  0.02301256  0.58402083  1
  O  O166  1  0.41106832  0.80259890  0.58334069  1
  O  O167  1  0.92245487  0.82961680  0.58923221  1
  O  O168  1  0.49391844  0.82588754  0.08862226  1
  O  O169  1  0.98967651  0.82558643  0.08756574  1
  O  O170  1  0.42156336  0.02352629  0.09040805  1
  O  O171  1  0.91382414  0.02414665  0.08376394  1
  O  O172  1  0.09550724  0.17214194  0.08551668  1
  O  O173  1  0.59780870  0.17804375  0.08429637  1
  O  O174  1  0.34980670  0.16513874  0.75284573  1
  O  O175  1  0.84687750  0.14073761  0.74592774  1
  O  O176  1  0.23467299  0.32059213  0.75074365  1
  O  O177  1  0.73816872  0.31468470  0.75437675  1
  O  O178  1  0.42230094  0.53858447  0.74989945  1
  O  O179  1  0.91830096  0.52959849  0.75296853  1
  O  O180  1  0.34380620  0.55029013  0.24917714  1
  O  O181  1  0.85053408  0.53567145  0.25300260  1
  O  O182  1  0.41736686  0.29973683  0.25525966  1
  O  O183  1  0.92202920  0.30604218  0.25096497  1
  O  O184  1  0.23792630  0.16187450  0.25508382  1
  O  O185  1  0.73563172  0.14962896  0.25173061  1
  O  O186  1  0.31801875  0.49070587  0.92710105  1
  O  O187  1  0.81996809  0.49788333  0.92547599  1
  O  O188  1  0.42809122  0.36069787  0.92387869  1
  O  O189  1  0.92813166  0.36005800  0.92664892  1
  O  O190  1  0.25364155  0.14996538  0.92649271  1
  O  O191  1  0.75387919  0.14882808  0.92945168  1
  O  O192  1  0.31939230  0.14165934  0.42620704  1
  O  O193  1  0.82059560  0.14582553  0.43171046  1
  O  O194  1  0.25338972  0.35942046  0.43077940  1
  O  O195  1  0.75191307  0.35778245  0.42609044  1
  O  O196  1  0.42874329  0.49726881  0.42690326  1
  O  O197  1  0.92842616  0.49380324  0.42692556  1
  O  O198  1  0.17037254  0.48200614  0.07230045  1
  O  O199  1  0.67326414  0.48699397  0.07083195  1
  O  O200  1  0.07682510  0.65637301  0.06966757  1
  O  O201  1  0.58183295  0.66171134  0.06992357  1
  O  O202  1  0.25376722  0.83963302  0.06922849  1
  O  O203  1  0.75914154  0.85808888  0.07097746  1
  O  O204  1  0.16912160  0.85377246  0.57177381  1
  O  O205  1  0.67213870  0.86151511  0.57162462  1
  O  O206  1  0.25586147  0.65720404  0.57129023  1
  O  O207  1  0.75368873  0.66714591  0.57003350  1
  O  O208  1  0.07343582  0.49044258  0.57206624  1
  O  O209  1  0.57699647  0.49676415  0.56967023  1
  O  O210  1  0.14845285  0.81653656  0.25882241  1
  O  O211  1  0.64517575  0.81380524  0.25646273  1
  O  O212  1  0.27205475  0.71835862  0.25628305  1
  O  O213  1  0.76314411  0.71572454  0.25573620  1
  O  O214  1  0.09361760  0.48002967  0.25686525  1
  O  O215  1  0.59217065  0.47287506  0.25750055  1
  O  O216  1  0.14413995  0.47686413  0.75596345  1
  O  O217  1  0.65001050  0.48208264  0.75776948  1
  O  O218  1  0.09334410  0.71282865  0.75647796  1
  O  O219  1  0.59405865  0.70654414  0.75598003  1
  O  O220  1  0.26294932  0.81012868  0.75525122  1
  O  O221  1  0.77332157  0.82794973  0.75375378  1
