# generated using pymatgen
data_MgNi2(BiO3)2
_symmetry_space_group_name_H-M   'P 1'
_cell_length_a   6.33819054
_cell_length_b   6.33480081
_cell_length_c   6.33397483
_cell_angle_alpha   52.55829081
_cell_angle_beta   52.47655884
_cell_angle_gamma   52.47127289
_symmetry_Int_Tables_number   1
_chemical_formula_structural   MgNi2(BiO3)2
_chemical_formula_sum   'Mg1 Ni2 Bi2 O6'
_cell_volume   148.17513518
_cell_formula_units_Z   1
loop_
 _symmetry_equiv_pos_site_id
 _symmetry_equiv_pos_as_xyz
  1  'x, y, z'
loop_
 _atom_site_type_symbol
 _atom_site_label
 _atom_site_symmetry_multiplicity
 _atom_site_fract_x
 _atom_site_fract_y
 _atom_site_fract_z
 _atom_site_occupancy
  Mg  Mg0  1  0.15075700  0.15241900  0.15250700  1
  Ni  Ni1  1  0.98271600  0.98237600  0.98005700  1
  Ni  Ni2  1  0.54989300  0.54918100  0.54876500  1
  Bi  Bi3  1  0.33578700  0.33603200  0.33510500  1
  Bi  Bi4  1  0.79460300  0.79536000  0.79492700  1
  O  O5  1  0.21363700  0.90153800  0.57435200  1
  O  O6  1  0.90135800  0.57625900  0.21143000  1
  O  O7  1  0.57854600  0.21257500  0.89966200  1
  O  O8  1  0.09089300  0.33796900  0.77755900  1
  O  O9  1  0.77680400  0.09150000  0.33821100  1
  O  O10  1  0.33825500  0.77804200  0.09025200  1
