# generated using pymatgen
data_Na6La4Si3(SO8)3
_symmetry_space_group_name_H-M   'P 1'
_cell_length_a   9.78485619
_cell_length_b   9.75701164
_cell_length_c   24.76888052
_cell_angle_alpha   89.86100291
_cell_angle_beta   90.13316293
_cell_angle_gamma   120.13545827
_symmetry_Int_Tables_number   1
_chemical_formula_structural   Na6La4Si3(SO8)3
_chemical_formula_sum   'Na18 La12 Si9 S9 O72'
_cell_volume   2045.08907898
_cell_formula_units_Z   3
loop_
 _symmetry_equiv_pos_site_id
 _symmetry_equiv_pos_as_xyz
  1  'x, y, z'
loop_
 _atom_site_type_symbol
 _atom_site_label
 _atom_site_symmetry_multiplicity
 _atom_site_fract_x
 _atom_site_fract_y
 _atom_site_fract_z
 _atom_site_occupancy
  Na  Na0  1  0.63108113  0.01052520  0.25651662  1
  Na  Na1  1  0.34547093  0.34625670  0.25322350  1
  Na  Na2  1  0.65202592  0.65046286  0.74005094  1
  Na  Na3  1  0.98108077  0.36639886  0.74740858  1
  Na  Na4  1  0.01504710  0.68144297  0.58974454  1
  Na  Na5  1  0.68365184  0.96798605  0.58206738  1
  Na  Na6  1  0.31734953  0.96939268  0.09355005  1
  Na  Na7  1  0.01654252  0.31538069  0.08227947  1
  Na  Na8  1  0.97067630  0.65338416  0.90293938  1
  Na  Na9  1  0.72148319  0.04842344  0.91062461  1
  Na  Na10  1  0.94549623  0.28167889  0.42095529  1
  Na  Na11  1  0.35270755  0.03281842  0.41302012  1
  Na  Na12  1  0.96936284  0.99437281  0.50815999  1
  Na  Na13  1  0.98836420  0.02007964  0.99740780  1
  Na  Na14  1  0.67793780  0.32880366  0.81955589  1
  Na  Na15  1  0.66989616  0.31860386  0.33474967  1
  Na  Na16  1  0.32832923  0.67753973  0.17560293  1
  Na  Na17  1  0.33316839  0.66487626  0.66379934  1
  La  La18  1  0.99023922  0.99808730  0.34816042  1
  La  La19  1  0.00111317  0.00827603  0.84348598  1
  La  La20  1  0.99226735  0.99674076  0.65154913  1
  La  La21  1  0.99475466  0.00042175  0.15508958  1
  La  La22  1  0.67503893  0.33754848  0.68033347  1
  La  La23  1  0.67286866  0.32238748  0.18559798  1
  La  La24  1  0.67295189  0.32826663  0.98404275  1
  La  La25  1  0.67323286  0.34054980  0.48947677  1
  La  La26  1  0.33960187  0.66033329  0.01435420  1
  La  La27  1  0.35080346  0.65912844  0.51922890  1
  La  La28  1  0.32799866  0.68016051  0.31643468  1
  La  La29  1  0.32087926  0.67134389  0.81236465  1
  Si  Si30  1  0.30127247  0.00322495  0.24886015  1
  Si  Si31  1  0.00657614  0.30371145  0.24945665  1
  Si  Si32  1  0.99417037  0.69592485  0.75128229  1
  Si  Si33  1  0.69654326  -0.00017212  0.75147077  1
  Si  Si34  1  0.97162069  0.33550957  0.58226347  1
  Si  Si35  1  0.67133099  0.63811595  0.58624526  1
  Si  Si36  1  0.66524253  0.02882095  0.08231895  1
  Si  Si37  1  0.03183546  0.36381275  0.91901094  1
  Si  Si38  1  0.63545086  0.97379634  0.41642357  1
  S  S39  1  0.69339925  0.69515688  0.24998879  1
  S  S40  1  0.30431744  0.30438684  0.75028791  1
  S  S41  1  0.36349091  0.02914895  0.58134701  1
  S  S42  1  0.97082332  0.63631582  0.08162470  1
  S  S43  1  0.36579348  0.33039022  0.08432580  1
  S  S44  1  0.63769083  0.66889400  0.91545787  1
  S  S45  1  0.33152964  0.96420422  0.91917104  1
  S  S46  1  0.33131266  0.36234470  0.41375562  1
  S  S47  1  0.03594786  0.66724085  0.41847136  1
  O  O48  1  0.21225343  0.01971629  0.30286350  1
  O  O49  1  0.79037847  0.76982182  0.29820588  1
  O  O50  1  0.97724667  0.18908356  0.30224403  1
  O  O51  1  0.22876638  0.21023881  0.79983790  1
  O  O52  1  0.98323262  0.78326666  0.80795172  1
  O  O53  1  0.80349090  0.02367542  0.80733822  1
  O  O54  1  0.78432145  0.97700024  0.69849371  1
  O  O55  1  0.20602857  0.22652283  0.70263371  1
  O  O56  1  0.01601496  0.80326942  0.69783783  1
  O  O57  1  0.77032109  0.79292133  0.20131861  1
  O  O58  1  0.02566993  0.21957001  0.19388192  1
  O  O59  1  0.19991135  0.98413747  0.19292824  1
  O  O60  1  0.88558619  0.35838248  0.63631338  1
  O  O61  1  0.46411331  0.11056523  0.62855241  1
  O  O62  1  0.64866979  0.53702923  0.64170224  1
  O  O63  1  0.88890362  0.53782106  0.12920260  1
  O  O64  1  0.63949462  0.11571767  0.13548438  1
  O  O65  1  0.45793131  0.35047457  0.13383775  1
  O  O66  1  0.44927454  0.31861825  0.03625331  1
  O  O67  1  0.87703858  0.56219659  0.03201310  1
  O  O68  1  0.68710347  0.14039027  0.02840326  1
  O  O69  1  0.43669942  0.12111869  0.53104430  1
  O  O70  1  0.68620559  0.54254788  0.53390710  1
  O  O71  1  0.86255386  0.31074174  0.52726186  1
  O  O72  1  0.55815232  0.68851177  0.96392840  1
  O  O73  1  0.13221629  0.45229030  0.97493396  1
  O  O74  1  0.31404311  0.86944013  0.96890072  1
  O  O75  1  0.54352823  0.86883240  0.47003931  1
  O  O76  1  0.31019029  0.44123813  0.46121899  1
  O  O77  1  0.13054473  0.68519416  0.46722095  1
  O  O78  1  0.11309363  0.64477518  0.36995743  1
  O  O79  1  0.52944132  0.88488109  0.36126487  1
  O  O80  1  0.34837075  0.45473053  0.36396907  1
  O  O81  1  0.11894590  0.47748018  0.86665932  1
  O  O82  1  0.35706076  0.88811386  0.87187789  1
  O  O83  1  0.54491174  0.65073307  0.86681531  1
  O  O84  1  0.02711292  0.81422115  0.41206516  1
  O  O85  1  0.81902772  0.00517489  0.41376679  1
  O  O86  1  0.18536786  0.20105773  0.41098529  1
  O  O87  1  0.99714147  0.17922468  0.91727971  1
  O  O88  1  0.18488036  0.97261909  0.91399437  1
  O  O89  1  0.79866078  0.81528972  0.91365488  1
  O  O90  1  0.97758945  0.17000916  0.58569024  1
  O  O91  1  0.20261602  0.00625180  0.58617828  1
  O  O92  1  0.83814659  0.81239998  0.58493399  1
  O  O93  1  0.99843615  0.80007629  0.08588892  1
  O  O94  1  0.83362703  0.02712390  0.08577804  1
  O  O95  1  0.20719364  0.18074090  0.08621922  1
  O  O96  1  0.68904488  0.16463417  0.74844818  1
  O  O97  1  0.46543471  0.32747473  0.74672270  1
  O  O98  1  0.82715608  0.52156499  0.75034427  1
  O  O99  1  0.66818295  0.53290670  0.24425072  1
  O  O100  1  0.84184861  0.31233551  0.24589637  1
  O  O101  1  0.47594838  0.17239449  0.24660130  1
  O  O102  1  0.66003482  0.52949161  0.92243700  1
  O  O103  1  0.85350245  0.35357418  0.92178106  1
  O  O104  1  0.47468857  0.12460394  0.92389467  1
  O  O105  1  0.64597797  0.15140838  0.41694749  1
  O  O106  1  0.46997614  0.33950180  0.41922588  1
  O  O107  1  0.87622274  0.52278573  0.42086555  1
  O  O108  1  0.33721276  0.46684181  0.07973172  1
  O  O109  1  0.12938390  0.64600183  0.07813073  1
  O  O110  1  0.49613772  0.85793675  0.07688006  1
  O  O111  1  0.35028298  0.86944895  0.57777723  1
  O  O112  1  0.52376014  0.67583385  0.58259731  1
  O  O113  1  0.13957249  0.50665771  0.57726770  1
  O  O114  1  0.34039316  0.85576003  0.25059839  1
  O  O115  1  0.53546516  0.68375502  0.25450083  1
  O  O116  1  0.17587710  0.47240670  0.25404494  1
  O  O117  1  0.31696793  0.46369647  0.75511083  1
  O  O118  1  0.14166997  0.65737297  0.75288196  1
  O  O119  1  0.52867948  0.82917576  0.75679421  1
