# generated using pymatgen
data_Rb3MgNbO8
_symmetry_space_group_name_H-M   'P 1'
_cell_length_a   6.92142780
_cell_length_b   7.28067128
_cell_length_c   5.97021376
_cell_angle_alpha   98.52285667
_cell_angle_beta   110.69153627
_cell_angle_gamma   117.51840166
_symmetry_Int_Tables_number   1
_chemical_formula_structural   Rb3MgNbO8
_chemical_formula_sum   'Rb3 Mg1 Nb1 O8'
_cell_volume   231.35018774
_cell_formula_units_Z   1
loop_
 _symmetry_equiv_pos_site_id
 _symmetry_equiv_pos_as_xyz
  1  'x, y, z'
loop_
 _atom_site_type_symbol
 _atom_site_label
 _atom_site_symmetry_multiplicity
 _atom_site_fract_x
 _atom_site_fract_y
 _atom_site_fract_z
 _atom_site_occupancy
  Rb  Rb0  1  0.00000000  0.46461200  0.50811200  1
  Rb  Rb1  1  0.41298600  0.75502600  0.23790500  1
  Rb  Rb2  1  0.58701400  0.34203900  0.82491800  1
  Mg  Mg3  1  0.00000000  0.92641200  0.55441800  1
  Nb  Nb4  1  0.00000000  0.98058200  0.05406400  1
  O  O5  1  0.25019900  0.95279900  0.90879600  1
  O  O6  1  0.00000000  0.11300400  0.35887900  1
  O  O7  1  0.00000000  0.25696900  0.02151900  1
  O  O8  1  0.74980100  0.70260000  0.65859700  1
  O  O9  1  0.62209800  0.77770200  0.77126700  1
  O  O10  1  0.00000000  0.18299200  0.77892100  1
  O  O11  1  0.00000000  0.76965900  0.23343400  1
  O  O12  1  0.37790200  0.15560400  0.14916900  1
