# generated using pymatgen
data_Ba2GdCl7
_symmetry_space_group_name_H-M   'P 1'
_cell_length_a   15.67142088
_cell_length_b   6.89401737
_cell_length_c   10.63303303
_cell_angle_alpha   89.33802973
_cell_angle_beta   90.00000000
_cell_angle_gamma   90.00000000
_symmetry_Int_Tables_number   1
_chemical_formula_structural   Ba2GdCl7
_chemical_formula_sum   'Ba8 Gd4 Cl28'
_cell_volume   1148.70609050
_cell_formula_units_Z   4
loop_
 _symmetry_equiv_pos_site_id
 _symmetry_equiv_pos_as_xyz
  1  'x, y, z'
loop_
 _atom_site_type_symbol
 _atom_site_label
 _atom_site_symmetry_multiplicity
 _atom_site_fract_x
 _atom_site_fract_y
 _atom_site_fract_z
 _atom_site_occupancy
  Ba  Ba0  1  0.06068762  0.26574844  0.82413405  1
  Ba  Ba1  1  0.56068762  0.73425156  0.67586595  1
  Ba  Ba2  1  0.93931238  0.73425156  0.17586595  1
  Ba  Ba3  1  0.43931238  0.26574844  0.32413405  1
  Ba  Ba4  1  0.27943844  0.73415190  0.04953361  1
  Ba  Ba5  1  0.77943844  0.26584810  0.45046639  1
  Ba  Ba6  1  0.72056156  0.26584810  0.95046639  1
  Ba  Ba7  1  0.22056156  0.73415190  0.54953361  1
  Gd  Gd8  1  0.12752782  0.21782538  0.28242601  1
  Gd  Gd9  1  0.62752782  0.78217462  0.21757399  1
  Gd  Gd10  1  0.87247218  0.78217462  0.71757399  1
  Gd  Gd11  1  0.37247218  0.21782538  0.78242601  1
  Cl  Cl12  1  0.14113948  0.29034706  0.53167199  1
  Cl  Cl13  1  0.64113948  0.70965294  0.96832801  1
  Cl  Cl14  1  0.85886052  0.70965294  0.46832801  1
  Cl  Cl15  1  0.35886052  0.29034706  0.03167199  1
  Cl  Cl16  1  0.07072252  0.86817819  0.37678090  1
  Cl  Cl17  1  0.57072252  0.13182181  0.12321910  1
  Cl  Cl18  1  0.92927748  0.13182181  0.62321910  1
  Cl  Cl19  1  0.42927748  0.86817819  0.87678090  1
  Cl  Cl20  1  0.95913869  0.29958384  0.28996648  1
  Cl  Cl21  1  0.45913869  0.70041616  0.21003352  1
  Cl  Cl22  1  0.04086131  0.70041616  0.71003352  1
  Cl  Cl23  1  0.54086131  0.29958384  0.78996648  1
  Cl  Cl24  1  0.39614193  0.99806676  0.57032517  1
  Cl  Cl25  1  0.89614193  0.00193324  0.92967483  1
  Cl  Cl26  1  0.60385807  0.00193324  0.42967483  1
  Cl  Cl27  1  0.10385807  0.99806676  0.07032517  1
  Cl  Cl28  1  0.24159172  0.48999896  0.80294331  1
  Cl  Cl29  1  0.74159172  0.51000104  0.69705669  1
  Cl  Cl30  1  0.75840828  0.51000104  0.19705669  1
  Cl  Cl31  1  0.25840828  0.48999896  0.30294331  1
  Cl  Cl32  1  0.22606787  0.99825981  0.79539666  1
  Cl  Cl33  1  0.72606787  0.00174019  0.70460334  1
  Cl  Cl34  1  0.77393213  0.00174019  0.20460334  1
  Cl  Cl35  1  0.27393213  0.99825981  0.29539666  1
  Cl  Cl36  1  0.39517838  0.48819004  0.58416992  1
  Cl  Cl37  1  0.89517838  0.51180996  0.91583008  1
  Cl  Cl38  1  0.60482162  0.51180996  0.41583008  1
  Cl  Cl39  1  0.10482162  0.48819004  0.08416992  1
