# generated using pymatgen
data_NaAl4PS5O24
_symmetry_space_group_name_H-M   'P 1'
_cell_length_a   8.28091609
_cell_length_b   8.28033448
_cell_length_c   21.61020510
_cell_angle_alpha   89.90415093
_cell_angle_beta   90.18926406
_cell_angle_gamma   119.90851197
_symmetry_Int_Tables_number   1
_chemical_formula_structural   NaAl4PS5O24
_chemical_formula_sum   'Na3 Al12 P3 S15 O72'
_cell_volume   1284.43771959
_cell_formula_units_Z   3
loop_
 _symmetry_equiv_pos_site_id
 _symmetry_equiv_pos_as_xyz
  1  'x, y, z'
loop_
 _atom_site_type_symbol
 _atom_site_label
 _atom_site_symmetry_multiplicity
 _atom_site_fract_x
 _atom_site_fract_y
 _atom_site_fract_z
 _atom_site_occupancy
  Na  Na0  1  0.99943296  0.99570632  0.99840898  1
  Na  Na1  1  0.66228345  0.33258601  0.83595837  1
  Na  Na2  1  0.67019656  0.33261113  0.33156965  1
  Al  Al3  1  0.99800714  0.00498178  0.35198733  1
  Al  Al4  1  0.99910747  0.99320339  0.85641929  1
  Al  Al5  1  0.00028793  0.00038003  0.64671541  1
  Al  Al6  1  0.00175817  0.00715183  0.14798729  1
  Al  Al7  1  0.66635398  0.33313235  0.68626394  1
  Al  Al8  1  0.67328410  0.33311850  0.18583060  1
  Al  Al9  1  0.65950979  0.33287816  0.97793661  1
  Al  Al10  1  0.66656118  0.33313317  0.48160446  1
  Al  Al11  1  0.33947563  0.67451235  0.01849378  1
  Al  Al12  1  0.33330381  0.66693667  0.52112411  1
  Al  Al13  1  0.32830149  0.66104104  0.30941973  1
  Al  Al14  1  0.34090139  0.67244427  0.81589609  1
  P  P15  1  -0.00034261  0.28874796  0.24995080  1
  P  P16  1  0.62086150  0.66666247  0.91679975  1
  P  P17  1  0.33403093  0.95448083  0.91675176  1
  S  S18  1  0.28800138  -0.00034665  0.25009618  1
  S  S19  1  0.71127426  0.71206334  0.25001695  1
  S  S20  1  0.28709535  0.28977036  0.75009022  1
  S  S21  1  0.00197837  0.71097672  0.74963207  1
  S  S22  1  0.71169986  -0.00094229  0.74980167  1
  S  S23  1  0.95646221  0.33325001  0.58346571  1
  S  S24  1  0.37664760  0.04368523  0.58341123  1
  S  S25  1  0.66711438  0.62336648  0.58341920  1
  S  S26  1  0.95721106  0.62245792  0.08304664  1
  S  S27  1  0.66559480  0.04434711  0.08298082  1
  S  S28  1  0.37843949  0.33513854  0.08381147  1
  S  S29  1  0.04634179  0.37982362  0.91668167  1
  S  S30  1  0.62117066  0.95318022  0.41649921  1
  S  S31  1  0.33264713  0.37769182  0.41690754  1
  S  S32  1  0.04526227  0.66907679  0.41662130  1
  O  O33  1  0.20725186  0.03451240  0.30626103  1
  O  O34  1  0.82925404  0.79033714  0.30614657  1
  O  O35  1  0.96128156  0.16614830  0.30797241  1
  O  O36  1  0.20576107  0.17035502  0.80488001  1
  O  O37  1  0.96267291  0.79156803  0.80429197  1
  O  O38  1  0.83118771  0.03772120  0.80478199  1
  O  O39  1  0.79545544  0.96832383  0.69367154  1
  O  O40  1  0.17310895  0.20537826  0.69363864  1
  O  O41  1  0.03278021  0.82630547  0.69359370  1
  O  O42  1  0.79356658  0.82601039  0.19440704  1
  O  O43  1  0.03417150  0.20157088  0.19284839  1
  O  O44  1  0.17171688  0.96349665  0.19452702  1
  O  O45  1  0.87313968  0.36919530  0.63846056  1
  O  O46  1  0.49632823  0.12699641  0.63853357  1
  O  O47  1  0.63108408  0.50386798  0.63849781  1
  O  O48  1  0.87298704  0.50800781  0.13907575  1
  O  O49  1  0.63321780  0.12715696  0.13886850  1
  O  O50  1  0.49441209  0.36578442  0.13971290  1
  O  O51  1  0.45938200  0.29720292  0.02873153  1
  O  O52  1  0.83769390  0.53971909  0.02798242  1
  O  O53  1  0.70368369  0.16411152  0.02804013  1
  O  O54  1  0.45975220  0.16224184  0.52786564  1
  O  O55  1  0.70215945  0.54000669  0.52790759  1
  O  O56  1  0.83761458  0.29774404  0.52780947  1
  O  O57  1  0.53686047  0.70078514  0.97489200  1
  O  O58  1  0.16014454  0.45777033  0.97285235  1
  O  O59  1  0.29432479  0.83355047  0.97466226  1
  O  O60  1  0.53777345  0.83893972  0.47256486  1
  O  O61  1  0.30053811  0.46099583  0.47267145  1
  O  O62  1  0.16014000  0.70017709  0.47271714  1
  O  O63  1  0.12651094  0.63150180  0.36174348  1
  O  O64  1  0.50273255  0.87213019  0.36120137  1
  O  O65  1  0.37158924  0.49695564  0.36189518  1
  O  O66  1  0.12414578  0.49293833  0.86019601  1
  O  O67  1  0.36742007  0.87095258  0.85812409  1
  O  O68  1  0.50096289  0.62731117  0.85829768  1
  O  O69  1  0.02492255  0.83358487  0.40765353  1
  O  O70  1  0.80559507  0.97180272  0.40893398  1
  O  O71  1  0.16912197  0.19246876  0.40864524  1
  O  O72  1  0.02661451  0.19381709  0.90838824  1
  O  O73  1  0.16316262  0.97889337  0.90805122  1
  O  O74  1  0.81280386  0.84118336  0.90796363  1
  O  O75  1  0.97444914  0.16722147  0.59242147  1
  O  O76  1  0.19275184  0.02549517  0.59234692  1
  O  O77  1  0.83259092  0.80715724  0.59246428  1
  O  O78  1  0.97460364  0.80909348  0.09179904  1
  O  O79  1  0.83345648  0.02448050  0.09081330  1
  O  O80  1  0.19258898  0.16466178  0.09102287  1
  O  O81  1  0.69346912  0.16849006  0.74129501  1
  O  O82  1  0.47450949  0.30737752  0.74144631  1
  O  O83  1  0.83197915  0.52433248  0.74107077  1
  O  O84  1  0.68955643  0.52453784  0.24232469  1
  O  O85  1  0.82538382  0.30902483  0.24165868  1
  O  O86  1  0.47304390  0.16794086  0.24220836  1
  O  O87  1  0.64569616  0.49613418  0.92508462  1
  O  O88  1  0.86030014  0.35963634  0.92454657  1
  O  O89  1  0.50821758  0.14664053  0.92525653  1
  O  O90  1  0.64039309  0.14117025  0.42486345  1
  O  O91  1  0.50180997  0.35912125  0.42529749  1
  O  O92  1  0.85809985  0.49983792  0.42508542  1
  O  O93  1  0.35704180  0.49869823  0.07523031  1
  O  O94  1  0.14054551  0.63958293  0.07511662  1
  O  O95  1  0.50041109  0.86009231  0.07597399  1
  O  O96  1  0.35927925  0.85983058  0.57403583  1
  O  O97  1  0.50063280  0.64092484  0.57393548  1
  O  O98  1  0.14018334  0.49922318  0.57401012  1
  O  O99  1  0.30954237  0.83602707  0.25944134  1
  O  O100  1  0.52857164  0.69583216  0.25947545  1
  O  O101  1  0.17071338  0.47957513  0.26037087  1
  O  O102  1  0.30580132  0.47367801  0.75772555  1
  O  O103  1  0.16523357  0.68937293  0.75798561  1
  O  O104  1  0.52719588  0.83470644  0.75679935  1
