# generated using pymatgen
data_Na3Ti2Nb2Si3(PO8)3
_symmetry_space_group_name_H-M   'P 1'
_cell_length_a   8.83067290
_cell_length_b   8.81555505
_cell_length_c   22.48633571
_cell_angle_alpha   90.10309004
_cell_angle_beta   90.01468005
_cell_angle_gamma   119.92913506
_symmetry_Int_Tables_number   1
_chemical_formula_structural   Na3Ti2Nb2Si3(PO8)3
_chemical_formula_sum   'Na9 Ti6 Nb6 Si9 P9 O72'
_cell_volume   1517.05516309
_cell_formula_units_Z   3
loop_
 _symmetry_equiv_pos_site_id
 _symmetry_equiv_pos_as_xyz
  1  'x, y, z'
loop_
 _atom_site_type_symbol
 _atom_site_label
 _atom_site_symmetry_multiplicity
 _atom_site_fract_x
 _atom_site_fract_y
 _atom_site_fract_z
 _atom_site_occupancy
  Na  Na0  1  -0.00011502  0.63080175  0.25135071  1
  Na  Na1  1  0.66612585  0.96385178  0.58455585  1
  Na  Na2  1  0.66716340  0.70277523  0.08208256  1
  Na  Na3  1  0.01308379  0.00243487  0.50252740  1
  Na  Na4  1  0.01366685  0.01268532  0.00220563  1
  Na  Na5  1  0.66718930  0.33415939  0.83344448  1
  Na  Na6  1  0.65511292  0.32235527  0.33055262  1
  Na  Na7  1  0.33339151  0.66679991  0.16683313  1
  Na  Na8  1  0.32245698  0.65689298  0.66452676  1
  Ti  Ti9  1  0.00607144  0.99403679  0.64716583  1
  Ti  Ti10  1  0.99769361  0.99746478  0.14752106  1
  Ti  Ti11  1  0.66898784  0.33588306  0.18604632  1
  Ti  Ti12  1  0.32422229  0.66185005  0.02045701  1
  Ti  Ti13  1  0.32959457  0.67319271  0.51907254  1
  Ti  Ti14  1  0.34186937  0.67131439  0.31372760  1
  Nb  Nb15  1  0.99593365  0.99506456  0.35574800  1
  Nb  Nb16  1  0.99041274  0.99449504  0.85684733  1
  Nb  Nb17  1  0.66728918  0.33025265  0.68894464  1
  Nb  Nb18  1  0.67123511  0.33784674  0.97851312  1
  Nb  Nb19  1  0.66328228  0.33252568  0.47633024  1
  Nb  Nb20  1  0.33308875  0.66547551  0.81017430  1
  Si  Si21  1  0.70253275  0.70753476  0.24770314  1
  Si  Si22  1  0.00080429  0.71404232  0.74919277  1
  Si  Si23  1  0.71597647  0.99782863  0.74678393  1
  Si  Si24  1  0.36751168  0.03979456  0.58277087  1
  Si  Si25  1  0.96435429  0.62638278  0.08606307  1
  Si  Si26  1  0.61417009  0.66551055  0.92023710  1
  Si  Si27  1  0.05034778  0.38111379  0.91754923  1
  Si  Si28  1  0.61509822  0.94842030  0.41776888  1
  Si  Si29  1  0.05266830  0.66632397  0.41419873  1
  P  P30  1  0.29160611  0.00387272  0.24859719  1
  P  P31  1  0.00009414  0.28752084  0.24827387  1
  P  P32  1  0.28113017  0.28081122  0.74905136  1
  P  P33  1  0.96061843  0.33624587  0.58271570  1
  P  P34  1  0.66555351  0.62380008  0.58344020  1
  P  P35  1  0.66690544  0.04572770  0.08542574  1
  P  P36  1  0.37496764  0.32932372  0.08492612  1
  P  P37  1  0.33309304  0.94956091  0.91808748  1
  P  P38  1  0.33199464  0.38799279  0.41686188  1
  O  O39  1  0.20486333  0.03074489  0.30494979  1
  O  O40  1  0.83751152  0.80496558  0.30479656  1
  O  O41  1  0.97687298  0.17505314  0.30456261  1
  O  O42  1  0.20306202  0.17386670  0.80567929  1
  O  O43  1  0.97535620  0.80596993  0.80816625  1
  O  O44  1  0.83539259  0.02920283  0.80664173  1
  O  O45  1  0.80414268  0.97482560  0.68708153  1
  O  O46  1  0.17028207  0.19670655  0.69352788  1
  O  O47  1  0.02911743  0.83539783  0.69114532  1
  O  O48  1  0.80106390  0.82909639  0.18938440  1
  O  O49  1  0.02319432  0.19467602  0.19378317  1
  O  O50  1  0.16722644  0.97196251  0.19493965  1
  O  O51  1  0.86951122  0.36211397  0.63847799  1
  O  O52  1  0.50083263  0.13698148  0.63933880  1
  O  O53  1  0.64551829  0.50904956  0.63821659  1
  O  O54  1  0.86548189  0.50415741  0.14419627  1
  O  O55  1  0.64347311  0.13872894  0.13975888  1
  O  O56  1  0.49958883  0.36139125  0.13850301  1
  O  O57  1  0.46166303  0.30259539  0.02857553  1
  O  O58  1  0.82978892  0.52889350  0.02898812  1
  O  O59  1  0.68981320  0.15786977  0.02921218  1
  O  O60  1  0.47204466  0.16543587  0.52558463  1
  O  O61  1  0.69153163  0.53457007  0.52770612  1
  O  O62  1  0.83785650  0.30865203  0.52841388  1
  O  O63  1  0.53204040  0.69552077  0.98042979  1
  O  O64  1  0.16964327  0.47827377  0.97563162  1
  O  O65  1  0.30662651  0.83705965  0.97327362  1
  O  O66  1  0.53478227  0.83638517  0.47830249  1
  O  O67  1  0.30618391  0.46865044  0.47317162  1
  O  O68  1  0.17263509  0.69433824  0.47304066  1
  O  O69  1  0.13271482  0.63542739  0.35366246  1
  O  O70  1  0.49530201  0.85554196  0.35942894  1
  O  O71  1  0.36070823  0.49716341  0.36047366  1
  O  O72  1  0.13494768  0.50006835  0.85849716  1
  O  O73  1  0.36094212  0.86828971  0.86102594  1
  O  O74  1  0.49895666  0.64158132  0.86059011  1
  O  O75  1  0.03522823  0.84377145  0.40923220  1
  O  O76  1  0.81233900  0.97642859  0.40863309  1
  O  O77  1  0.17214329  0.20121419  0.40924544  1
  O  O78  1  0.03472036  0.19023101  0.91179695  1
  O  O79  1  0.17191481  0.97254033  0.91130900  1
  O  O80  1  0.81161978  0.83537771  0.91214482  1
  O  O81  1  0.96554918  0.16582949  0.58766005  1
  O  O82  1  0.17930452  0.02595372  0.58862843  1
  O  O83  1  0.82805358  0.80826972  0.58799556  1
  O  O84  1  0.97127248  0.81545250  0.09101073  1
  O  O85  1  0.83368490  0.02879118  0.08987707  1
  O  O86  1  0.19356169  0.16870548  0.09196312  1
  O  O87  1  0.69387720  0.17247372  0.74302109  1
  O  O88  1  0.46772955  0.30543237  0.74201673  1
  O  O89  1  0.82547017  0.52286530  0.74268947  1
  O  O90  1  0.69565158  0.51830731  0.24255581  1
  O  O91  1  0.83297307  0.30434687  0.24369170  1
  O  O92  1  0.47301870  0.16467121  0.24151005  1
  O  O93  1  0.63350705  0.48948162  0.92424966  1
  O  O94  1  0.85372175  0.35465388  0.92538933  1
  O  O95  1  0.49721595  0.13293441  0.92443389  1
  O  O96  1  0.63762292  0.14454955  0.42313771  1
  O  O97  1  0.49727214  0.36655199  0.42275467  1
  O  O98  1  0.85553752  0.49944819  0.42445927  1
  O  O99  1  0.36809380  0.50108130  0.07929590  1
  O  O100  1  0.15512505  0.64573302  0.07805598  1
  O  O101  1  0.50749062  0.86035977  0.08015609  1
  O  O102  1  0.36148315  0.85155698  0.57728860  1
  O  O103  1  0.50092118  0.64113604  0.57896309  1
  O  O104  1  0.14111618  0.49891040  0.57684843  1
  O  O105  1  0.29859351  0.83230888  0.25436663  1
  O  O106  1  0.51190363  0.68831081  0.25604167  1
  O  O107  1  0.15918887  0.47284183  0.25354992  1
  O  O108  1  0.30402561  0.46689547  0.75490707  1
  O  O109  1  0.17212054  0.69165933  0.75468827  1
  O  O110  1  0.52242663  0.82711701  0.75566586  1
