# generated using pymatgen
data_S8O
_symmetry_space_group_name_H-M   'P 1'
_cell_length_a   8.24946036
_cell_length_b   8.16610734
_cell_length_c   13.43906040
_cell_angle_alpha   90.00000000
_cell_angle_beta   90.00000000
_cell_angle_gamma   90.00000000
_symmetry_Int_Tables_number   1
_chemical_formula_structural   S8O
_chemical_formula_sum   'S32 O4'
_cell_volume   905.33545796
_cell_formula_units_Z   4
loop_
 _symmetry_equiv_pos_site_id
 _symmetry_equiv_pos_as_xyz
  1  'x, y, z'
loop_
 _atom_site_type_symbol
 _atom_site_label
 _atom_site_symmetry_multiplicity
 _atom_site_fract_x
 _atom_site_fract_y
 _atom_site_fract_z
 _atom_site_occupancy
  S  S0  1  0.52313341  0.49816817  0.35755132  1
  S  S1  1  0.47686659  -0.00183183  0.64244868  1
  S  S2  1  0.47686659  0.49816817  0.85755132  1
  S  S3  1  0.52313341  -0.00183183  0.14244868  1
  S  S4  1  0.48089369  0.35567184  0.47498684  1
  S  S5  1  0.51910631  0.85567284  0.52501316  1
  S  S6  1  0.51910631  0.35567184  0.97498684  1
  S  S7  1  0.48089369  0.85567284  0.02501316  1
  S  S8  1  0.63952602  0.41750649  0.58895188  1
  S  S9  1  0.36047398  0.91750649  0.41104812  1
  S  S10  1  0.36047398  0.41750649  0.08895188  1
  S  S11  1  0.63952602  0.91750649  0.91104812  1
  S  S12  1  0.82180868  0.24821531  0.58920363  1
  S  S13  1  0.17819132  0.74821431  0.41079637  1
  S  S14  1  0.17819132  0.24821531  0.08920363  1
  S  S15  1  0.82180868  0.74821431  0.91079637  1
  S  S16  1  0.02239219  0.35243649  0.52726941  1
  S  S17  1  0.97760781  0.85243649  0.47273059  1
  S  S18  1  0.97760781  0.35243649  0.02726941  1
  S  S19  1  0.02239219  0.85243649  0.97273059  1
  S  S20  1  0.03535758  0.28402226  0.37858211  1
  S  S21  1  0.96464242  0.78402226  0.62141789  1
  S  S22  1  0.96464242  0.28402226  0.87858211  1
  S  S23  1  0.03535758  0.78402226  0.12141789  1
  S  S24  1  0.92938393  0.45601755  0.29587196  1
  S  S25  1  0.07061607  0.95601755  0.70412804  1
  S  S26  1  0.07061607  0.45601755  0.79587196  1
  S  S27  1  0.92938393  0.95601755  0.20412804  1
  S  S28  1  0.68722989  0.84620979  0.23599786  1
  S  S29  1  0.31277011  0.34620979  0.76400214  1
  S  S30  1  0.31277011  0.84620979  0.73599786  1
  S  S31  1  0.68722989  0.34620979  0.26400214  1
  O  O32  1  0.68908607  0.68295109  0.18894680  1
  O  O33  1  0.31091393  0.18295109  0.81105320  1
  O  O34  1  0.31091393  0.68295109  0.68894680  1
  O  O35  1  0.68908607  0.18295109  0.31105320  1
