# generated using pymatgen
data_Na2Mg5Zr3(SO4)12
_symmetry_space_group_name_H-M   'P 1'
_cell_length_a   17.58741526
_cell_length_b   8.79432621
_cell_length_c   22.82605754
_cell_angle_alpha   90.04212009
_cell_angle_beta   89.94072110
_cell_angle_gamma   120.01452792
_symmetry_Int_Tables_number   1
_chemical_formula_structural   Na2Mg5Zr3(SO4)12
_chemical_formula_sum   'Na6 Mg15 Zr9 S36 O144'
_cell_volume   3057.04819870
_cell_formula_units_Z   3
loop_
 _symmetry_equiv_pos_site_id
 _symmetry_equiv_pos_as_xyz
  1  'x, y, z'
loop_
 _atom_site_type_symbol
 _atom_site_label
 _atom_site_symmetry_multiplicity
 _atom_site_fract_x
 _atom_site_fract_y
 _atom_site_fract_z
 _atom_site_occupancy
  Na  Na0  1  0.00029650  0.00032144  0.50103429  1
  Na  Na1  1  0.50246936  0.00362234  0.99790625  1
  Na  Na2  1  0.33462057  0.33521866  0.83061500  1
  Na  Na3  1  0.83194159  0.33126918  0.83099212  1
  Na  Na4  1  0.33179284  0.33282379  0.33872170  1
  Na  Na5  1  0.83482842  0.33340388  0.33340526  1
  Mg  Mg6  1  0.99848377  0.00031898  0.35298571  1
  Mg  Mg7  1  0.50063921  0.00056230  0.84924745  1
  Mg  Mg8  1  0.00031659  0.00044997  0.64902171  1
  Mg  Mg9  1  0.50458555  0.00395913  0.14875852  1
  Mg  Mg10  1  0.33245898  0.33118732  0.68596410  1
  Mg  Mg11  1  0.83412448  0.33542708  0.68571749  1
  Mg  Mg12  1  0.83233342  0.33360175  0.18583641  1
  Mg  Mg13  1  0.33527607  0.33580396  0.97877299  1
  Mg  Mg14  1  0.83100462  0.33102841  0.98172449  1
  Mg  Mg15  1  0.33089249  0.33148362  0.48380212  1
  Mg  Mg16  1  0.83586146  0.33501020  0.48318417  1
  Mg  Mg17  1  0.16316276  0.65941713  0.31390407  1
  Mg  Mg18  1  0.67024131  0.67418631  0.31199790  1
  Mg  Mg19  1  0.16790354  0.66700244  0.80863022  1
  Mg  Mg20  1  0.66536491  0.66639340  0.80948216  1
  Zr  Zr21  1  0.50263072  0.00028238  0.35651313  1
  Zr  Zr22  1  0.99933110  0.99950046  0.85081401  1
  Zr  Zr23  1  0.49975843  0.99976892  0.64831431  1
  Zr  Zr24  1  0.99481011  0.99691282  0.14746195  1
  Zr  Zr25  1  0.33402789  0.33305169  0.18762560  1
  Zr  Zr26  1  0.16608561  0.66766603  0.01964847  1
  Zr  Zr27  1  0.66690821  0.66422866  0.02040218  1
  Zr  Zr28  1  0.16371852  0.66407750  0.52402499  1
  Zr  Zr29  1  0.66985750  0.66975671  0.52462298  1
  S  S30  1  0.14329354  0.99345603  0.25214756  1
  S  S31  1  0.64671968  0.99878959  0.24849081  1
  S  S32  1  0.35332302  0.71461028  0.24919796  1
  S  S33  1  0.85263764  0.70374802  0.25292857  1
  S  S34  1  0.99956909  0.29399340  0.25233595  1
  S  S35  1  0.50385100  0.29337132  0.24951868  1
  S  S36  1  0.14727843  0.29505715  0.74816134  1
  S  S37  1  0.64773641  0.29420783  0.75229137  1
  S  S38  1  0.00044720  0.70523614  0.74805733  1
  S  S39  1  0.49920693  0.70466876  0.75232196  1
  S  S40  1  0.35315827  0.00145029  0.75245030  1
  S  S41  1  0.85209409  0.99930041  0.74796168  1
  S  S42  1  0.47437354  0.33174005  0.58314729  1
  S  S43  1  0.97397094  0.32418427  0.58399215  1
  S  S44  1  0.18819141  0.05071959  0.58368686  1
  S  S45  1  0.69145923  0.05257592  0.58343773  1
  S  S46  1  0.33406349  0.61737241  0.58342337  1
  S  S47  1  0.83790135  0.62312314  0.58373293  1
  S  S48  1  0.47701659  0.62740827  0.08181727  1
  S  S49  1  0.97487709  0.61703928  0.08334235  1
  S  S50  1  0.33671934  0.04564787  0.08177000  1
  S  S51  1  0.83262175  0.05060379  0.08315413  1
  S  S52  1  0.18935125  0.33148105  0.08137837  1
  S  S53  1  0.68819927  0.32685628  0.08364343  1
  S  S54  1  0.31340101  0.66621612  0.91483131  1
  S  S55  1  0.81072382  0.66089798  0.91483058  1
  S  S56  1  0.01972299  0.37862923  0.91492714  1
  S  S57  1  0.51960680  0.37289615  0.91471356  1
  S  S58  1  0.16938884  0.96054673  0.91475689  1
  S  S59  1  0.66692073  0.96025714  0.91496010  1
  S  S60  1  0.30940652  0.95879705  0.41518543  1
  S  S61  1  0.81299823  0.96093138  0.41509170  1
  S  S62  1  0.16729156  0.37404979  0.41506628  1
  S  S63  1  0.67085396  0.38288159  0.41550129  1
  S  S64  1  0.01960745  0.66620519  0.41489245  1
  S  S65  1  0.52054154  0.65766944  0.41565952  1
  O  O66  1  0.10564998  0.03208444  0.30290601  1
  O  O67  1  0.60288683  0.02887213  0.30231224  1
  O  O68  1  0.41021994  0.78983694  0.30238118  1
  O  O69  1  0.91085358  0.79055887  0.30267859  1
  O  O70  1  0.48405638  0.17884578  0.30249454  1
  O  O71  1  0.98494721  0.17893007  0.30253382  1
  O  O72  1  0.10444733  0.17909442  0.80271704  1
  O  O73  1  0.60544584  0.17969121  0.80296002  1
  O  O74  1  0.48422924  0.78907729  0.80305279  1
  O  O75  1  0.98525355  0.79110214  0.80267665  1
  O  O76  1  0.41016706  0.03097125  0.80312752  1
  O  O77  1  0.91032086  0.02984048  0.80258980  1
  O  O78  1  0.39594153  0.97445333  0.69808658  1
  O  O79  1  0.89541453  0.97333191  0.69762421  1
  O  O80  1  0.09133737  0.20932024  0.69772378  1
  O  O81  1  0.59128815  0.20775999  0.69798158  1
  O  O82  1  0.01337382  0.81719249  0.69765984  1
  O  O83  1  0.51259441  0.81756034  0.69802768  1
  O  O84  1  0.39561873  0.81757369  0.19692791  1
  O  O85  1  0.89593465  0.81697750  0.19812131  1
  O  O86  1  0.01302282  0.20692106  0.19769954  1
  O  O87  1  0.51240450  0.20921295  0.19709264  1
  O  O88  1  0.09234052  0.97455789  0.19735678  1
  O  O89  1  0.59079723  0.97234249  0.19769696  1
  O  O90  1  0.43785079  0.36349125  0.63581383  1
  O  O91  1  0.93775514  0.36069909  0.63605171  1
  O  O92  1  0.24259045  0.12416688  0.63576874  1
  O  O93  1  0.74387626  0.12453618  0.63604723  1
  O  O94  1  0.31851397  0.51230884  0.63596803  1
  O  O95  1  0.81917177  0.51450594  0.63582431  1
  O  O96  1  0.43678848  0.51497865  0.13559420  1
  O  O97  1  0.93805811  0.51281802  0.13616257  1
  O  O98  1  0.32020574  0.12513164  0.13555526  1
  O  O99  1  0.81880633  0.12490831  0.13632019  1
  O  O100  1  0.24349211  0.36188202  0.13553762  1
  O  O101  1  0.74199535  0.36046969  0.13605220  1
  O  O102  1  0.23005057  0.30492824  0.03049184  1
  O  O103  1  0.72789127  0.30284184  0.03039808  1
  O  O104  1  0.42254736  0.54224795  0.03076511  1
  O  O105  1  0.92348916  0.54267308  0.03027655  1
  O  O106  1  0.34811515  0.15378630  0.03057399  1
  O  O107  1  0.84853038  0.15490318  0.03032781  1
  O  O108  1  0.22791945  0.15266006  0.53011986  1
  O  O109  1  0.72887721  0.15376919  0.52999775  1
  O  O110  1  0.34863057  0.54312992  0.53020643  1
  O  O111  1  0.84797875  0.54352385  0.52988962  1
  O  O112  1  0.42326489  0.30442010  0.52985970  1
  O  O113  1  0.92350562  0.30253366  0.53032512  1
  O  O114  1  0.27009443  0.69237926  0.96983812  1
  O  O115  1  0.77132471  0.69263962  0.96917411  1
  O  O116  1  0.07548200  0.45889159  0.96939324  1
  O  O117  1  0.57527943  0.45826942  0.96960457  1
  O  O118  1  0.15406780  0.84980189  0.96931306  1
  O  O119  1  0.65375388  0.84807648  0.96973766  1
  O  O120  1  0.27189919  0.84969385  0.46862160  1
  O  O121  1  0.77023850  0.84781375  0.46906263  1
  O  O122  1  0.15400878  0.45876586  0.46895798  1
  O  O123  1  0.65288055  0.45779464  0.46887651  1
  O  O124  1  0.07568635  0.69344738  0.46884042  1
  O  O125  1  0.57543196  0.69295175  0.46898579  1
  O  O126  1  0.06155118  0.63956576  0.36353320  1
  O  O127  1  0.56173652  0.63620071  0.36327370  1
  O  O128  1  0.25692518  0.87678249  0.36295020  1
  O  O129  1  0.75760030  0.87647754  0.36392821  1
  O  O130  1  0.18127563  0.48452841  0.36351107  1
  O  O131  1  0.68095703  0.48633460  0.36321340  1
  O  O132  1  0.06248704  0.48826255  0.86430058  1
  O  O133  1  0.56171096  0.48463278  0.86424708  1
  O  O134  1  0.18174344  0.87585980  0.86418549  1
  O  O135  1  0.68051476  0.87579923  0.86429141  1
  O  O136  1  0.25719715  0.63871477  0.86453531  1
  O  O137  1  0.75639218  0.63666168  0.86399738  1
  O  O138  1  0.01223535  0.82593096  0.40972343  1
  O  O139  1  0.51181586  0.81938780  0.40844602  1
  O  O140  1  0.39877931  0.97610878  0.40717278  1
  O  O141  1  0.90015264  0.97545780  0.41020803  1
  O  O142  1  0.08766769  0.19901625  0.40971499  1
  O  O143  1  0.58952588  0.20444402  0.40851772  1
  O  O144  1  0.01258262  0.20284581  0.90948533  1
  O  O145  1  0.51186341  0.19803512  0.91076408  1
  O  O146  1  0.08896553  0.97554623  0.90948512  1
  O  O147  1  0.58703321  0.97542750  0.91086091  1
  O  O148  1  0.40060783  0.82576651  0.91098487  1
  O  O149  1  0.89898684  0.82216116  0.90908641  1
  O  O150  1  0.48806246  0.17834889  0.59131841  1
  O  O151  1  0.98840486  0.17359199  0.59024174  1
  O  O152  1  0.09859403  0.02278841  0.59015810  1
  O  O153  1  0.60096961  0.02431784  0.59140366  1
  O  O154  1  0.41124388  0.79803348  0.59157089  1
  O  O155  1  0.91287137  0.80281430  0.59012419  1
  O  O156  1  0.48718092  0.80161294  0.09078268  1
  O  O157  1  0.98886024  0.79870257  0.09207894  1
  O  O158  1  0.41298841  0.02353025  0.09097073  1
  O  O159  1  0.91068250  0.02468386  0.09117686  1
  O  O160  1  0.10141580  0.17692995  0.09156893  1
  O  O161  1  0.59840086  0.17446801  0.09026656  1
  O  O162  1  0.34553615  0.15938416  0.74287785  1
  O  O163  1  0.84583004  0.16025450  0.74351207  1
  O  O164  1  0.23428844  0.30864843  0.74365032  1
  O  O165  1  0.73430583  0.30905948  0.74270003  1
  O  O166  1  0.42017419  0.53141853  0.74269766  1
  O  O167  1  0.92001349  0.53149970  0.74367498  1
  O  O168  1  0.34555477  0.53372613  0.24285005  1
  O  O169  1  0.84552970  0.53169257  0.24262215  1
  O  O170  1  0.42123181  0.30913858  0.24321153  1
  O  O171  1  0.92065955  0.30886682  0.24230253  1
  O  O172  1  0.23367839  0.15777108  0.24250947  1
  O  O173  1  0.73349962  0.15921859  0.24350896  1
  O  O174  1  0.32100713  0.50831383  0.92467479  1
  O  O175  1  0.82168740  0.50751054  0.92422517  1
  O  O176  1  0.43264154  0.35668417  0.92436968  1
  O  O177  1  0.93245853  0.35786233  0.92456606  1
  O  O178  1  0.24641057  0.13509015  0.92462746  1
  O  O179  1  0.74583520  0.13442869  0.92428594  1
  O  O180  1  0.32243231  0.13663929  0.42318772  1
  O  O181  1  0.82108619  0.13476719  0.42383426  1
  O  O182  1  0.24636289  0.35682707  0.42324460  1
  O  O183  1  0.74612037  0.35650120  0.42365244  1
  O  O184  1  0.43165811  0.50659869  0.42344900  1
  O  O185  1  0.93235746  0.50838918  0.42347993  1
  O  O186  1  0.17939121  0.48892817  0.07559086  1
  O  O187  1  0.67842217  0.48757925  0.07442546  1
  O  O188  1  0.06557528  0.64254412  0.07443751  1
  O  O189  1  0.56470911  0.64199632  0.07596092  1
  O  O190  1  0.25582564  0.86969583  0.07556851  1
  O  O191  1  0.75600688  0.86954499  0.07492247  1
  O  O192  1  0.17912440  0.87055562  0.57416413  1
  O  O193  1  0.67864029  0.87068236  0.57475993  1
  O  O194  1  0.25632588  0.64253558  0.57443049  1
  O  O195  1  0.75661693  0.64214815  0.57457566  1
  O  O196  1  0.06438786  0.48619638  0.57484009  1
  O  O197  1  0.56499373  0.48820690  0.57398109  1
  O  O198  1  0.15604566  0.84393300  0.25851626  1
  O  O199  1  0.65356998  0.84299548  0.25942575  1
  O  O200  1  0.26652911  0.68993767  0.25879803  1
  O  O201  1  0.76713776  0.69100781  0.25839718  1
  O  O202  1  0.07879443  0.46539448  0.25798815  1
  O  O203  1  0.57820890  0.46708987  0.25914999  1
  O  O204  1  0.15425234  0.46437540  0.75971341  1
  O  O205  1  0.65429611  0.46518912  0.75864477  1
  O  O206  1  0.07802046  0.69112359  0.75980139  1
  O  O207  1  0.57819574  0.69172197  0.75843575  1
  O  O208  1  0.26752467  0.84364989  0.75865895  1
  O  O209  1  0.76754631  0.84393475  0.75965234  1
