# generated using pymatgen
data_Na3ScSi2SnSO12
_symmetry_space_group_name_H-M   'P 1'
_cell_length_a   9.07617178
_cell_length_b   9.07617145
_cell_length_c   22.75145028
_cell_angle_alpha   88.94920558
_cell_angle_beta   91.05079440
_cell_angle_gamma   119.49751401
_symmetry_Int_Tables_number   1
_chemical_formula_structural   Na3ScSi2SnSO12
_chemical_formula_sum   'Na18 Sc6 Si12 Sn6 S6 O72'
_cell_volume   1630.88759467
_cell_formula_units_Z   6
loop_
 _symmetry_equiv_pos_site_id
 _symmetry_equiv_pos_as_xyz
  1  'x, y, z'
loop_
 _atom_site_type_symbol
 _atom_site_label
 _atom_site_symmetry_multiplicity
 _atom_site_fract_x
 _atom_site_fract_y
 _atom_site_fract_z
 _atom_site_occupancy
  Na  Na0  1  0.62864103  0.99769875  0.24592242  1
  Na  Na1  1  0.99673433  0.64332281  0.24638592  1
  Na  Na2  1  0.00230125  0.37135897  0.74592242  1
  Na  Na3  1  0.35667719  0.00326567  0.74638592  1
  Na  Na4  1  0.29530803  0.33103175  0.57925542  1
  Na  Na5  1  0.66340133  0.97665581  0.57971892  1
  Na  Na6  1  0.66896825  0.70469197  0.07925542  1
  Na  Na7  1  0.02334419  0.33659867  0.07971892  1
  Na  Na8  1  0.96197403  0.66436575  0.91258942  1
  Na  Na9  1  0.33006733  0.30998981  0.91305292  1
  Na  Na10  1  0.33563425  0.03802597  0.41258942  1
  Na  Na11  1  0.69001019  0.66993267  0.41305292  1
  Na  Na12  1  0.00539067  0.01922454  0.49721856  1
  Na  Na13  1  0.98077546  0.99460933  0.99721856  1
  Na  Na14  1  0.67205767  0.35255754  0.83055156  1
  Na  Na15  1  0.64744246  0.32794233  0.33055156  1
  Na  Na16  1  0.33872367  0.68589154  0.16388556  1
  Na  Na17  1  0.31410846  0.66127633  0.66388556  1
  Sc  Sc18  1  0.00365156  0.00494100  0.35231513  1
  Sc  Sc19  1  0.99505900  0.99634844  0.85231513  1
  Sc  Sc20  1  0.67031856  0.33827400  0.68564813  1
  Sc  Sc21  1  0.66172600  0.32968144  0.18564813  1
  Sc  Sc22  1  0.33698456  0.67160800  0.01898213  1
  Sc  Sc23  1  0.32839200  0.66301544  0.51898213  1
  Si  Si24  1  0.29391413  0.00077202  0.25341391  1
  Si  Si25  1  0.70484702  0.70154321  0.25200510  1
  Si  Si26  1  0.29845679  0.29515298  0.75200510  1
  Si  Si27  1  0.99922798  0.70608587  0.75341391  1
  Si  Si28  1  0.96058113  0.33410502  0.58674691  1
  Si  Si29  1  0.37151402  0.03487621  0.58533810  1
  Si  Si30  1  0.96512379  0.62848598  0.08533810  1
  Si  Si31  1  0.66589498  0.03941887  0.08674691  1
  Si  Si32  1  0.62724713  0.66743902  0.92008091  1
  Si  Si33  1  0.03818002  0.36821021  0.91867210  1
  Si  Si34  1  0.63178979  0.96181998  0.41867210  1
  Si  Si35  1  0.33256098  0.37275287  0.42008091  1
  Sn  Sn36  1  0.02126676  0.00943797  0.64915021  1
  Sn  Sn37  1  0.99056203  0.97873324  0.14915021  1
  Sn  Sn38  1  0.68793376  0.34277097  0.98248321  1
  Sn  Sn39  1  0.65722903  0.31206624  0.48248321  1
  Sn  Sn40  1  0.35459976  0.67610497  0.31581721  1
  Sn  Sn41  1  0.32389503  0.64540024  0.81581721  1
  S  S42  1  0.00489469  0.29548202  0.24911308  1
  S  S43  1  0.70451798  0.99510531  0.74911308  1
  S  S44  1  0.67156169  0.62881502  0.58244608  1
  S  S45  1  0.37118498  0.32843831  0.08244608  1
  S  S46  1  0.33822769  0.96214902  0.91578008  1
  S  S47  1  0.03785098  0.66177231  0.41578008  1
  O  O48  1  0.20623599  0.02326506  0.31098291  1
  O  O49  1  0.82377867  0.79410162  0.30887852  1
  O  O50  1  0.97865459  0.18533244  0.30078123  1
  O  O51  1  0.20589838  0.17622133  0.80887852  1
  O  O52  1  0.97673494  0.79376401  0.81098291  1
  O  O53  1  0.81466756  0.02134541  0.80078123  1
  O  O54  1  0.77669143  0.96670077  0.69504022  1
  O  O55  1  0.17462441  0.22173476  0.69224827  1
  O  O56  1  0.03650042  0.82898427  0.69421313  1
  O  O57  1  0.77826524  0.82537559  0.19224827  1
  O  O58  1  0.03329923  0.22330857  0.19504022  1
  O  O59  1  0.17101573  0.96349958  0.19421313  1
  O  O60  1  0.87290299  0.35659806  0.64431591  1
  O  O61  1  0.49044567  0.12743462  0.64221152  1
  O  O62  1  0.64532159  0.51866544  0.63411423  1
  O  O63  1  0.87256538  0.50955433  0.14221152  1
  O  O64  1  0.64340194  0.12709701  0.14431591  1
  O  O65  1  0.48133456  0.35467841  0.13411423  1
  O  O66  1  0.44335843  0.30003377  0.02837322  1
  O  O67  1  0.84129141  0.55506776  0.02558127  1
  O  O68  1  0.70316742  0.16231727  0.02754613  1
  O  O69  1  0.44493224  0.15870859  0.52558127  1
  O  O70  1  0.69996623  0.55664157  0.52837322  1
  O  O71  1  0.83768273  0.29683258  0.52754613  1
  O  O72  1  0.53956899  0.68993206  0.97764991  1
  O  O73  1  0.15711167  0.46076862  0.97554552  1
  O  O74  1  0.31198759  0.85199944  0.96744823  1
  O  O75  1  0.53923138  0.84288833  0.47554552  1
  O  O76  1  0.31006794  0.46043101  0.47764991  1
  O  O77  1  0.14800056  0.68801241  0.46744823  1
  O  O78  1  0.11002443  0.63336777  0.36170722  1
  O  O79  1  0.50795741  0.88840176  0.35891527  1
  O  O80  1  0.36983342  0.49565127  0.36088013  1
  O  O81  1  0.11159824  0.49204259  0.85891527  1
  O  O82  1  0.36663223  0.88997557  0.86170722  1
  O  O83  1  0.50434873  0.63016658  0.86088013  1
  O  O84  1  0.02302559  0.81740231  0.41128736  1
  O  O85  1  0.81258643  0.96817288  0.41158031  1
  O  O86  1  0.17839352  0.17986081  0.41309948  1
  O  O87  1  0.03182712  0.18741357  0.91158031  1
  O  O88  1  0.18259769  0.97697441  0.91128736  1
  O  O89  1  0.82013919  0.82160648  0.91309948  1
  O  O90  1  0.96166560  0.14718049  0.59018851  1
  O  O91  1  0.18447742  0.02658703  0.58659028  1
  O  O92  1  0.81831086  0.80254036  0.58958544  1
  O  O93  1  0.97341297  0.81552258  0.08659028  1
  O  O94  1  0.85281951  0.03833440  0.09018851  1
  O  O95  1  0.19745964  0.18168914  0.08958544  1
  O  O96  1  0.68969259  0.15073531  0.74462036  1
  O  O97  1  0.47925343  0.30150588  0.74491331  1
  O  O98  1  0.84506052  0.51319381  0.74643248  1
  O  O99  1  0.69849412  0.52074657  0.24491331  1
  O  O100  1  0.84926469  0.31030741  0.24462036  1
  O  O101  1  0.48680619  0.15493948  0.24643248  1
  O  O102  1  0.62833260  0.48051349  0.92352151  1
  O  O103  1  0.85114442  0.35992003  0.91992328  1
  O  O104  1  0.48497786  0.13587336  0.92291844  1
  O  O105  1  0.64007997  0.14885558  0.41992328  1
  O  O106  1  0.51948651  0.37166740  0.42352151  1
  O  O107  1  0.86412664  0.51502214  0.42291844  1
  O  O108  1  0.35635859  0.48406931  0.07795436  1
  O  O109  1  0.14591943  0.63483988  0.07824731  1
  O  O110  1  0.51172652  0.84652781  0.07976648  1
  O  O111  1  0.36516012  0.85408057  0.57824731  1
  O  O112  1  0.51593069  0.64364141  0.57795436  1
  O  O113  1  0.15347219  0.48827348  0.57976648  1
  O  O114  1  0.29499860  0.81384749  0.25685551  1
  O  O115  1  0.51781042  0.69325403  0.25325728  1
  O  O116  1  0.15164386  0.46920736  0.25625244  1
  O  O117  1  0.30674597  0.48218958  0.75325728  1
  O  O118  1  0.18615251  0.70500140  0.75685551  1
  O  O119  1  0.53079264  0.84835614  0.75625244  1
