# generated using pymatgen
data_Na7Mg3TiP5SO24
_symmetry_space_group_name_H-M   'P 1'
_cell_length_a   8.94852138
_cell_length_b   8.93236379
_cell_length_c   21.95209781
_cell_angle_alpha   89.80248346
_cell_angle_beta   90.24567161
_cell_angle_gamma   119.89066698
_symmetry_Int_Tables_number   1
_chemical_formula_structural   Na7Mg3TiP5SO24
_chemical_formula_sum   'Na21 Mg9 Ti3 P15 S3 O72'
_cell_volume   1521.23836072
_cell_formula_units_Z   3
loop_
 _symmetry_equiv_pos_site_id
 _symmetry_equiv_pos_as_xyz
  1  'x, y, z'
loop_
 _atom_site_type_symbol
 _atom_site_label
 _atom_site_symmetry_multiplicity
 _atom_site_fract_x
 _atom_site_fract_y
 _atom_site_fract_z
 _atom_site_occupancy
  Na  Na0  1  0.62511873  0.99961039  0.25097667  1
  Na  Na1  1  0.36469747  0.35751433  0.25232762  1
  Na  Na2  1  0.00834359  0.64258519  0.24961146  1
  Na  Na3  1  0.64405562  0.63609027  0.74922041  1
  Na  Na4  1  0.99453633  0.35608584  0.74995469  1
  Na  Na5  1  0.29800147  0.33891483  0.58590221  1
  Na  Na6  1  0.03022099  0.69745269  0.58716167  1
  Na  Na7  1  0.67081590  0.96184005  0.58506498  1
  Na  Na8  1  0.29705900  0.96254256  0.08173166  1
  Na  Na9  1  0.66337503  0.70005262  0.07789150  1
  Na  Na10  1  0.03758762  0.33592181  0.07863761  1
  Na  Na11  1  0.97294650  0.67498183  0.91146656  1
  Na  Na12  1  0.32699476  0.29883251  0.91116664  1
  Na  Na13  1  0.32794022  0.02543446  0.41369071  1
  Na  Na14  1  0.69311658  0.67237720  0.41806935  1
  Na  Na15  1  0.99541389  0.01128258  0.49699864  1
  Na  Na16  1  0.98928869  0.00074106  0.99487715  1
  Na  Na17  1  0.65615332  0.31163954  0.82776661  1
  Na  Na18  1  0.66661666  0.32413764  0.33503344  1
  Na  Na19  1  0.33182888  0.67241079  0.16265316  1
  Na  Na20  1  0.33405336  0.67107630  0.66824712  1
  Mg  Mg21  1  0.00666022  0.00798575  0.35385797  1
  Mg  Mg22  1  0.99707200  0.00207923  0.84953831  1
  Mg  Mg23  1  0.99595363  0.99905703  0.65488306  1
  Mg  Mg24  1  0.00611120  0.99891763  0.14556238  1
  Mg  Mg25  1  0.66535793  0.33352861  0.68695815  1
  Mg  Mg26  1  0.66124827  0.32869625  0.18090772  1
  Mg  Mg27  1  0.33503963  0.66717629  0.01602669  1
  Mg  Mg28  1  0.33270910  0.66162811  0.51422398  1
  Mg  Mg29  1  0.33136830  0.67004906  0.32269015  1
  Ti  Ti30  1  0.66790669  0.32890180  0.97990343  1
  Ti  Ti31  1  0.68150125  0.34156999  0.47949960  1
  Ti  Ti32  1  0.33608613  0.67543600  0.81455250  1
  P  P33  1  0.29606929  0.99873345  0.25003539  1
  P  P34  1  0.29641438  0.29734131  0.75164028  1
  P  P35  1  0.00410373  0.70707868  0.75090415  1
  P  P36  1  0.70243984  0.99903820  0.74988857  1
  P  P37  1  0.96080221  0.33534167  0.58500321  1
  P  P38  1  0.66567136  0.62517675  0.58369545  1
  P  P39  1  0.95744275  0.62317898  0.08439317  1
  P  P40  1  0.66613710  0.03976590  0.08490643  1
  P  P41  1  0.37525423  0.33579057  0.08366072  1
  P  P42  1  0.62767564  0.66776369  0.91881792  1
  P  P43  1  0.03938989  0.37289515  0.91843125  1
  P  P44  1  0.33564362  0.95999010  0.91908615  1
  P  P45  1  0.63111258  0.96543047  0.41772370  1
  P  P46  1  0.33495564  0.37001854  0.41778084  1
  P  P47  1  0.03792551  0.66620522  0.41687187  1
  S  S48  1  0.70597070  0.70649962  0.24985241  1
  S  S49  1  0.00016064  0.29328169  0.24916382  1
  S  S50  1  0.37694857  0.04321208  0.58265199  1
  O  O51  1  0.21008208  0.02467851  0.30657579  1
  O  O52  1  0.81036694  0.78963450  0.30470214  1
  O  O53  1  0.97316250  0.18222806  0.30224780  1
  O  O54  1  0.21144614  0.19144349  0.80849680  1
  O  O55  1  0.97608300  0.79091809  0.80683427  1
  O  O56  1  0.82129201  0.02775548  0.80342094  1
  O  O57  1  0.76835730  0.95527248  0.69087153  1
  O  O58  1  0.18403810  0.22300771  0.69353556  1
  O  O59  1  0.03283942  0.81148641  0.69188169  1
  O  O60  1  0.78599507  0.81250419  0.19480489  1
  O  O61  1  0.02219278  0.21463102  0.19300014  1
  O  O62  1  0.18539073  0.97241692  0.19248016  1
  O  O63  1  0.87629419  0.35909999  0.64114461  1
  O  O64  1  0.48491844  0.12570584  0.63551388  1
  O  O65  1  0.63828849  0.51357053  0.63959350  1
  O  O66  1  0.87618729  0.51503993  0.14187712  1
  O  O67  1  0.63892657  0.11785035  0.14289836  1
  O  O68  1  0.48298184  0.36441259  0.14145772  1
  O  O69  1  0.47138722  0.31112096  0.02750265  1
  O  O70  1  0.83873718  0.52646381  0.02756574  1
  O  O71  1  0.68952968  0.16437040  0.02960662  1
  O  O72  1  0.45760172  0.14760529  0.52597715  1
  O  O73  1  0.68510314  0.52653626  0.52624780  1
  O  O74  1  0.83757712  0.31351351  0.52851105  1
  O  O75  1  0.54593151  0.68801507  0.97640261  1
  O  O76  1  0.14654951  0.45524095  0.97573145  1
  O  O77  1  0.30625102  0.85309286  0.97650146  1
  O  O78  1  0.54633980  0.85347990  0.47412792  1
  O  O79  1  0.31499376  0.45499891  0.47465780  1
  O  O80  1  0.15028221  0.69633206  0.47307609  1
  O  O81  1  0.11100796  0.63411619  0.35865956  1
  O  O82  1  0.51756585  0.89087263  0.36012712  1
  O  O83  1  0.37196304  0.48295717  0.35997797  1
  O  O84  1  0.12712669  0.49411309  0.86204158  1
  O  O85  1  0.35916256  0.86318894  0.86360224  1
  O  O86  1  0.50699233  0.63612957  0.86230956  1
  O  O87  1  0.00683349  0.82161200  0.41132876  1
  O  O88  1  0.80979084  0.98304744  0.41021063  1
  O  O89  1  0.18262487  0.18482261  0.41220547  1
  O  O90  1  0.02077509  0.19479558  0.91078810  1
  O  O91  1  0.17876223  0.98508061  0.91048590  1
  O  O92  1  0.81163931  0.81744441  0.91132088  1
  O  O93  1  0.97510281  0.16951495  0.58504225  1
  O  O94  1  0.20292391  0.02737918  0.58649826  1
  O  O95  1  0.83352316  0.80331721  0.58417180  1
  O  O96  1  0.96857977  0.80200657  0.08553510  1
  O  O97  1  0.83238031  0.02691377  0.08642407  1
  O  O98  1  0.19547698  0.17028645  0.08548538  1
  O  O99  1  0.68074162  0.15789424  0.74314249  1
  O  O100  1  0.48172733  0.33086062  0.74561330  1
  O  O101  1  0.84592655  0.52182328  0.74628164  1
  O  O102  1  0.69064035  0.53213402  0.24561263  1
  O  O103  1  0.84644688  0.31748486  0.24537066  1
  O  O104  1  0.47988383  0.16336604  0.24611105  1
  O  O105  1  0.63882835  0.49377194  0.92285979  1
  O  O106  1  0.85727740  0.36251367  0.92375096  1
  O  O107  1  0.50170809  0.14469258  0.92302698  1
  O  O108  1  0.64530809  0.14876752  0.42583601  1
  O  O109  1  0.50428628  0.35126794  0.42417524  1
  O  O110  1  0.84975315  0.50108731  0.42434452  1
  O  O111  1  0.35385230  0.49607891  0.07719326  1
  O  O112  1  0.13886466  0.64489628  0.07817078  1
  O  O113  1  0.50615616  0.85975570  0.07727767  1
  O  O114  1  0.35573278  0.86697435  0.57716557  1
  O  O115  1  0.50609044  0.64830712  0.57676146  1
  O  O116  1  0.13997112  0.49809541  0.57699011  1
  O  O117  1  0.31631990  0.83457003  0.25472062  1
  O  O118  1  0.52922535  0.68392666  0.25443411  1
  O  O119  1  0.15851736  0.46693691  0.25499207  1
  O  O120  1  0.31328833  0.48526220  0.75876574  1
  O  O121  1  0.16829344  0.68291006  0.75883026  1
  O  O122  1  0.51853962  0.82997159  0.76021811  1
