# generated using pymatgen
data_Na7Hf2Zr2Si5PO24
_symmetry_space_group_name_H-M   'P 1'
_cell_length_a   9.19729885
_cell_length_b   9.20241465
_cell_length_c   22.82625465
_cell_angle_alpha   89.94322826
_cell_angle_beta   90.02130226
_cell_angle_gamma   120.02855523
_symmetry_Int_Tables_number   1
_chemical_formula_structural   Na7Hf2Zr2Si5PO24
_chemical_formula_sum   'Na21 Hf6 Zr6 Si15 P3 O72'
_cell_volume   1672.63866690
_cell_formula_units_Z   3
loop_
 _symmetry_equiv_pos_site_id
 _symmetry_equiv_pos_as_xyz
  1  'x, y, z'
loop_
 _atom_site_type_symbol
 _atom_site_label
 _atom_site_symmetry_multiplicity
 _atom_site_fract_x
 _atom_site_fract_y
 _atom_site_fract_z
 _atom_site_occupancy
  Na  Na0  1  0.63592076  0.00103657  0.25112337  1
  Na  Na1  1  0.36449703  0.36503245  0.24846529  1
  Na  Na2  1  0.00042491  0.63318189  0.25039901  1
  Na  Na3  1  0.63365338  0.63311587  0.74882866  1
  Na  Na4  1  0.99942869  0.36524503  0.74985991  1
  Na  Na5  1  0.36712021  0.00169441  0.75009963  1
  Na  Na6  1  0.30089335  0.33287994  0.58425669  1
  Na  Na7  1  0.03206986  0.70021422  0.58343368  1
  Na  Na8  1  0.66805810  0.96716111  0.58385344  1
  Na  Na9  1  0.29575339  0.96833614  0.08170439  1
  Na  Na10  1  0.03658077  0.33665974  0.08552195  1
  Na  Na11  1  0.97225613  0.66874544  0.91698570  1
  Na  Na12  1  0.32980966  0.29593861  0.91785123  1
  Na  Na13  1  0.33146197  0.02914525  0.41674441  1
  Na  Na14  1  0.70234128  0.66880361  0.41812113  1
  Na  Na15  1  0.99627071  0.00515641  0.49925828  1
  Na  Na16  1  0.98823930  0.99353708  0.99996250  1
  Na  Na17  1  0.66756440  0.31924217  0.83386149  1
  Na  Na18  1  0.68026303  0.33125034  0.33490310  1
  Na  Na19  1  0.34058874  0.66228291  0.16594255  1
  Na  Na20  1  0.33439818  0.66606596  0.66668555  1
  Hf  Hf21  1  0.99671505  0.00085990  0.35208957  1
  Hf  Hf22  1  -0.00023651  0.00329117  0.85162213  1
  Hf  Hf23  1  0.99984287  0.99948213  0.64784572  1
  Hf  Hf24  1  0.99893714  0.99580737  0.14798203  1
  Hf  Hf25  1  0.66711343  0.33350055  0.68549953  1
  Hf  Hf26  1  0.67392821  0.33264755  0.48166588  1
  Zr  Zr27  1  0.66804111  0.34046081  0.18555247  1
  Zr  Zr28  1  0.66610728  0.33043364  0.98157536  1
  Zr  Zr29  1  0.33156461  0.66315466  0.01826147  1
  Zr  Zr30  1  0.33342402  0.67025952  0.51840432  1
  Zr  Zr31  1  0.32903770  0.66862508  0.31488544  1
  Zr  Zr32  1  0.33084866  0.67038511  0.81448012  1
  Si  Si33  1  0.29216227  0.00081855  0.25058839  1
  Si  Si34  1  0.70862729  0.70962685  0.25123844  1
  Si  Si35  1  0.00007287  0.29019197  0.24826263  1
  Si  Si36  1  0.29359541  0.29213823  0.74992161  1
  Si  Si37  1  0.99777016  0.70692184  0.75031742  1
  Si  Si38  1  0.70850969  0.00083854  0.74876767  1
  Si  Si39  1  0.96005169  0.33207428  0.58494573  1
  Si  Si40  1  0.37439314  0.04306643  0.58281315  1
  Si  Si41  1  0.66708298  0.62536397  0.58312132  1
  Si  Si42  1  0.96160500  0.63161597  0.08238419  1
  Si  Si43  1  0.36948573  0.33366203  0.08351339  1
  Si  Si44  1  0.03595764  0.36839426  0.91617091  1
  Si  Si45  1  0.33309318  0.96396856  0.91669631  1
  Si  Si46  1  0.63115844  0.96505746  0.41658622  1
  Si  Si47  1  0.03362523  0.66615902  0.41643802  1
  P  P48  1  0.66739009  0.04040033  0.08468381  1
  P  P49  1  0.62745465  0.66823689  0.91611876  1
  P  P50  1  0.33304353  0.37146332  0.41716114  1
  O  O51  1  0.20511050  0.03081636  0.30805354  1
  O  O52  1  0.82572820  0.79363263  0.30927534  1
  O  O53  1  0.96927030  0.16624210  0.30379777  1
  O  O54  1  0.20431891  0.17249451  0.80724923  1
  O  O55  1  0.96918746  0.79535019  0.80776297  1
  O  O56  1  0.83329459  0.03184832  0.80401901  1
  O  O57  1  0.79309008  0.96950000  0.69040109  1
  O  O58  1  0.17431154  0.20486544  0.69245777  1
  O  O59  1  0.02941395  0.82525691  0.69271185  1
  O  O60  1  0.80011852  0.83344765  0.19584913  1
  O  O61  1  0.03053591  0.20636591  0.18969642  1
  O  O62  1  0.17335834  0.97076511  0.19312917  1
  O  O63  1  0.87553693  0.36516279  0.64284514  1
  O  O64  1  0.49296752  0.12945351  0.64039932  1
  O  O65  1  0.63745815  0.50776094  0.64099785  1
  O  O66  1  0.87542600  0.51043326  0.13991017  1
  O  O67  1  0.63935050  0.12050822  0.13999465  1
  O  O68  1  0.48246280  0.35284447  0.14187416  1
  O  O69  1  0.46013562  0.30285862  0.02658383  1
  O  O70  1  0.84839058  0.53699135  0.02471292  1
  O  O71  1  0.69498007  0.15663959  0.03178745  1
  O  O72  1  0.46189774  0.16111738  0.52539185  1
  O  O73  1  0.69565866  0.53578618  0.52578331  1
  O  O74  1  0.83445200  0.30064592  0.52953656  1
  O  O75  1  0.53920491  0.69008773  0.96893646  1
  O  O76  1  0.15787366  0.46066040  0.97339211  1
  O  O77  1  0.30731686  0.84492338  0.97400061  1
  O  O78  1  0.54084962  0.84375194  0.47394505  1
  O  O79  1  0.31051518  0.45574440  0.47181463  1
  O  O80  1  0.15429456  0.69332177  0.47351370  1
  O  O81  1  0.12414341  0.64149891  0.35827810  1
  O  O82  1  0.51107826  0.87122885  0.35924161  1
  O  O83  1  0.35867573  0.48204190  0.36253519  1
  O  O84  1  0.12878533  0.48815729  0.85894924  1
  O  O85  1  0.35743983  0.87366198  0.85837366  1
  O  O86  1  0.52012002  0.64069440  0.86040238  1
  O  O87  1  0.02554564  0.84022728  0.41212673  1
  O  O88  1  0.81244555  0.97507135  0.41144236  1
  O  O89  1  0.18011561  0.19375877  0.41139424  1
  O  O90  1  0.02732203  0.18797549  0.91138678  1
  O  O91  1  0.15916411  0.97293283  0.91184263  1
  O  O92  1  0.80609839  0.82033634  0.91099392  1
  O  O93  1  0.97754354  0.16427854  0.58878980  1
  O  O94  1  0.18803836  0.02287549  0.58861674  1
  O  O95  1  0.83493348  0.81121995  0.58841353  1
  O  O96  1  0.98737066  0.81922539  0.08777504  1
  O  O97  1  0.82852473  0.03010355  0.08934820  1
  O  O98  1  0.18265938  0.16487697  0.08799279  1
  O  O99  1  0.68879301  0.16755196  0.74448798  1
  O  O100  1  0.47856072  0.30862632  0.74462160  1
  O  O101  1  0.83115319  0.52113386  0.74499367  1
  O  O102  1  0.69219634  0.52413031  0.24509337  1
  O  O103  1  0.83242100  0.30935603  0.24447491  1
  O  O104  1  0.47960489  0.16509748  0.24484458  1
  O  O105  1  0.64182093  0.50785387  0.92208595  1
  O  O106  1  0.85681367  0.36276665  0.92162116  1
  O  O107  1  0.49245523  0.15460593  0.92102968  1
  O  O108  1  0.63389313  0.14307052  0.42193947  1
  O  O109  1  0.49317162  0.35747653  0.42205752  1
  O  O110  1  0.84363178  0.50639397  0.42146857  1
  O  O111  1  0.34608259  0.49772830  0.07923069  1
  O  O112  1  0.14983946  0.65003254  0.07788617  1
  O  O113  1  0.50882435  0.86973406  0.07724585  1
  O  O114  1  0.35591986  0.85628733  0.57786607  1
  O  O115  1  0.49848555  0.64247689  0.57821987  1
  O  O116  1  0.14600658  0.49826106  0.57777376  1
  O  O117  1  0.30937846  0.83178558  0.25464388  1
  O  O118  1  0.52068234  0.68544194  0.25630446  1
  O  O119  1  0.16840367  0.47566705  0.25512238  1
  O  O120  1  0.31452330  0.47886702  0.75567763  1
  O  O121  1  0.16637496  0.68839155  0.75455316  1
  O  O122  1  0.52312020  0.83222287  0.75490947  1
