# generated using pymatgen
data_K4Mg(MoO4)2
_symmetry_space_group_name_H-M   'P 1'
_cell_length_a   6.48795611
_cell_length_b   7.79710628
_cell_length_c   7.65214877
_cell_angle_alpha   118.33987425
_cell_angle_beta   89.99999907
_cell_angle_gamma   114.58539796
_symmetry_Int_Tables_number   1
_chemical_formula_structural   K4Mg(MoO4)2
_chemical_formula_sum   'K4 Mg1 Mo2 O8'
_cell_volume   300.23758962
_cell_formula_units_Z   1
loop_
 _symmetry_equiv_pos_site_id
 _symmetry_equiv_pos_as_xyz
  1  'x, y, z'
loop_
 _atom_site_type_symbol
 _atom_site_label
 _atom_site_symmetry_multiplicity
 _atom_site_fract_x
 _atom_site_fract_y
 _atom_site_fract_z
 _atom_site_occupancy
  K  K0  1  0.46139041  0.92277982  0.23136674  1
  K  K1  1  0.47830884  0.95661868  0.79456998  1
  K  K2  1  0.17691472  0.35382845  0.77913178  1
  K  K3  1  0.90042880  0.80085861  0.26113746  1
  Mg  Mg4  1  0.70407006  0.40814112  0.31809694  1
  Mo  Mo5  1  0.18826276  0.37652652  0.26370539  1
  Mo  Mo6  1  0.81661215  0.63322330  0.75700834  1
  O  O7  1  0.41404474  0.30552492  0.12614620  1
  O  O8  1  0.08883268  0.70088665  0.90610894  1
  O  O9  1  0.61205297  0.70088665  0.90610894  1
  O  O10  1  0.89148118  0.30552492  0.12614620  1
  O  O11  1  0.86153963  0.72307826  0.55878699  1
  O  O12  1  0.10909326  0.21818751  0.39155706  1
  O  O13  1  0.34006136  0.68012373  0.39448235  1
  O  O14  1  0.66523943  0.33047786  0.53564669  1
