# generated using pymatgen
data_Na2Ta4Si7Sn4S5O48
_symmetry_space_group_name_H-M   'P 1'
_cell_length_a   17.73142096
_cell_length_b   8.84190980
_cell_length_c   22.96176093
_cell_angle_alpha   90.16057099
_cell_angle_beta   89.71468945
_cell_angle_gamma   119.97067712
_symmetry_Int_Tables_number   1
_chemical_formula_structural   Na2Ta4Si7Sn4S5O48
_chemical_formula_sum   'Na6 Ta12 Si21 Sn12 S15 O144'
_cell_volume   3118.51816487
_cell_formula_units_Z   3
loop_
 _symmetry_equiv_pos_site_id
 _symmetry_equiv_pos_as_xyz
  1  'x, y, z'
loop_
 _atom_site_type_symbol
 _atom_site_label
 _atom_site_symmetry_multiplicity
 _atom_site_fract_x
 _atom_site_fract_y
 _atom_site_fract_z
 _atom_site_occupancy
  Na  Na0  1  0.99593667  0.00704608  0.49843432  1
  Na  Na1  1  0.49524187  0.98432713  0.00246537  1
  Na  Na2  1  0.32699322  0.33304741  0.83889794  1
  Na  Na3  1  0.82462581  0.32931771  0.83846367  1
  Na  Na4  1  0.32857169  0.32160098  0.33577701  1
  Na  Na5  1  0.82495550  0.31923009  0.33758420  1
  Ta  Ta6  1  0.50411417  0.02023542  0.35797835  1
  Ta  Ta7  1  0.00555084  0.00108153  0.86098494  1
  Ta  Ta8  1  0.50165548  0.01614758  0.64190537  1
  Ta  Ta9  1  0.00208191  0.98793669  0.14197928  1
  Ta  Ta10  1  0.33137658  0.34097971  0.68531789  1
  Ta  Ta11  1  0.83371416  0.34431628  0.68571552  1
  Ta  Ta12  1  0.33921442  0.32327887  0.18995639  1
  Ta  Ta13  1  0.83063275  0.32205471  0.18606192  1
  Ta  Ta14  1  0.17336867  0.68847783  0.02484651  1
  Ta  Ta15  1  0.67046762  0.68708800  0.02444345  1
  Ta  Ta16  1  0.17114858  0.65459687  0.52266605  1
  Ta  Ta17  1  0.67138189  0.65557366  0.52178771  1
  Si  Si18  1  0.14345483  0.99685108  0.25156015  1
  Si  Si19  1  0.64241563  0.99668479  0.25084889  1
  Si  Si20  1  0.50500834  0.29168915  0.24990110  1
  Si  Si21  1  0.14335576  0.29002548  0.75113177  1
  Si  Si22  1  0.64366404  0.29108043  0.75177236  1
  Si  Si23  1  0.47674304  0.34371196  0.58190068  1
  Si  Si24  1  0.97774118  0.33704880  0.58207523  1
  Si  Si25  1  0.33640343  0.62518410  0.58195612  1
  Si  Si26  1  0.83770585  0.62822954  0.58201049  1
  Si  Si27  1  0.47658519  0.62263949  0.08342218  1
  Si  Si28  1  0.97612234  0.60972446  0.08223347  1
  Si  Si29  1  0.33996326  0.05261539  0.08270902  1
  Si  Si30  1  0.83723222  0.04960049  0.08229495  1
  Si  Si31  1  0.31284888  0.66564115  0.91753563  1
  Si  Si32  1  0.81008396  0.66164323  0.91778869  1
  Si  Si33  1  0.17214316  0.95573062  0.91558573  1
  Si  Si34  1  0.66880602  0.95755974  0.91532012  1
  Si  Si35  1  0.31164258  0.95776334  0.41768217  1
  Si  Si36  1  0.81106751  0.95541039  0.41559065  1
  Si  Si37  1  0.16841681  0.37807556  0.41442860  1
  Si  Si38  1  0.67174226  0.38443218  0.41473296  1
  Sn  Sn39  1  0.00287222  0.01018409  0.35621183  1
  Sn  Sn40  1  0.50423010  0.99643701  0.85742319  1
  Sn  Sn41  1  0.99947847  0.01255833  0.64559472  1
  Sn  Sn42  1  0.50001340  0.99610705  0.14821374  1
  Sn  Sn43  1  0.33363634  0.33605628  0.98122651  1
  Sn  Sn44  1  0.83263571  0.33319281  0.98008800  1
  Sn  Sn45  1  0.33481890  0.33523459  0.47815529  1
  Sn  Sn46  1  0.83437485  0.33258659  0.47890158  1
  Sn  Sn47  1  0.17230427  0.67967193  0.31364916  1
  Sn  Sn48  1  0.66762916  0.67088406  0.31138298  1
  Sn  Sn49  1  0.17304034  0.66449229  0.81448359  1
  Sn  Sn50  1  0.67100107  0.66336405  0.81486283  1
  S  S51  1  0.35438313  0.70739443  0.25086589  1
  S  S52  1  0.85782583  0.71272200  0.24908625  1
  S  S53  1  0.00030374  0.29131198  0.24902420  1
  S  S54  1  0.00106686  0.71267619  0.75068033  1
  S  S55  1  0.50047866  0.70973496  0.74901437  1
  S  S56  1  0.35674671  0.00234178  0.74940346  1
  S  S57  1  0.85510570  0.00139331  0.75100744  1
  S  S58  1  0.18840377  0.04274337  0.58357770  1
  S  S59  1  0.68842381  0.04294243  0.58464504  1
  S  S60  1  0.18827796  0.33496714  0.08471974  1
  S  S61  1  0.68830752  0.33442609  0.08321348  1
  S  S62  1  0.02262078  0.37892407  0.91639387  1
  S  S63  1  0.52231039  0.37872989  0.91699321  1
  S  S64  1  0.02318897  0.66685000  0.41698517  1
  S  S65  1  0.52323163  0.66988634  0.41704893  1
  O  O66  1  0.10022110  0.03540494  0.30823594  1
  O  O67  1  0.59459352  0.02701434  0.30754780  1
  O  O68  1  0.40892281  0.78639167  0.30248791  1
  O  O69  1  0.91128910  0.78586893  0.30185551  1
  O  O70  1  0.48273775  0.16259552  0.30729565  1
  O  O71  1  0.97910628  0.18214676  0.30212964  1
  O  O72  1  0.09389492  0.16175247  0.80708168  1
  O  O73  1  0.60088234  0.16539124  0.80799040  1
  O  O74  1  0.47930457  0.77696890  0.80213968  1
  O  O75  1  0.98345991  0.79148942  0.80271541  1
  O  O76  1  0.40948376  0.03358865  0.80208695  1
  O  O77  1  0.91053762  0.02981037  0.80213881  1
  O  O78  1  0.39976013  0.97609306  0.69730669  1
  O  O79  1  0.89201321  0.96827591  0.69761432  1
  O  O80  1  0.08718529  0.20031310  0.69318110  1
  O  O81  1  0.58328379  0.18662759  0.69462560  1
  O  O82  1  0.01272995  0.81456509  0.69764717  1
  O  O83  1  0.51105102  0.81744306  0.69768329  1
  O  O84  1  0.39074196  0.81125042  0.19745137  1
  O  O85  1  0.90168350  0.82464337  0.19700967  1
  O  O86  1  0.01094489  0.20440640  0.19759590  1
  O  O87  1  0.51463537  0.20322519  0.19166422  1
  O  O88  1  0.08204945  0.97782517  0.19449135  1
  O  O89  1  0.58868109  0.97064033  0.19199252  1
  O  O90  1  0.42690117  0.35797806  0.64094060  1
  O  O91  1  0.92702217  0.35598885  0.64102488  1
  O  O92  1  0.24389484  0.12859382  0.63666595  1
  O  O93  1  0.74458152  0.12830657  0.63692985  1
  O  O94  1  0.31735016  0.49729220  0.64027785  1
  O  O95  1  0.81875289  0.50026379  0.64050372  1
  O  O96  1  0.42669350  0.49890090  0.14046954  1
  O  O97  1  0.92727373  0.49615665  0.14051849  1
  O  O98  1  0.31877332  0.13772380  0.14001895  1
  O  O99  1  0.81737571  0.13858106  0.13995878  1
  O  O100  1  0.24301023  0.36545245  0.13580087  1
  O  O101  1  0.74429220  0.36146432  0.13565782  1
  O  O102  1  0.22020243  0.29127230  0.03164943  1
  O  O103  1  0.72575476  0.29990441  0.03067527  1
  O  O104  1  0.41738053  0.54294471  0.02574021  1
  O  O105  1  0.91646720  0.54010971  0.02558405  1
  O  O106  1  0.35051744  0.16166393  0.02452432  1
  O  O107  1  0.85436591  0.16659431  0.02586099  1
  O  O108  1  0.22477638  0.15288598  0.53188795  1
  O  O109  1  0.72163140  0.15208409  0.53280407  1
  O  O110  1  0.35392662  0.54006352  0.52664423  1
  O  O111  1  0.85196823  0.53911923  0.52587856  1
  O  O112  1  0.41473180  0.29068410  0.52681149  1
  O  O113  1  0.91521445  0.29356450  0.52675686  1
  O  O114  1  0.26100342  0.68732407  0.97388445  1
  O  O115  1  0.76163441  0.68822381  0.97401441  1
  O  O116  1  0.07602083  0.45338834  0.96790821  1
  O  O117  1  0.57643376  0.46028293  0.96846784  1
  O  O118  1  0.15193536  0.83034557  0.97264805  1
  O  O119  1  0.65423715  0.83351518  0.97304488  1
  O  O120  1  0.26010886  0.83432110  0.47458913  1
  O  O121  1  0.76091077  0.83428893  0.47401824  1
  O  O122  1  0.15348232  0.47241422  0.47331446  1
  O  O123  1  0.65268113  0.47016537  0.47376536  1
  O  O124  1  0.07644703  0.69198945  0.46908652  1
  O  O125  1  0.57652364  0.69605213  0.46958767  1
  O  O126  1  0.05988711  0.63700465  0.36317925  1
  O  O127  1  0.55985617  0.63482802  0.36455968  1
  O  O128  1  0.25284287  0.88326543  0.35957466  1
  O  O129  1  0.75354117  0.87437194  0.35815628  1
  O  O130  1  0.17951431  0.49164390  0.35641744  1
  O  O131  1  0.68672997  0.50061994  0.35816575  1
  O  O132  1  0.05927011  0.48368407  0.86281968  1
  O  O133  1  0.55893761  0.48158245  0.86270996  1
  O  O134  1  0.18181638  0.86876124  0.85570174  1
  O  O135  1  0.68075625  0.86959199  0.85600276  1
  O  O136  1  0.25609485  0.62644848  0.85842769  1
  O  O137  1  0.75423253  0.62317620  0.85834984  1
  O  O138  1  0.01397670  0.82447613  0.41242904  1
  O  O139  1  0.51374279  0.82508469  0.40915733  1
  O  O140  1  0.40409269  0.96189571  0.40669088  1
  O  O141  1  0.90605247  0.96362527  0.41079734  1
  O  O142  1  0.08028484  0.18670495  0.41460079  1
  O  O143  1  0.58293580  0.19212286  0.40853187  1
  O  O144  1  0.01299343  0.20041548  0.90714892  1
  O  O145  1  0.51349628  0.20273160  0.91161106  1
  O  O146  1  0.08246063  0.97072728  0.90629445  1
  O  O147  1  0.58118729  0.97398691  0.91465082  1
  O  O148  1  0.40635474  0.84839120  0.91069430  1
  O  O149  1  0.90520240  0.84071291  0.90297963  1
  O  O150  1  0.48957500  0.17242608  0.59605324  1
  O  O151  1  0.99101984  0.16853871  0.58781919  1
  O  O152  1  0.10088016  0.02156519  0.59174975  1
  O  O153  1  0.60019369  0.02172822  0.59598132  1
  O  O154  1  0.41966617  0.81240731  0.60027400  1
  O  O155  1  0.92346877  0.81586738  0.59365018  1
  O  O156  1  0.49195573  0.81832711  0.08958052  1
  O  O157  1  0.98977437  0.80731170  0.09516904  1
  O  O158  1  0.42193984  0.02419450  0.08979381  1
  O  O159  1  0.91974915  0.02730810  0.09970054  1
  O  O160  1  0.09901879  0.17935031  0.09491732  1
  O  O161  1  0.60203244  0.17990139  0.08934123  1
  O  O162  1  0.34726068  0.15914614  0.74070193  1
  O  O163  1  0.84744625  0.16170529  0.74337231  1
  O  O164  1  0.24092882  0.30464448  0.74234636  1
  O  O165  1  0.74067882  0.30665229  0.74006369  1
  O  O166  1  0.42027944  0.52953745  0.74127399  1
  O  O167  1  0.91962370  0.53367381  0.74432808  1
  O  O168  1  0.34463006  0.53035129  0.24338420  1
  O  O169  1  0.84892730  0.53711962  0.24025966  1
  O  O170  1  0.41444373  0.30766321  0.24368937  1
  O  O171  1  0.92036699  0.31116851  0.24123065  1
  O  O172  1  0.23804481  0.17460707  0.23959388  1
  O  O173  1  0.74117204  0.18246310  0.24170363  1
  O  O174  1  0.32417006  0.49507186  0.92277590  1
  O  O175  1  0.82671901  0.49786484  0.92233614  1
  O  O176  1  0.43464439  0.35886418  0.92093547  1
  O  O177  1  0.93452631  0.35441077  0.92081369  1
  O  O178  1  0.25402968  0.14915583  0.92259126  1
  O  O179  1  0.75583518  0.14774837  0.92199805  1
  O  O180  1  0.32528775  0.15283685  0.42296467  1
  O  O181  1  0.82395072  0.15044803  0.42222894  1
  O  O182  1  0.25532080  0.36330434  0.42225093  1
  O  O183  1  0.75505301  0.35897630  0.42329561  1
  O  O184  1  0.43521181  0.51323600  0.42211877  1
  O  O185  1  0.93525152  0.51032060  0.42101465  1
  O  O186  1  0.17642971  0.48639117  0.07509305  1
  O  O187  1  0.68180132  0.49237980  0.07610783  1
  O  O188  1  0.07148836  0.63015259  0.07188967  1
  O  O189  1  0.57059787  0.63004575  0.07154318  1
  O  O190  1  0.25015136  0.85902328  0.07492526  1
  O  O191  1  0.75058201  0.85744023  0.07513980  1
  O  O192  1  0.18123338  0.87166194  0.57723465  1
  O  O193  1  0.67855388  0.87065951  0.57763857  1
  O  O194  1  0.25026032  0.64467601  0.57534049  1
  O  O195  1  0.75020420  0.64517603  0.57472412  1
  O  O196  1  0.07089405  0.51543125  0.57260031  1
  O  O197  1  0.57177770  0.51380835  0.57284813  1
  O  O198  1  0.15028465  0.82147043  0.25626096  1
  O  O199  1  0.65958092  0.83756481  0.25840058  1
  O  O200  1  0.26640146  0.68588441  0.25609389  1
  O  O201  1  0.77223384  0.69612854  0.25262683  1
  O  O202  1  0.07687595  0.46401085  0.25587971  1
  O  O203  1  0.58580164  0.48134519  0.25976946  1
  O  O204  1  0.15270324  0.48050998  0.75796227  1
  O  O205  1  0.65167208  0.48102392  0.75626589  1
  O  O206  1  0.07608324  0.68858133  0.75861366  1
  O  O207  1  0.57686386  0.68964430  0.75584430  1
  O  O208  1  0.26973235  0.84666044  0.75293964  1
  O  O209  1  0.76742931  0.84878514  0.75615475  1
