# generated using pymatgen
data_In2(TeO3)3
_symmetry_space_group_name_H-M   'P 1'
_cell_length_a   5.47474099
_cell_length_b   8.14142989
_cell_length_c   18.31260433
_cell_angle_alpha   90.00000000
_cell_angle_beta   90.00000000
_cell_angle_gamma   90.00000000
_symmetry_Int_Tables_number   1
_chemical_formula_structural   In2(TeO3)3
_chemical_formula_sum   'In8 Te12 O36'
_cell_volume   816.23342780
_cell_formula_units_Z   4
loop_
 _symmetry_equiv_pos_site_id
 _symmetry_equiv_pos_as_xyz
  1  'x, y, z'
loop_
 _atom_site_type_symbol
 _atom_site_label
 _atom_site_symmetry_multiplicity
 _atom_site_fract_x
 _atom_site_fract_y
 _atom_site_fract_z
 _atom_site_occupancy
  In  In0  1  0.70623935  0.68692122  0.06307359  1
  In  In1  1  0.79376065  0.18692122  0.43692641  1
  In  In2  1  0.20623935  0.81307878  0.93692641  1
  In  In3  1  0.29376065  0.31307878  0.93692641  1
  In  In4  1  0.70623935  0.68692122  0.43692641  1
  In  In5  1  0.29376065  0.31307878  0.56307359  1
  In  In6  1  0.20623935  0.81307878  0.56307359  1
  In  In7  1  0.79376065  0.18692122  0.06307359  1
  Te  Te8  1  0.72783017  0.15298883  0.25000000  1
  Te  Te9  1  0.81410290  0.13501575  0.86901594  1
  Te  Te10  1  0.18589710  0.86498425  0.13098406  1
  Te  Te11  1  0.22783017  0.34701117  0.75000000  1
  Te  Te12  1  0.68589710  0.63501575  0.86901594  1
  Te  Te13  1  0.68589710  0.63501575  0.63098406  1
  Te  Te14  1  0.31410290  0.36498425  0.36901594  1
  Te  Te15  1  0.18589710  0.86498425  0.36901594  1
  Te  Te16  1  0.31410290  0.36498425  0.13098406  1
  Te  Te17  1  0.81410290  0.13501575  0.63098406  1
  Te  Te18  1  0.27216983  0.84701117  0.75000000  1
  Te  Te19  1  0.77216983  0.65298883  0.25000000  1
  O  O20  1  0.45813597  0.15345584  0.12486323  1
  O  O21  1  0.37473830  0.82296365  0.04179262  1
  O  O22  1  0.04186403  0.65345584  0.37513677  1
  O  O23  1  0.04186403  0.65345584  0.12486323  1
  O  O24  1  0.37473830  0.82296365  0.45820738  1
  O  O25  1  0.04998768  0.79108537  0.67367502  1
  O  O26  1  0.94565371  0.85550977  0.25000000  1
  O  O27  1  0.45813597  0.15345584  0.37513677  1
  O  O28  1  0.54186403  0.84654416  0.62486323  1
  O  O29  1  0.95813597  0.34654416  0.62486323  1
  O  O30  1  0.59091787  0.43452651  0.42778465  1
  O  O31  1  0.40908213  0.56547349  0.57221535  1
  O  O32  1  0.45001232  0.29108537  0.67367502  1
  O  O33  1  0.59091787  0.43452651  0.07221535  1
  O  O34  1  0.05434629  0.14449023  0.75000000  1
  O  O35  1  0.54186403  0.84654416  0.87513677  1
  O  O36  1  0.09091787  0.06547349  0.57221535  1
  O  O37  1  0.62526170  0.17703635  0.95820738  1
  O  O38  1  0.44565371  0.64449023  0.75000000  1
  O  O39  1  0.62526170  0.17703635  0.54179262  1
  O  O40  1  0.12526170  0.32296365  0.04179262  1
  O  O41  1  0.09091787  0.06547349  0.92778465  1
  O  O42  1  0.87473830  0.67703635  0.95820738  1
  O  O43  1  0.45001232  0.29108537  0.82632498  1
  O  O44  1  0.40908213  0.56547349  0.92778465  1
  O  O45  1  0.54998768  0.70891463  0.32632498  1
  O  O46  1  0.95813597  0.34654416  0.87513677  1
  O  O47  1  0.04998768  0.79108537  0.82632498  1
  O  O48  1  0.95001232  0.20891463  0.32632498  1
  O  O49  1  0.55434629  0.35550977  0.25000000  1
  O  O50  1  0.12526170  0.32296365  0.45820738  1
  O  O51  1  0.95001232  0.20891463  0.17367502  1
  O  O52  1  0.90908213  0.93452651  0.07221535  1
  O  O53  1  0.87473830  0.67703635  0.54179262  1
  O  O54  1  0.90908213  0.93452651  0.42778465  1
  O  O55  1  0.54998768  0.70891463  0.17367502  1
