# generated using pymatgen
data_NaTaAl(PO4)3
_symmetry_space_group_name_H-M   'P 1'
_cell_length_a   8.55031376
_cell_length_b   8.55031349
_cell_length_c   22.22461184
_cell_angle_alpha   90.00000000
_cell_angle_beta   90.00000000
_cell_angle_gamma   120.00000103
_symmetry_Int_Tables_number   1
_chemical_formula_structural   NaTaAl(PO4)3
_chemical_formula_sum   'Na6 Ta6 Al6 P18 O72'
_cell_volume   1407.11276178
_cell_formula_units_Z   6
loop_
 _symmetry_equiv_pos_site_id
 _symmetry_equiv_pos_as_xyz
  1  'x, y, z'
loop_
 _atom_site_type_symbol
 _atom_site_label
 _atom_site_symmetry_multiplicity
 _atom_site_fract_x
 _atom_site_fract_y
 _atom_site_fract_z
 _atom_site_occupancy
  Na  Na0  1  -0.00000000  0.00000000  0.49427480  1
  Na  Na1  1  -0.00000000  0.00000000  0.99427480  1
  Na  Na2  1  0.66666700  0.33333300  0.82760780  1
  Na  Na3  1  0.66666700  0.33333300  0.32760780  1
  Na  Na4  1  0.33333300  0.66666700  0.16094180  1
  Na  Na5  1  0.33333300  0.66666700  0.66094180  1
  Ta  Ta6  1  -0.00000000  0.00000000  0.64401630  1
  Ta  Ta7  1  -0.00000000  0.00000000  0.14401630  1
  Ta  Ta8  1  0.66666700  0.33333300  0.97734930  1
  Ta  Ta9  1  0.66666700  0.33333300  0.47734930  1
  Ta  Ta10  1  0.33333300  0.66666700  0.31068330  1
  Ta  Ta11  1  0.33333300  0.66666700  0.81068330  1
  Al  Al12  1  -0.00000000  0.00000000  0.35353524  1
  Al  Al13  1  -0.00000000  0.00000000  0.85353524  1
  Al  Al14  1  0.66666700  0.33333300  0.68686824  1
  Al  Al15  1  0.66666700  0.33333300  0.18686824  1
  Al  Al16  1  0.33333300  0.66666700  0.02020224  1
  Al  Al17  1  0.33333300  0.66666700  0.52020224  1
  P  P18  1  0.29222714  0.01306509  0.25200149  1
  P  P19  1  0.72083794  0.70777286  0.25200149  1
  P  P20  1  0.98693491  0.27916206  0.25200149  1
  P  P21  1  0.29222714  0.27916206  0.75200149  1
  P  P22  1  0.98693491  0.70777286  0.75200149  1
  P  P23  1  0.72083794  0.01306509  0.75200149  1
  P  P24  1  0.95889414  0.34639809  0.58533449  1
  P  P25  1  0.38750494  0.04110586  0.58533449  1
  P  P26  1  0.65360191  0.61249506  0.58533449  1
  P  P27  1  0.95889414  0.61249506  0.08533449  1
  P  P28  1  0.65360191  0.04110586  0.08533449  1
  P  P29  1  0.38750494  0.34639809  0.08533449  1
  P  P30  1  0.62556014  0.67973209  0.91866849  1
  P  P31  1  0.05417094  0.37443986  0.91866849  1
  P  P32  1  0.32026791  0.94582906  0.91866849  1
  P  P33  1  0.62556014  0.94582906  0.41866849  1
  P  P34  1  0.32026791  0.37443986  0.41866849  1
  P  P35  1  0.05417094  0.67973209  0.41866849  1
  O  O36  1  0.20079874  0.03402959  0.30725586  1
  O  O37  1  0.83323085  0.79920126  0.30725586  1
  O  O38  1  0.96597041  0.16676915  0.30725586  1
  O  O39  1  0.20079874  0.16676915  0.80725586  1
  O  O40  1  0.96597041  0.79920126  0.80725586  1
  O  O41  1  0.83323085  0.03402959  0.80725586  1
  O  O42  1  0.80061102  0.97347369  0.69445746  1
  O  O43  1  0.17286267  0.19938898  0.69445746  1
  O  O44  1  0.02652631  0.82713733  0.69445746  1
  O  O45  1  0.80061102  0.82713733  0.19445746  1
  O  O46  1  0.02652631  0.19938898  0.19445746  1
  O  O47  1  0.17286267  0.97347369  0.19445746  1
  O  O48  1  0.86746574  0.36736259  0.64058886  1
  O  O49  1  0.49989785  0.13253426  0.64058886  1
  O  O50  1  0.63263741  0.50010215  0.64058886  1
  O  O51  1  0.86746574  0.50010215  0.14058886  1
  O  O52  1  0.63263741  0.13253426  0.14058886  1
  O  O53  1  0.49989785  0.36736259  0.14058886  1
  O  O54  1  0.46727802  0.30680669  0.02779046  1
  O  O55  1  0.83952967  0.53272198  0.02779046  1
  O  O56  1  0.69319331  0.16047033  0.02779046  1
  O  O57  1  0.46727802  0.16047033  0.52779046  1
  O  O58  1  0.69319331  0.53272198  0.52779046  1
  O  O59  1  0.83952967  0.30680669  0.52779046  1
  O  O60  1  0.53413174  0.70069659  0.97392286  1
  O  O61  1  0.16656385  0.46586826  0.97392286  1
  O  O62  1  0.29930341  0.83343615  0.97392286  1
  O  O63  1  0.53413174  0.83343615  0.47392286  1
  O  O64  1  0.29930341  0.46586826  0.47392286  1
  O  O65  1  0.16656385  0.70069659  0.47392286  1
  O  O66  1  0.13394402  0.64014069  0.36112446  1
  O  O67  1  0.50619567  0.86605598  0.36112446  1
  O  O68  1  0.35985931  0.49380433  0.36112446  1
  O  O69  1  0.13394402  0.49380433  0.86112446  1
  O  O70  1  0.35985931  0.86605598  0.86112446  1
  O  O71  1  0.50619567  0.64014069  0.86112446  1
  O  O72  1  0.02951906  0.84153621  0.40882074  1
  O  O73  1  0.81201715  0.97048094  0.40882074  1
  O  O74  1  0.15846379  0.18798285  0.40882074  1
  O  O75  1  0.02951906  0.18798285  0.90882074  1
  O  O76  1  0.15846379  0.97048094  0.90882074  1
  O  O77  1  0.81201715  0.84153621  0.90882074  1
  O  O78  1  0.97499337  0.17117712  0.59018900  1
  O  O79  1  0.19618375  0.02500663  0.59018900  1
  O  O80  1  0.82882288  0.80381625  0.59018900  1
  O  O81  1  0.97499337  0.80381625  0.09018900  1
  O  O82  1  0.82882288  0.02500663  0.09018900  1
  O  O83  1  0.19618375  0.17117712  0.09018900  1
  O  O84  1  0.69618606  0.17486921  0.74215374  1
  O  O85  1  0.47868415  0.30381394  0.74215374  1
  O  O86  1  0.82513079  0.52131585  0.74215374  1
  O  O87  1  0.69618606  0.52131585  0.24215374  1
  O  O88  1  0.82513079  0.30381394  0.24215374  1
  O  O89  1  0.47868415  0.17486921  0.24215374  1
  O  O90  1  0.64166037  0.50451012  0.92352200  1
  O  O91  1  0.86285075  0.35833963  0.92352200  1
  O  O92  1  0.49548988  0.13714925  0.92352200  1
  O  O93  1  0.64166037  0.13714925  0.42352200  1
  O  O94  1  0.49548988  0.35833963  0.42352200  1
  O  O95  1  0.86285075  0.50451012  0.42352200  1
  O  O96  1  0.36285206  0.50820321  0.07548774  1
  O  O97  1  0.14535015  0.63714794  0.07548774  1
  O  O98  1  0.49179679  0.85464985  0.07548774  1
  O  O99  1  0.36285206  0.85464985  0.57548774  1
  O  O100  1  0.49179679  0.63714794  0.57548774  1
  O  O101  1  0.14535015  0.50820321  0.57548774  1
  O  O102  1  0.30832637  0.83784412  0.25685600  1
  O  O103  1  0.52951675  0.69167363  0.25685600  1
  O  O104  1  0.16215588  0.47048325  0.25685600  1
  O  O105  1  0.30832637  0.47048325  0.75685600  1
  O  O106  1  0.16215588  0.69167363  0.75685600  1
  O  O107  1  0.52951675  0.83784412  0.75685600  1
