# generated using pymatgen
data_NbVO5
_symmetry_space_group_name_H-M   'P 1'
_cell_length_a   6.87758700
_cell_length_b   6.87758700
_cell_length_c   4.22581600
_cell_angle_alpha   90.00000000
_cell_angle_beta   90.00000000
_cell_angle_gamma   90.00000000
_symmetry_Int_Tables_number   1
_chemical_formula_structural   NbVO5
_chemical_formula_sum   'Nb2 V2 O10'
_cell_volume   199.88618021
_cell_formula_units_Z   2
loop_
 _symmetry_equiv_pos_site_id
 _symmetry_equiv_pos_as_xyz
  1  'x, y, z'
loop_
 _atom_site_type_symbol
 _atom_site_label
 _atom_site_symmetry_multiplicity
 _atom_site_fract_x
 _atom_site_fract_y
 _atom_site_fract_z
 _atom_site_occupancy
  Nb  Nb0  1  0.25000000  0.25000000  0.80203500  1
  Nb  Nb1  1  0.75000000  0.75000000  0.19796600  1
  V  V2  1  0.25000000  0.75000000  0.50000000  1
  V  V3  1  0.75000000  0.25000000  0.50000000  1
  O  O4  1  0.04067600  0.74273500  0.26948400  1
  O  O5  1  0.24273500  0.95932400  0.73051600  1
  O  O6  1  0.25000000  0.25000000  0.22542000  1
  O  O7  1  0.25726500  0.54067600  0.73051600  1
  O  O8  1  0.45932500  0.75726500  0.26948400  1
  O  O9  1  0.54067600  0.24273500  0.73051600  1
  O  O10  1  0.74273500  0.45932500  0.26948400  1
  O  O11  1  0.75000000  0.75000000  0.77458000  1
  O  O12  1  0.75726500  0.04067600  0.26948400  1
  O  O13  1  0.95932400  0.25726500  0.73051600  1
