# generated using pymatgen
data_HfGaP(SO6)2
_symmetry_space_group_name_H-M   'P 1'
_cell_length_a   8.72025018
_cell_length_b   8.69356398
_cell_length_c   22.51091490
_cell_angle_alpha   90.44261116
_cell_angle_beta   90.00000000
_cell_angle_gamma   120.10159528
_symmetry_Int_Tables_number   1
_chemical_formula_structural   HfGaP(SO6)2
_chemical_formula_sum   'Hf6 Ga6 P6 S12 O72'
_cell_volume   1476.34462505
_cell_formula_units_Z   6
loop_
 _symmetry_equiv_pos_site_id
 _symmetry_equiv_pos_as_xyz
  1  'x, y, z'
loop_
 _atom_site_type_symbol
 _atom_site_label
 _atom_site_symmetry_multiplicity
 _atom_site_fract_x
 _atom_site_fract_y
 _atom_site_fract_z
 _atom_site_occupancy
  Hf  Hf0  1  0.00213355  0.00100194  0.64279447  1
  Hf  Hf1  1  0.99886839  0.00100194  0.14279447  1
  Hf  Hf2  1  0.66535966  0.33246509  0.97619255  1
  Hf  Hf3  1  0.66710643  0.33246509  0.47619255  1
  Hf  Hf4  1  0.34035874  0.66132735  0.30945965  1
  Hf  Hf5  1  0.32096761  0.66132735  0.80945965  1
  Ga  Ga6  1  0.00045826  0.99882638  0.35331506  1
  Ga  Ga7  1  0.99836811  0.99882638  0.85331506  1
  Ga  Ga8  1  0.68735256  0.34525927  0.68716158  1
  Ga  Ga9  1  0.65790770  0.34525927  0.18716158  1
  Ga  Ga10  1  0.32721643  0.64540559  0.01998983  1
  Ga  Ga11  1  0.31818816  0.64540559  0.51998983  1
  P  P12  1  0.72297281  0.71133747  0.25119518  1
  P  P13  1  0.98836466  0.71133747  0.75119518  1
  P  P14  1  0.95915051  0.34271472  0.58375776  1
  P  P15  1  0.38356520  0.34271472  0.08375776  1
  P  P16  1  0.04792052  0.36845953  0.91668764  1
  P  P17  1  0.32053802  0.36845953  0.41668764  1
  S  S18  1  0.29390235  0.00736522  0.25046136  1
  S  S19  1  0.98715037  0.28456303  0.25008337  1
  S  S20  1  0.29741266  0.28456303  0.75008337  1
  S  S21  1  0.71346287  0.00736522  0.75046136  1
  S  S22  1  0.38468896  0.03990324  0.58385192  1
  S  S23  1  0.65600720  0.61739022  0.58393743  1
  S  S24  1  0.96138401  0.61739022  0.08393743  1
  S  S25  1  0.65521528  0.03990324  0.08385192  1
  S  S26  1  0.62585004  0.67635060  0.91684555  1
  S  S27  1  0.32382721  0.94827274  0.91797520  1
  S  S28  1  0.62444453  0.94827274  0.41797520  1
  S  S29  1  0.05049956  0.67635060  0.41684555  1
  O  O30  1  0.21491820  0.03960013  0.30364515  1
  O  O31  1  0.83637898  0.80054401  0.30693412  1
  O  O32  1  0.96152156  0.17750372  0.30323719  1
  O  O33  1  0.21598216  0.17750372  0.80323719  1
  O  O34  1  0.96416503  0.80054401  0.80693412  1
  O  O35  1  0.82468193  0.03960013  0.80364515  1
  O  O36  1  0.79361970  0.97330321  0.69722101  1
  O  O37  1  0.18015590  0.20721430  0.69713305  1
  O  O38  1  0.02423304  0.82875795  0.69602356  1
  O  O39  1  0.80452491  0.82875795  0.19602356  1
  O  O40  1  0.02705840  0.20721430  0.19713305  1
  O  O41  1  0.17968351  0.97330321  0.19722101  1
  O  O42  1  0.87337554  0.37129395  0.63911375  1
  O  O43  1  0.49184220  0.12376378  0.63752615  1
  O  O44  1  0.62591679  0.50773640  0.63680005  1
  O  O45  1  0.88182061  0.50773640  0.13680005  1
  O  O46  1  0.63192257  0.12376378  0.13752615  1
  O  O47  1  0.49791941  0.37129395  0.13911375  1
  O  O48  1  0.46703680  0.30637332  0.02866638  1
  O  O49  1  0.84688673  0.53834944  0.03067464  1
  O  O50  1  0.69312963  0.15502385  0.03083645  1
  O  O51  1  0.46189523  0.15502385  0.53083645  1
  O  O52  1  0.69146371  0.53834944  0.53067464  1
  O  O53  1  0.83933752  0.30637332  0.52866638  1
  O  O54  1  0.54661214  0.70655510  0.97042195  1
  O  O55  1  0.16313103  0.45596958  0.97190180  1
  O  O56  1  0.29970583  0.84098574  0.97100143  1
  O  O57  1  0.54127891  0.84098574  0.47100143  1
  O  O58  1  0.29283755  0.45596958  0.47190180  1
  O  O59  1  0.15994196  0.70655510  0.47042195  1
  O  O60  1  0.12871540  0.64161641  0.36372981  1
  O  O61  1  0.51040848  0.87137828  0.36432570  1
  O  O62  1  0.35848616  0.49067016  0.36218801  1
  O  O63  1  0.13218301  0.49067016  0.86218801  1
  O  O64  1  0.36096880  0.87137828  0.86432570  1
  O  O65  1  0.51290000  0.64161641  0.86372981  1
  O  O66  1  0.02814495  0.83121290  0.40884986  1
  O  O67  1  0.80059565  0.97056164  0.40887898  1
  O  O68  1  0.15860987  0.18555113  0.40474168  1
  O  O69  1  0.02694125  0.18555113  0.90474168  1
  O  O70  1  0.16996599  0.97056164  0.90887898  1
  O  O71  1  0.80306795  0.83121290  0.90884986  1
  O  O72  1  0.97751508  0.17645467  0.59306749  1
  O  O73  1  0.20619426  0.02291474  0.59100978  1
  O  O74  1  0.81837041  0.79474641  0.59129962  1
  O  O75  1  0.97637600  0.79474641  0.09129962  1
  O  O76  1  0.81672048  0.02291474  0.09100978  1
  O  O77  1  0.19893959  0.17645467  0.09306749  1
  O  O78  1  0.68927122  0.16084132  0.74136761  1
  O  O79  1  0.47164803  0.30331356  0.73959559  1
  O  O80  1  0.82639057  0.52696584  0.74227072  1
  O  O81  1  0.70057626  0.52696584  0.24227072  1
  O  O82  1  0.83166653  0.30331356  0.23959559  1
  O  O83  1  0.47157110  0.16084132  0.24136761  1
  O  O84  1  0.64255528  0.51488685  0.92452502  1
  O  O85  1  0.86482568  0.35217689  0.92646596  1
  O  O86  1  0.48547714  0.12712699  0.92449482  1
  O  O87  1  0.64165085  0.12712699  0.42449482  1
  O  O88  1  0.48735221  0.35217689  0.42646596  1
  O  O89  1  0.87233257  0.51488685  0.42452502  1
  O  O90  1  0.36443529  0.50631608  0.07495952  1
  O  O91  1  0.13897147  0.64298492  0.07455367  1
  O  O92  1  0.50015856  0.86418050  0.07353880  1
  O  O93  1  0.36402094  0.86418050  0.57353880  1
  O  O94  1  0.50401245  0.64298492  0.57455367  1
  O  O95  1  0.14187979  0.50631608  0.57495952  1
  O  O96  1  0.30736929  0.84535341  0.25863127  1
  O  O97  1  0.53761371  0.69336310  0.25902789  1
  O  O98  1  0.14744979  0.46376735  0.25763298  1
  O  O99  1  0.31631656  0.46376735  0.75763298  1
  O  O100  1  0.15574838  0.69336310  0.75902789  1
  O  O101  1  0.53798311  0.84535341  0.75863127  1
