# generated using pymatgen
data_Na6Nb3In(SiO4)6
_symmetry_space_group_name_H-M   'P 1'
_cell_length_a   9.14284529
_cell_length_b   9.14691013
_cell_length_c   22.43452566
_cell_angle_alpha   90.02844009
_cell_angle_beta   90.00158646
_cell_angle_gamma   119.94558155
_symmetry_Int_Tables_number   1
_chemical_formula_structural   Na6Nb3In(SiO4)6
_chemical_formula_sum   'Na18 Nb9 In3 Si18 O72'
_cell_volume   1625.70266594
_cell_formula_units_Z   3
loop_
 _symmetry_equiv_pos_site_id
 _symmetry_equiv_pos_as_xyz
  1  'x, y, z'
loop_
 _atom_site_type_symbol
 _atom_site_label
 _atom_site_symmetry_multiplicity
 _atom_site_fract_x
 _atom_site_fract_y
 _atom_site_fract_z
 _atom_site_occupancy
  Na  Na0  1  0.00842275  0.00078172  0.49992064  1
  Na  Na1  1  0.98872185  0.98968470  0.99663313  1
  Na  Na2  1  0.66671941  0.33248467  0.83386074  1
  Na  Na3  1  0.66659358  0.33268662  0.32571890  1
  Na  Na4  1  0.34730501  0.66714578  0.16216025  1
  Na  Na5  1  0.32044275  0.65372570  0.66483441  1
  Na  Na6  1  0.64009336  0.01661739  0.24489868  1
  Na  Na7  1  0.37495730  0.35910798  0.24410280  1
  Na  Na8  1  0.98506996  0.62384536  0.24450952  1
  Na  Na9  1  0.63103066  0.62102199  0.74558571  1
  Na  Na10  1  0.98756950  0.36748031  0.74612232  1
  Na  Na11  1  0.38109490  0.01082764  0.74678083  1
  Na  Na12  1  0.66338267  0.96894293  0.58657895  1
  Na  Na13  1  0.30877667  0.97345866  0.08284155  1
  Na  Na14  1  0.02825203  0.33925269  0.08298550  1
  Na  Na15  1  0.96280554  0.28578736  0.41169807  1
  Na  Na16  1  0.32375710  0.03578973  0.41177923  1
  Na  Na17  1  0.71322074  0.67814388  0.41237610  1
  Nb  Nb18  1  0.00050281  0.00082238  0.85742433  1
  Nb  Nb19  1  0.00374445  0.99970423  0.64346678  1
  Nb  Nb20  1  0.99696435  0.99694850  0.14575581  1
  Nb  Nb21  1  0.66720588  0.33449361  0.97797797  1
  Nb  Nb22  1  0.66650364  0.33478913  0.48233064  1
  Nb  Nb23  1  0.33660129  0.66674830  0.01703909  1
  Nb  Nb24  1  0.32994085  0.66294338  0.52195818  1
  Nb  Nb25  1  0.33304759  0.66669207  0.31086492  1
  Nb  Nb26  1  0.33392844  0.66712921  0.81365345  1
  In  In27  1  0.99968135  0.99992233  0.35282352  1
  In  In28  1  0.66709758  0.33518627  0.68512558  1
  In  In29  1  0.66586543  0.33464287  0.17981653  1
  Si  Si30  1  0.29326513  0.99967268  0.25203026  1
  Si  Si31  1  0.70675284  0.70748226  0.25296666  1
  Si  Si32  1  0.00126201  0.29365754  0.25165744  1
  Si  Si33  1  0.28432058  0.28870063  0.75077835  1
  Si  Si34  1  0.00321595  0.71439711  0.75132333  1
  Si  Si35  1  0.71091140  0.99625820  0.74995859  1
  Si  Si36  1  0.96249314  0.33448266  0.58625620  1
  Si  Si37  1  0.37174952  0.03946593  0.58488868  1
  Si  Si38  1  0.66694445  0.62825913  0.58603802  1
  Si  Si39  1  0.96083507  0.62847831  0.08306431  1
  Si  Si40  1  0.66574109  0.03748045  0.08345103  1
  Si  Si41  1  0.37264296  0.33559867  0.08436338  1
  Si  Si42  1  0.62633564  0.66456411  0.91510410  1
  Si  Si43  1  0.03845242  0.37461151  0.91615067  1
  Si  Si44  1  0.33499174  0.96084590  0.91662175  1
  Si  Si45  1  0.62104386  0.95945949  0.41773102  1
  Si  Si46  1  0.33911445  0.37928422  0.41628106  1
  Si  Si47  1  0.04120421  0.66217061  0.41673669  1
  O  O48  1  0.22112826  0.03304311  0.31319975  1
  O  O49  1  0.80959948  0.77595668  0.31477488  1
  O  O50  1  0.96671255  0.18819312  0.31286514  1
  O  O51  1  0.18601305  0.17000285  0.80838396  1
  O  O52  1  0.98508681  0.81472390  0.80872032  1
  O  O53  1  0.83235544  0.01482714  0.80663086  1
  O  O54  1  0.79824985  0.96903436  0.68923935  1
  O  O55  1  0.16179380  0.19349535  0.69220268  1
  O  O56  1  0.02784032  0.83584903  0.69260238  1
  O  O57  1  0.81363620  0.83793755  0.19700658  1
  O  O58  1  0.02686702  0.19449776  0.19367846  1
  O  O59  1  0.16918372  0.97568172  0.19399316  1
  O  O60  1  0.89373962  0.36704387  0.64788914  1
  O  O61  1  0.48701103  0.10541268  0.64432658  1
  O  O62  1  0.63148270  0.52576885  0.64727807  1
  O  O63  1  0.90109238  0.51846054  0.14389435  1
  O  O64  1  0.61836159  0.09851961  0.14474821  1
  O  O65  1  0.46749342  0.36771306  0.14742352  1
  O  O66  1  0.47660656  0.30416580  0.03055508  1
  O  O67  1  0.83306146  0.52315617  0.02806307  1
  O  O68  1  0.69664572  0.17147318  0.02937950  1
  O  O69  1  0.47410054  0.16375376  0.52673333  1
  O  O70  1  0.68760779  0.52456422  0.52794602  1
  O  O71  1  0.83304268  0.30967872  0.52892337  1
  O  O72  1  0.52072283  0.68387199  0.97110593  1
  O  O73  1  0.15536805  0.47208275  0.97448944  1
  O  O74  1  0.31264516  0.84223960  0.97471374  1
  O  O75  1  0.52299274  0.84308006  0.47525513  1
  O  O76  1  0.32383480  0.48590018  0.47189137  1
  O  O77  1  0.16504557  0.68085362  0.47208858  1
  O  O78  1  0.13291923  0.63632994  0.35633674  1
  O  O79  1  0.50072689  0.86297863  0.35818445  1
  O  O80  1  0.36297668  0.49619447  0.35603478  1
  O  O81  1  0.13875258  0.49500838  0.85747545  1
  O  O82  1  0.35688231  0.86161258  0.85779107  1
  O  O83  1  0.50840634  0.64262377  0.85554776  1
  O  O84  1  0.02267363  0.82872716  0.41785927  1
  O  O85  1  0.80722864  0.97930965  0.41772979  1
  O  O86  1  0.17237913  0.19460771  0.41770486  1
  O  O87  1  0.02271706  0.18905549  0.91150710  1
  O  O88  1  0.16560307  0.97720317  0.91170621  1
  O  O89  1  0.81079337  0.83473027  0.91188619  1
  O  O90  1  0.96462404  0.15520796  0.58636442  1
  O  O91  1  0.18698939  0.02659864  0.58760146  1
  O  O92  1  0.83743506  0.81718203  0.58641741  1
  O  O93  1  0.98283809  0.81878283  0.08827243  1
  O  O94  1  0.84269027  0.03095856  0.08871584  1
  O  O95  1  0.18416057  0.15948748  0.08755642  1
  O  O96  1  0.69044958  0.16264636  0.75069955  1
  O  O97  1  0.46963210  0.30612992  0.74955101  1
  O  O98  1  0.83647861  0.52878688  0.75078619  1
  O  O99  1  0.67709791  0.51886933  0.24525424  1
  O  O100  1  0.84224968  0.32468499  0.24514789  1
  O  O101  1  0.48369625  0.15752375  0.24629133  1
  O  O102  1  0.63863135  0.49363492  0.92288312  1
  O  O103  1  0.85323357  0.35971598  0.92187825  1
  O  O104  1  0.50587001  0.14501347  0.92307745  1
  O  O105  1  0.63187231  0.14505198  0.42113167  1
  O  O106  1  0.51410512  0.36959761  0.42103455  1
  O  O107  1  0.85707781  0.48725395  0.42210608  1
  O  O108  1  0.33375645  0.49179544  0.07441474  1
  O  O109  1  0.15369654  0.65867067  0.07350233  1
  O  O110  1  0.50110179  0.84911833  0.07265250  1
  O  O111  1  0.35041646  0.85198017  0.57383113  1
  O  O112  1  0.50791959  0.66287276  0.57566155  1
  O  O113  1  0.15220930  0.49438285  0.57478129  1
  O  O114  1  0.29663506  0.81881472  0.25382455  1
  O  O115  1  0.52339534  0.70528425  0.25341200  1
  O  O116  1  0.18157317  0.47796688  0.25363087  1
  O  O117  1  0.29602183  0.47518701  0.75406721  1
  O  O118  1  0.17871733  0.70340283  0.75418641  1
  O  O119  1  0.52346947  0.82175814  0.75447483  1
