# generated using pymatgen
data_Na3Hf3ScSi3(SO8)3
_symmetry_space_group_name_H-M   'P 1'
_cell_length_a   8.98006430
_cell_length_b   9.01506027
_cell_length_c   23.24582918
_cell_angle_alpha   89.88978174
_cell_angle_beta   90.11792721
_cell_angle_gamma   120.20700032
_symmetry_Int_Tables_number   1
_chemical_formula_structural   Na3Hf3ScSi3(SO8)3
_chemical_formula_sum   'Na9 Hf9 Sc3 Si9 S9 O72'
_cell_volume   1626.34597079
_cell_formula_units_Z   3
loop_
 _symmetry_equiv_pos_site_id
 _symmetry_equiv_pos_as_xyz
  1  'x, y, z'
loop_
 _atom_site_type_symbol
 _atom_site_label
 _atom_site_symmetry_multiplicity
 _atom_site_fract_x
 _atom_site_fract_y
 _atom_site_fract_z
 _atom_site_occupancy
  Na  Na0  1  0.35819203  0.36040217  0.24601864  1
  Na  Na1  1  0.63599458  0.62473843  0.75241599  1
  Na  Na2  1  0.96888319  0.29116117  0.41641849  1
  Na  Na3  1  0.99663297  0.00532564  0.49776319  1
  Na  Na4  1  0.99775105  0.99139355  0.00208171  1
  Na  Na5  1  0.66342812  0.33844530  0.83151777  1
  Na  Na6  1  0.66730938  0.32545724  0.33109862  1
  Na  Na7  1  0.31875236  0.65883955  0.16411318  1
  Na  Na8  1  0.31064602  0.65441796  0.66665300  1
  Hf  Hf9  1  0.00303850  0.98813616  0.85193592  1
  Hf  Hf10  1  0.01442369  0.01518974  0.64778585  1
  Hf  Hf11  1  0.01135557  0.01127153  0.14402592  1
  Hf  Hf12  1  0.66298915  0.35276929  0.98247384  1
  Hf  Hf13  1  0.66074766  0.31863507  0.47970808  1
  Hf  Hf14  1  0.33881396  0.66060983  0.02321966  1
  Hf  Hf15  1  0.33435379  0.65475786  0.51838900  1
  Hf  Hf16  1  0.33878383  0.66583165  0.31519577  1
  Hf  Hf17  1  0.32576190  0.65299471  0.81293644  1
  Sc  Sc18  1  0.99436659  0.01303617  0.35367066  1
  Sc  Sc19  1  0.68300286  0.34274011  0.68747296  1
  Sc  Sc20  1  0.68630787  0.34481958  0.18207159  1
  Si  Si21  1  0.99351943  0.29328484  0.25025946  1
  Si  Si22  1  0.29466257  0.28916686  0.75121743  1
  Si  Si23  1  0.00452217  0.71082224  0.74805731  1
  Si  Si24  1  0.95919839  0.33352151  0.58346851  1
  Si  Si25  1  0.96204542  0.63011431  0.08358976  1
  Si  Si26  1  0.37984954  0.33402168  0.08634286  1
  Si  Si27  1  0.62626396  0.67089211  0.91614540  1
  Si  Si28  1  0.62227355  0.95296864  0.41716228  1
  Si  Si29  1  0.33800447  0.37344818  0.41587967  1
  S  S30  1  0.28914526  0.99785702  0.25051530  1
  S  S31  1  0.71174881  0.71063176  0.25052757  1
  S  S32  1  0.71125926  0.00168116  0.75050527  1
  S  S33  1  0.37673846  0.04105539  0.58425969  1
  S  S34  1  0.66835808  0.62483207  0.58356816  1
  S  S35  1  0.66652786  0.04454077  0.08281840  1
  S  S36  1  0.04106448  0.37365619  0.91729562  1
  S  S37  1  0.33632626  0.95602611  0.91675104  1
  S  S38  1  0.04462093  0.66984199  0.41714133  1
  O  O39  1  0.20730099  0.02254804  0.30174654  1
  O  O40  1  0.81532592  0.78848963  0.30222171  1
  O  O41  1  0.97592139  0.18233174  0.30826467  1
  O  O42  1  0.19531557  0.17342614  0.80726266  1
  O  O43  1  0.96527455  0.79774355  0.80443225  1
  O  O44  1  0.81822075  0.02706602  0.80242467  1
  O  O45  1  0.78769069  0.96768851  0.69874869  1
  O  O46  1  0.17130939  0.20502252  0.69457869  1
  O  O47  1  0.02451375  0.82998288  0.69243780  1
  O  O48  1  0.78984870  0.81496542  0.19849069  1
  O  O49  1  0.03260470  0.19806346  0.19627717  1
  O  O50  1  0.18123632  0.97004328  0.19800317  1
  O  O51  1  0.86465075  0.35798336  0.63869853  1
  O  O52  1  0.47975401  0.12102349  0.63526356  1
  O  O53  1  0.63681758  0.52139116  0.63616134  1
  O  O54  1  0.87901927  0.50898111  0.13920095  1
  O  O55  1  0.63707327  0.11789536  0.13467756  1
  O  O56  1  0.48631087  0.36047892  0.14500757  1
  O  O57  1  0.46377258  0.30071356  0.02849969  1
  O  O58  1  0.84152884  0.53527241  0.02674730  1
  O  O59  1  0.69474027  0.14877070  0.03043253  1
  O  O60  1  0.45482894  0.14969501  0.53163036  1
  O  O61  1  0.68990789  0.54112187  0.53212534  1
  O  O62  1  0.84412199  0.31089700  0.52501856  1
  O  O63  1  0.52824707  0.69436445  0.97101775  1
  O  O64  1  0.14958648  0.45838979  0.96821181  1
  O  O65  1  0.30579518  0.85012782  0.96840115  1
  O  O66  1  0.52624122  0.83926324  0.47386432  1
  O  O67  1  0.29773815  0.46434108  0.47043253  1
  O  O68  1  0.15101632  0.69371444  0.46910074  1
  O  O69  1  0.12170258  0.63483591  0.36552994  1
  O  O70  1  0.50099783  0.86841389  0.36049336  1
  O  O71  1  0.36267014  0.49231387  0.35874058  1
  O  O72  1  0.12135004  0.48335621  0.86517988  1
  O  O73  1  0.35590596  0.87361208  0.86459040  1
  O  O74  1  0.51016268  0.64440850  0.85806469  1
  O  O75  1  0.02487333  0.81850498  0.40961238  1
  O  O76  1  0.81451368  0.97912537  0.41226415  1
  O  O77  1  0.16479796  0.18686508  0.41067121  1
  O  O78  1  0.02689758  0.20483738  0.90972384  1
  O  O79  1  0.18133642  0.97727912  0.91020148  1
  O  O80  1  0.81740821  0.84291644  0.90995002  1
  O  O81  1  0.97508508  0.15916208  0.58918948  1
  O  O82  1  0.20163116  0.02303635  0.58844984  1
  O  O83  1  0.82165921  0.79813477  0.58945598  1
  O  O84  1  0.97327869  0.81538677  0.09225096  1
  O  O85  1  0.81918657  0.02179183  0.09022839  1
  O  O86  1  0.18464417  0.16500754  0.08919856  1
  O  O87  1  0.68928243  0.15002893  0.74403446  1
  O  O88  1  0.48565210  0.31766451  0.74273575  1
  O  O89  1  0.82843967  0.52459647  0.74450126  1
  O  O90  1  0.68048094  0.53308565  0.24544192  1
  O  O91  1  0.82321106  0.31062538  0.24539827  1
  O  O92  1  0.45942864  0.15485493  0.24378036  1
  O  O93  1  0.64376164  0.49717789  0.92145269  1
  O  O94  1  0.86766199  0.35312128  0.92317529  1
  O  O95  1  0.49212565  0.12836490  0.92256185  1
  O  O96  1  0.65215299  0.15052163  0.42342526  1
  O  O97  1  0.51131517  0.36323074  0.42555983  1
  O  O98  1  0.87261674  0.50943978  0.42416664  1
  O  O99  1  0.35641324  0.50170100  0.07586316  1
  O  O100  1  0.15305962  0.65464510  0.07265001  1
  O  O101  1  0.51158234  0.87043046  0.07568429  1
  O  O102  1  0.35594900  0.86928740  0.57572167  1
  O  O103  1  0.51249647  0.64427003  0.57660695  1
  O  O104  1  0.15042780  0.50719463  0.57637950  1
  O  O105  1  0.30716390  0.84349677  0.25609593  1
  O  O106  1  0.53405816  0.69180591  0.25593347  1
  O  O107  1  0.17579767  0.48298095  0.25684051  1
  O  O108  1  0.31913301  0.48474595  0.75697418  1
  O  O109  1  0.17547361  0.69577424  0.75861844  1
  O  O110  1  0.53887052  0.84220282  0.75741854  1
