# generated using pymatgen
data_Na7Hf2Ti2Si5PO24
_symmetry_space_group_name_H-M   'P 1'
_cell_length_a   9.04371418
_cell_length_b   9.06076712
_cell_length_c   22.41424128
_cell_angle_alpha   89.94777593
_cell_angle_beta   89.92720243
_cell_angle_gamma   119.98213456
_symmetry_Int_Tables_number   1
_chemical_formula_structural   Na7Hf2Ti2Si5PO24
_chemical_formula_sum   'Na21 Hf6 Ti6 Si15 P3 O72'
_cell_volume   1590.90257134
_cell_formula_units_Z   3
loop_
 _symmetry_equiv_pos_site_id
 _symmetry_equiv_pos_as_xyz
  1  'x, y, z'
loop_
 _atom_site_type_symbol
 _atom_site_label
 _atom_site_symmetry_multiplicity
 _atom_site_fract_x
 _atom_site_fract_y
 _atom_site_fract_z
 _atom_site_occupancy
  Na  Na0  1  0.63598329  0.00177499  0.24965453  1
  Na  Na1  1  0.36433206  0.36632723  0.24995407  1
  Na  Na2  1  0.00022739  0.63314621  0.25009229  1
  Na  Na3  1  0.63143236  0.63473650  0.75111572  1
  Na  Na4  1  0.00191352  0.36575938  0.75086592  1
  Na  Na5  1  0.36521494  0.99940501  0.75095945  1
  Na  Na6  1  0.30239156  0.33645083  0.58217786  1
  Na  Na7  1  0.03269095  0.69773984  0.58261387  1
  Na  Na8  1  0.66570381  0.96669877  0.58279733  1
  Na  Na9  1  0.29837092  0.96514501  0.08183140  1
  Na  Na10  1  0.03768874  0.33769344  0.08397557  1
  Na  Na11  1  0.96579757  0.66590799  0.91766725  1
  Na  Na12  1  0.33635899  0.29868952  0.91783133  1
  Na  Na13  1  0.33119861  0.03214134  0.41665739  1
  Na  Na14  1  0.70106047  0.66600485  0.41728676  1
  Na  Na15  1  0.99783533  0.00547395  0.49967136  1
  Na  Na16  1  0.98735533  0.99390051  0.00021251  1
  Na  Na17  1  0.66747655  0.32412501  0.83585266  1
  Na  Na18  1  0.67620047  0.33109904  0.33222823  1
  Na  Na19  1  0.34183383  0.66560079  0.16550938  1
  Na  Na20  1  0.33433941  0.66544463  0.66682282  1
  Hf  Hf21  1  0.99704107  0.00244479  0.35247512  1
  Hf  Hf22  1  0.99809758  0.00278500  0.85466827  1
  Hf  Hf23  1  0.99966701  0.99981375  0.64901841  1
  Hf  Hf24  1  0.99784362  0.99579637  0.14690026  1
  Hf  Hf25  1  0.66689810  0.33352742  0.68475607  1
  Hf  Hf26  1  0.67419456  0.33220091  0.47919674  1
  Ti  Ti27  1  0.66801880  0.34304429  0.18528136  1
  Ti  Ti28  1  0.66655589  0.32759069  0.98172590  1
  Ti  Ti29  1  0.32751066  0.65906618  0.01856839  1
  Ti  Ti30  1  0.33446545  0.67250159  0.51906902  1
  Ti  Ti31  1  0.32940987  0.67127024  0.31358568  1
  Ti  Ti32  1  0.32822700  0.67094917  0.81533728  1
  Si  Si33  1  0.29788939  0.00202518  0.24998986  1
  Si  Si34  1  0.70312344  0.70440389  0.25091484  1
  Si  Si35  1  0.99958122  0.29670890  0.24844273  1
  Si  Si36  1  0.29485388  0.29850526  0.75183522  1
  Si  Si37  1  0.00162004  0.70559250  0.75200733  1
  Si  Si38  1  0.70156865  0.99627827  0.75105799  1
  Si  Si39  1  0.96595627  0.33634242  0.58301318  1
  Si  Si40  1  0.37255362  0.03753024  0.58147713  1
  Si  Si41  1  0.66341851  0.62749677  0.58149948  1
  Si  Si42  1  0.95329202  0.62065080  0.08127846  1
  Si  Si43  1  0.38359770  0.34137122  0.08190002  1
  Si  Si44  1  0.04028630  0.37817107  0.91751107  1
  Si  Si45  1  0.34084044  0.95745881  0.91870618  1
  Si  Si46  1  0.61977511  0.95336352  0.41619756  1
  Si  Si47  1  0.04548180  0.66526218  0.41625685  1
  P  P48  1  0.66264847  0.04544652  0.08336438  1
  P  P49  1  0.61647525  0.66423885  0.91748324  1
  P  P50  1  0.33157544  0.38263625  0.41669331  1
  O  O51  1  0.21292073  0.03960447  0.30845305  1
  O  O52  1  0.82740834  0.78569542  0.30939334  1
  O  O53  1  0.95965737  0.16628291  0.30464618  1
  O  O54  1  0.20690966  0.17214020  0.80919830  1
  O  O55  1  0.96628300  0.79284780  0.80975745  1
  O  O56  1  0.83299824  0.03526877  0.80614668  1
  O  O57  1  0.78308308  0.95918147  0.69120560  1
  O  O58  1  0.17412852  0.21413676  0.69276961  1
  O  O59  1  0.03991276  0.82573895  0.69276699  1
  O  O60  1  0.79292109  0.83405964  0.19469205  1
  O  O61  1  0.03909316  0.21308833  0.18971697  1
  O  O62  1  0.17175078  0.96148050  0.19214393  1
  O  O63  1  0.88427495  0.37475834  0.64230605  1
  O  O64  1  0.49304644  0.11985845  0.64047730  1
  O  O65  1  0.62776539  0.50740478  0.64071643  1
  O  O66  1  0.86411230  0.49850872  0.14041156  1
  O  O67  1  0.63496966  0.12719160  0.13975801  1
  O  O68  1  0.49945233  0.35939988  0.14123832  1
  O  O69  1  0.47551150  0.30618761  0.02454671  1
  O  O70  1  0.83415535  0.52130858  0.02365364  1
  O  O71  1  0.69364096  0.16448167  0.02873871  1
  O  O72  1  0.45833192  0.16028254  0.52361899  1
  O  O73  1  0.69933161  0.53965187  0.52387199  1
  O  O74  1  0.83455798  0.29660307  0.52772467  1
  O  O75  1  0.52521225  0.68785210  0.97210717  1
  O  O76  1  0.16690772  0.47326396  0.97546371  1
  O  O77  1  0.30953458  0.83097412  0.97598205  1
  O  O78  1  0.52711613  0.83265336  0.47508455  1
  O  O79  1  0.31000755  0.46624298  0.47341777  1
  O  O80  1  0.16673374  0.69122846  0.47448947  1
  O  O81  1  0.14095643  0.64348823  0.35731918  1
  O  O82  1  0.49900575  0.85618728  0.35803773  1
  O  O83  1  0.35828838  0.49201245  0.36063322  1
  O  O84  1  0.13623356  0.50131306  0.85935063  1
  O  O85  1  0.36157165  0.86293633  0.85886341  1
  O  O86  1  0.50834392  0.63712858  0.86065921  1
  O  O87  1  0.03510016  0.84173311  0.41312654  1
  O  O88  1  0.80529097  0.96356908  0.41307266  1
  O  O89  1  0.17474516  0.19867799  0.41235533  1
  O  O90  1  0.03406689  0.19512142  0.91445008  1
  O  O91  1  0.16479456  0.96981121  0.91431432  1
  O  O92  1  0.79976644  0.82125028  0.91376661  1
  O  O93  1  0.98331433  0.16605589  0.58769064  1
  O  O94  1  0.18338743  0.01705237  0.58735190  1
  O  O95  1  0.83394668  0.81556707  0.58726309  1
  O  O96  1  0.98178232  0.81347144  0.08581546  1
  O  O97  1  0.83015598  0.03596584  0.08727893  1
  O  O98  1  0.19260742  0.16856462  0.08672711  1
  O  O99  1  0.68298864  0.16592562  0.74578192  1
  O  O100  1  0.48246205  0.31470543  0.74603132  1
  O  O101  1  0.83285496  0.51716787  0.74628502  1
  O  O102  1  0.68673413  0.51607309  0.24216114  1
  O  O103  1  0.82906432  0.31488782  0.24155691  1
  O  O104  1  0.48736731  0.16949259  0.24176799  1
  O  O105  1  0.63436732  0.50228801  0.92296980  1
  O  O106  1  0.85626857  0.36922847  0.92368256  1
  O  O107  1  0.50451552  0.15083496  0.92426293  1
  O  O108  1  0.62519765  0.13586839  0.41903516  1
  O  O109  1  0.49441341  0.36465164  0.42063262  1
  O  O110  1  0.85202832  0.50267077  0.41846480  1
  O  O111  1  0.35797876  0.50762948  0.07620505  1
  O  O112  1  0.14523817  0.63848789  0.07611029  1
  O  O113  1  0.50171853  0.86968695  0.07609286  1
  O  O114  1  0.35500478  0.84843690  0.57538193  1
  O  O115  1  0.49202218  0.64427900  0.57552380  1
  O  O116  1  0.15360115  0.50577315  0.57493502  1
  O  O117  1  0.31506840  0.83005156  0.25660073  1
  O  O118  1  0.51298437  0.68068872  0.25823527  1
  O  O119  1  0.17033832  0.48421716  0.25720738  1
  O  O120  1  0.31352056  0.48644056  0.75927846  1
  O  O121  1  0.17374641  0.68842991  0.75797491  1
  O  O122  1  0.51422277  0.82509557  0.75859280  1
