# generated using pymatgen
data_RbPb2Br5
_symmetry_space_group_name_H-M   'P 1'
_cell_length_a   9.54845393
_cell_length_b   9.54845393
_cell_length_c   9.54845393
_cell_angle_alpha   127.32959070
_cell_angle_beta   127.32959070
_cell_angle_gamma   77.71361011
_symmetry_Int_Tables_number   1
_chemical_formula_structural   RbPb2Br5
_chemical_formula_sum   'Rb2 Pb4 Br10'
_cell_volume   533.65979963
_cell_formula_units_Z   2
loop_
 _symmetry_equiv_pos_site_id
 _symmetry_equiv_pos_as_xyz
  1  'x, y, z'
loop_
 _atom_site_type_symbol
 _atom_site_label
 _atom_site_symmetry_multiplicity
 _atom_site_fract_x
 _atom_site_fract_y
 _atom_site_fract_z
 _atom_site_occupancy
  Rb  Rb0  1  0.75000000  0.75000000  0.00000000  1
  Rb  Rb1  1  0.25000000  0.25000000  0.00000000  1
  Pb  Pb2  1  0.66625231  0.83374769  0.50000000  1
  Pb  Pb3  1  0.16625231  0.66625231  0.83250662  1
  Pb  Pb4  1  0.33374769  0.16625231  0.50000000  1
  Pb  Pb5  1  0.83374769  0.33374769  0.16749338  1
  Br  Br6  1  0.21063737  0.71063737  0.18831723  1
  Br  Br7  1  0.47768186  0.97768186  0.18831723  1
  Br  Br8  1  0.50000000  0.50000000  0.00000000  1
  Br  Br9  1  -0.00000000  0.00000000  0.00000000  1
  Br  Br10  1  0.78936363  0.28936363  0.81168277  1
  Br  Br11  1  0.28936363  0.47768186  0.50000000  1
  Br  Br12  1  0.97768186  0.78936363  0.50000000  1
  Br  Br13  1  0.71063637  0.52231814  0.50000000  1
  Br  Br14  1  0.52231814  0.02231814  0.81168277  1
  Br  Br15  1  0.02231814  0.21063737  0.50000000  1
