# generated using pymatgen
data_Na4MgTi3(PO4)6
_symmetry_space_group_name_H-M   'P 1'
_cell_length_a   8.71773699
_cell_length_b   8.72661586
_cell_length_c   22.17857110
_cell_angle_alpha   90.00004742
_cell_angle_beta   89.98965374
_cell_angle_gamma   119.93251209
_symmetry_Int_Tables_number   1
_chemical_formula_structural   Na4MgTi3(PO4)6
_chemical_formula_sum   'Na12 Mg3 Ti9 P18 O72'
_cell_volume   1462.20662641
_cell_formula_units_Z   3
loop_
 _symmetry_equiv_pos_site_id
 _symmetry_equiv_pos_as_xyz
  1  'x, y, z'
loop_
 _atom_site_type_symbol
 _atom_site_label
 _atom_site_symmetry_multiplicity
 _atom_site_fract_x
 _atom_site_fract_y
 _atom_site_fract_z
 _atom_site_occupancy
  Na  Na0  1  0.63916082  0.00674044  0.24744287  1
  Na  Na1  1  0.36762397  0.36083144  0.24753596  1
  Na  Na2  1  0.99351984  0.63172864  0.24723967  1
  Na  Na3  1  0.99345582  0.36507503  0.74679312  1
  Na  Na4  1  0.37007674  0.00354249  0.74683693  1
  Na  Na5  1  0.70477568  0.67181860  0.41602734  1
  Na  Na6  1  0.00860932  0.00907588  0.49781165  1
  Na  Na7  1  0.00009507  0.00023013  0.00046773  1
  Na  Na8  1  0.66584924  0.34145996  0.83410981  1
  Na  Na9  1  0.66584466  0.32520426  0.33396044  1
  Na  Na10  1  0.33333939  0.66664802  0.16260265  1
  Na  Na11  1  0.34176967  0.66563353  0.66349622  1
  Mg  Mg12  1  0.00483751  0.00557043  0.35402194  1
  Mg  Mg13  1  0.66548666  0.33887337  0.68450923  1
  Mg  Mg14  1  0.66682111  0.33335573  0.18182515  1
  Ti  Ti15  1  0.00061548  0.99895208  0.85470842  1
  Ti  Ti16  1  0.99666588  0.99713209  0.64296047  1
  Ti  Ti17  1  0.00137666  0.00110288  0.14449441  1
  Ti  Ti18  1  0.66708758  0.33263933  0.98254451  1
  Ti  Ti19  1  0.66591016  0.32748038  0.48343557  1
  Ti  Ti20  1  0.33286402  0.66650871  0.02070106  1
  Ti  Ti21  1  0.33188866  0.66538226  0.52101328  1
  Ti  Ti22  1  0.33206628  0.66734529  0.31691739  1
  Ti  Ti23  1  0.33865924  0.66559495  0.81632290  1
  P  P24  1  0.28983634  0.00113601  0.25074280  1
  P  P25  1  0.71076626  0.70991373  0.25143867  1
  P  P26  1  0.99866085  0.28848283  0.25083783  1
  P  P27  1  0.28811832  0.28855100  0.75020860  1
  P  P28  1  0.99724726  0.71182275  0.75052779  1
  P  P29  1  0.71180750  0.99540631  0.75030466  1
  P  P30  1  0.95818155  0.33436979  0.58521645  1
  P  P31  1  0.37636239  0.04149982  0.58518617  1
  P  P32  1  0.66510740  0.62229326  0.58350801  1
  P  P33  1  0.95791042  0.62414467  0.08398518  1
  P  P34  1  0.66565196  0.04140414  0.08409167  1
  P  P35  1  0.37627468  0.33442938  0.08398494  1
  P  P36  1  0.62339893  0.66599513  0.91796212  1
  P  P37  1  0.04354467  0.37758889  0.91693568  1
  P  P38  1  0.33475927  0.95657818  0.91704900  1
  P  P39  1  0.62190229  0.95900439  0.41798359  1
  P  P40  1  0.33068477  0.37400997  0.41826230  1
  P  P41  1  0.04312834  0.66556777  0.41827897  1
  O  O42  1  0.20811842  0.03305750  0.30547512  1
  O  O43  1  0.81936023  0.78740371  0.30816975  1
  O  O44  1  0.96509328  0.17395828  0.30546897  1
  O  O45  1  0.19500446  0.16955067  0.80622206  1
  O  O46  1  0.97671545  0.80610444  0.80663841  1
  O  O47  1  0.83117522  0.02533948  0.80596166  1
  O  O48  1  0.79952913  0.96808243  0.69403667  1
  O  O49  1  0.16621824  0.20300915  0.69479828  1
  O  O50  1  0.03418743  0.83347472  0.69502242  1
  O  O51  1  0.79893785  0.83347888  0.19562760  1
  O  O52  1  0.03588810  0.20348364  0.19410747  1
  O  O53  1  0.16823592  0.96463919  0.19396893  1
  O  O54  1  0.88497865  0.36633658  0.64235614  1
  O  O55  1  0.48224145  0.11417967  0.64222309  1
  O  O56  1  0.63141445  0.51177002  0.63864329  1
  O  O57  1  0.88715985  0.51991228  0.14147458  1
  O  O58  1  0.63243256  0.11268826  0.14141009  1
  O  O59  1  0.48016908  0.36745918  0.14150613  1
  O  O60  1  0.46877965  0.30576674  0.02833870  1
  O  O61  1  0.83698291  0.53124922  0.02834937  1
  O  O62  1  0.69439509  0.16266944  0.02836582  1
  O  O63  1  0.46887426  0.16374306  0.52910798  1
  O  O64  1  0.69639051  0.53879538  0.52526318  1
  O  O65  1  0.83653320  0.30551231  0.52913247  1
  O  O66  1  0.53405036  0.69579851  0.97238839  1
  O  O67  1  0.16321923  0.46778172  0.97135706  1
  O  O68  1  0.30497545  0.83711809  0.97149077  1
  O  O69  1  0.52703402  0.83641563  0.47150045  1
  O  O70  1  0.31285738  0.47430059  0.47227534  1
  O  O71  1  0.16197035  0.68796094  0.47210625  1
  O  O72  1  0.13083761  0.63711609  0.35978896  1
  O  O73  1  0.50547629  0.87073463  0.35946285  1
  O  O74  1  0.36620537  0.49619769  0.36029639  1
  O  O75  1  0.13045068  0.49216590  0.85901155  1
  O  O76  1  0.36196540  0.86945825  0.85910945  1
  O  O77  1  0.50416106  0.63853786  0.86111790  1
  O  O78  1  0.01901590  0.82485514  0.41296133  1
  O  O79  1  0.80016235  0.97026552  0.41223443  1
  O  O80  1  0.16951629  0.19551518  0.41304569  1
  O  O81  1  0.02564360  0.19321716  0.90903069  1
  O  O82  1  0.16781732  0.97441478  0.90933198  1
  O  O83  1  0.80649667  0.83247039  0.90912367  1
  O  O84  1  0.97614405  0.16575560  0.58913819  1
  O  O85  1  0.18994197  0.02428587  0.58964902  1
  O  O86  1  0.83412377  0.81005794  0.58943695  1
  O  O87  1  0.97631997  0.81092366  0.08888044  1
  O  O88  1  0.83425907  0.02293074  0.08895314  1
  O  O89  1  0.18927519  0.16584344  0.08883153  1
  O  O90  1  0.69108347  0.15943011  0.74631343  1
  O  O91  1  0.46783995  0.30281337  0.74626718  1
  O  O92  1  0.83972020  0.52666341  0.74670398  1
  O  O93  1  0.68386864  0.52395452  0.24361424  1
  O  O94  1  0.84062357  0.31703964  0.24309310  1
  O  O95  1  0.47625531  0.15916219  0.24318434  1
  O  O96  1  0.64046690  0.49988557  0.92350231  1
  O  O97  1  0.85947866  0.35965680  0.92350777  1
  O  O98  1  0.50013753  0.14061704  0.92349960  1
  O  O99  1  0.63519020  0.14138771  0.42387153  1
  O  O100  1  0.50631813  0.36857726  0.42342262  1
  O  O101  1  0.85782879  0.49616123  0.42335870  1
  O  O102  1  0.35223138  0.49714877  0.07303323  1
  O  O103  1  0.14467379  0.64761451  0.07299615  1
  O  O104  1  0.50261456  0.85522430  0.07299109  1
  O  O105  1  0.35238010  0.85585625  0.57362886  1
  O  O106  1  0.50415057  0.64968673  0.57340077  1
  O  O107  1  0.14401414  0.49631546  0.57407535  1
  O  O108  1  0.30572129  0.82838835  0.25573790  1
  O  O109  1  0.52217151  0.69382857  0.25594053  1
  O  O110  1  0.17131670  0.47678584  0.25617877  1
  O  O111  1  0.29957988  0.47207414  0.75767594  1
  O  O112  1  0.17002784  0.69770045  0.75702900  1
  O  O113  1  0.52376250  0.83008531  0.75716681  1
