# generated using pymatgen
data_K2Zr2O5
_symmetry_space_group_name_H-M   'P 1'
_cell_length_a   5.85317354
_cell_length_b   8.71635253
_cell_length_c   10.81522058
_cell_angle_alpha   90.00000000
_cell_angle_beta   90.00000000
_cell_angle_gamma   90.00000000
_symmetry_Int_Tables_number   1
_chemical_formula_structural   K2Zr2O5
_chemical_formula_sum   'K8 Zr8 O20'
_cell_volume   551.77442762
_cell_formula_units_Z   4
loop_
 _symmetry_equiv_pos_site_id
 _symmetry_equiv_pos_as_xyz
  1  'x, y, z'
loop_
 _atom_site_type_symbol
 _atom_site_label
 _atom_site_symmetry_multiplicity
 _atom_site_fract_x
 _atom_site_fract_y
 _atom_site_fract_z
 _atom_site_occupancy
  K  K0  1  0.06482208  0.42389115  0.16694904  1
  K  K1  1  0.06482208  0.07610885  0.33305096  1
  K  K2  1  0.43517792  0.42389115  0.83305096  1
  K  K3  1  0.43517792  0.07610885  0.66694904  1
  K  K4  1  0.93517792  0.57610885  0.83305096  1
  K  K5  1  0.93517792  0.92389115  0.66694904  1
  K  K6  1  0.56482208  0.57610885  0.16694904  1
  K  K7  1  0.56482208  0.92389115  0.33305096  1
  Zr  Zr8  1  0.53178328  0.33957627  0.42343416  1
  Zr  Zr9  1  0.53178328  0.16042373  0.07656584  1
  Zr  Zr10  1  0.96821672  0.33957627  0.57656584  1
  Zr  Zr11  1  0.96821672  0.16042373  0.92343416  1
  Zr  Zr12  1  0.46821672  0.66042373  0.57656584  1
  Zr  Zr13  1  0.46821672  0.83957627  0.92343416  1
  Zr  Zr14  1  0.03178328  0.66042373  0.42343416  1
  Zr  Zr15  1  0.03178328  0.83957627  0.07656584  1
  O  O16  1  0.49024564  0.25000000  0.25000000  1
  O  O17  1  0.00975436  0.25000000  0.75000000  1
  O  O18  1  0.50975436  0.75000000  0.75000000  1
  O  O19  1  0.99024564  0.75000000  0.25000000  1
  O  O20  1  0.25000000  0.82546665  0.50000000  1
  O  O21  1  0.25000000  0.67453335  -0.00000000  1
  O  O22  1  0.75000000  0.17453335  0.50000000  1
  O  O23  1  0.75000000  0.32546665  -0.00000000  1
  O  O24  1  0.25000000  0.24375620  0.50000000  1
  O  O25  1  0.25000000  0.25624380  -0.00000000  1
  O  O26  1  0.75000000  0.75624380  0.50000000  1
  O  O27  1  0.75000000  0.74375620  -0.00000000  1
  O  O28  1  0.37308204  0.94872097  0.10634496  1
  O  O29  1  0.37308204  0.55127903  0.39365504  1
  O  O30  1  0.12691796  0.94872097  0.89365504  1
  O  O31  1  0.12691796  0.55127903  0.60634496  1
  O  O32  1  0.87308204  0.44872097  0.39365504  1
  O  O33  1  0.87308204  0.05127903  0.10634496  1
  O  O34  1  0.62691796  0.44872097  0.60634496  1
  O  O35  1  0.62691796  0.05127903  0.89365504  1
