# generated using pymatgen
data_ZnPb2F6
_symmetry_space_group_name_H-M   'P 1'
_cell_length_a   5.64751718
_cell_length_b   5.64751718
_cell_length_c   15.90396139
_cell_angle_alpha   90.00000000
_cell_angle_beta   90.00000000
_cell_angle_gamma   90.00000000
_symmetry_Int_Tables_number   1
_chemical_formula_structural   ZnPb2F6
_chemical_formula_sum   'Zn4 Pb8 F24'
_cell_volume   507.24810610
_cell_formula_units_Z   4
loop_
 _symmetry_equiv_pos_site_id
 _symmetry_equiv_pos_as_xyz
  1  'x, y, z'
loop_
 _atom_site_type_symbol
 _atom_site_label
 _atom_site_symmetry_multiplicity
 _atom_site_fract_x
 _atom_site_fract_y
 _atom_site_fract_z
 _atom_site_occupancy
  Zn  Zn0  1  0.75000000  0.25000000  0.25000000  1
  Zn  Zn1  1  0.25000000  0.25000000  0.75000000  1
  Zn  Zn2  1  0.75000000  0.75000000  0.75000000  1
  Zn  Zn3  1  0.25000000  0.75000000  0.25000000  1
  Pb  Pb4  1  0.25920551  0.75920551  0.59451446  1
  Pb  Pb5  1  0.74079449  0.24079449  0.59451446  1
  Pb  Pb6  1  0.75920551  0.25920551  0.90548554  1
  Pb  Pb7  1  0.25920551  0.24079449  0.09451446  1
  Pb  Pb8  1  0.74079449  0.75920551  0.09451446  1
  Pb  Pb9  1  0.24079449  0.25920551  0.40548554  1
  Pb  Pb10  1  0.75920551  0.74079449  0.40548554  1
  Pb  Pb11  1  0.24079449  0.74079449  0.90548554  1
  F  F12  1  -0.00000000  0.50000000  0.50825497  1
  F  F13  1  -0.00000000  0.50000000  0.00825497  1
  F  F14  1  0.50000000  0.00000000  0.49174503  1
  F  F15  1  0.50000000  0.00000000  0.99174503  1
  F  F16  1  -0.00000000  0.00000000  0.00000000  1
  F  F17  1  0.50000000  0.50000000  0.50000000  1
  F  F18  1  0.50000000  0.50000000  0.00000000  1
  F  F19  1  -0.00000000  0.00000000  0.50000000  1
  F  F20  1  -0.00000000  0.50000000  0.71581307  1
  F  F21  1  -0.00000000  0.50000000  0.21581307  1
  F  F22  1  0.50000000  0.00000000  0.28418693  1
  F  F23  1  0.50000000  0.00000000  0.78418693  1
  F  F24  1  0.30345129  0.80345129  0.12762945  1
  F  F25  1  0.69654871  0.80345129  0.62762945  1
  F  F26  1  0.30345129  0.19654871  0.62762945  1
  F  F27  1  0.80345129  0.69654871  0.87237055  1
  F  F28  1  0.19654871  0.30345129  0.87237055  1
  F  F29  1  0.69654871  0.19654871  0.12762945  1
  F  F30  1  0.80345129  0.30345129  0.37237055  1
  F  F31  1  0.19654871  0.69654871  0.37237055  1
  F  F32  1  -0.00000000  0.00000000  0.75000000  1
  F  F33  1  0.50000000  0.50000000  0.25000000  1
  F  F34  1  0.50000000  0.50000000  0.75000000  1
  F  F35  1  -0.00000000  0.00000000  0.25000000  1
