# generated using pymatgen
data_Na6Sc8Si3(S3O16)3
_symmetry_space_group_name_H-M   'P 1'
_cell_length_a   17.89821682
_cell_length_b   8.87978822
_cell_length_c   23.17261165
_cell_angle_alpha   90.07346762
_cell_angle_beta   89.97236362
_cell_angle_gamma   119.73735138
_symmetry_Int_Tables_number   1
_chemical_formula_structural   Na6Sc8Si3(S3O16)3
_chemical_formula_sum   'Na18 Sc24 Si9 S27 O144'
_cell_volume   3197.87117103
_cell_formula_units_Z   3
loop_
 _symmetry_equiv_pos_site_id
 _symmetry_equiv_pos_as_xyz
  1  'x, y, z'
loop_
 _atom_site_type_symbol
 _atom_site_label
 _atom_site_symmetry_multiplicity
 _atom_site_fract_x
 _atom_site_fract_y
 _atom_site_fract_z
 _atom_site_occupancy
  Na  Na0  1  0.00411127  0.64481747  0.25269373  1
  Na  Na1  1  0.50251069  0.36276655  0.74476303  1
  Na  Na2  1  0.16269503  0.30299525  0.91291862  1
  Na  Na3  1  0.66252526  0.30281485  0.91327831  1
  Na  Na4  1  0.16419488  0.02540761  0.41696759  1
  Na  Na5  1  0.66184130  0.01759117  0.41673056  1
  Na  Na6  1  0.99496566  0.99091381  0.50057298  1
  Na  Na7  1  0.49479868  0.99926467  0.50270267  1
  Na  Na8  1  0.99599846  0.00145203  0.99734249  1
  Na  Na9  1  0.49481684  0.99950343  0.99866251  1
  Na  Na10  1  0.33145483  0.33267223  0.82903515  1
  Na  Na11  1  0.83888973  0.33502583  0.82945404  1
  Na  Na12  1  0.34106182  0.34707489  0.33480070  1
  Na  Na13  1  0.83133940  0.33066808  0.33530878  1
  Na  Na14  1  0.17320009  0.67751576  0.16847996  1
  Na  Na15  1  0.66463066  0.67431186  0.17111345  1
  Na  Na16  1  0.16742887  0.65781814  0.66920727  1
  Na  Na17  1  0.66550000  0.65834125  0.66329817  1
  Sc  Sc18  1  0.00355785  0.99574504  0.35262690  1
  Sc  Sc19  1  0.50407133  0.99361556  0.35101956  1
  Sc  Sc20  1  0.00390088  0.01544686  0.84873170  1
  Sc  Sc21  1  0.50333394  0.01219703  0.84959014  1
  Sc  Sc22  1  0.00562393  0.01356544  0.65095628  1
  Sc  Sc23  1  0.50404779  0.01980843  0.64612716  1
  Sc  Sc24  1  0.00531706  0.99882155  0.14998872  1
  Sc  Sc25  1  0.50433630  0.99670800  0.15157197  1
  Sc  Sc26  1  0.33089155  0.33632465  0.68282515  1
  Sc  Sc27  1  0.82855525  0.33396161  0.68721460  1
  Sc  Sc28  1  0.33004807  0.32480802  0.18847784  1
  Sc  Sc29  1  0.82323848  0.31532743  0.18690286  1
  Sc  Sc30  1  0.34144856  0.33350683  0.98010821  1
  Sc  Sc31  1  0.84133203  0.33381606  0.98026475  1
  Sc  Sc32  1  0.34708161  0.34708918  0.48322931  1
  Sc  Sc33  1  0.84058236  0.34805981  0.48098881  1
  Sc  Sc34  1  0.16244405  0.65618165  0.01615826  1
  Sc  Sc35  1  0.66114289  0.65471030  0.01676026  1
  Sc  Sc36  1  0.16261996  0.66850337  0.51761904  1
  Sc  Sc37  1  0.65419344  0.65682194  0.52070702  1
  Sc  Sc38  1  0.16420405  0.67197876  0.31566623  1
  Sc  Sc39  1  0.65792122  0.66903489  0.31444207  1
  Sc  Sc40  1  0.15761963  0.64607055  0.81181281  1
  Sc  Sc41  1  0.66258760  0.65550987  0.81342894  1
  Si  Si42  1  0.14853959  0.00236612  0.25089907  1
  Si  Si43  1  0.64701167  0.99770491  0.25084619  1
  Si  Si44  1  0.15090214  0.29546250  0.75033685  1
  Si  Si45  1  0.64896631  0.29324639  0.75110498  1
  Si  Si46  1  0.47986884  0.33251924  0.58652858  1
  Si  Si47  1  0.01882705  0.37094052  0.91683199  1
  Si  Si48  1  0.51883754  0.37149998  0.91543581  1
  Si  Si49  1  0.01882946  0.66336760  0.41579260  1
  Si  Si50  1  0.51721273  0.66464938  0.41669191  1
  S  S51  1  0.35355010  0.70809037  0.24912636  1
  S  S52  1  0.85440416  0.70962299  0.24875334  1
  S  S53  1  0.00014485  0.29121244  0.24912221  1
  S  S54  1  0.50003534  0.29007986  0.24935160  1
  S  S55  1  0.99955347  0.70967712  0.74943902  1
  S  S56  1  0.49982396  0.71057916  0.75022546  1
  S  S57  1  0.35246138  0.99665338  0.75008974  1
  S  S58  1  0.85372809  0.99954406  0.74923795  1
  S  S59  1  0.97893854  0.33246912  0.58350205  1
  S  S60  1  0.18574934  0.03920751  0.58167679  1
  S  S61  1  0.68952433  0.04343125  0.58253480  1
  S  S62  1  0.33202474  0.62724881  0.58293623  1
  S  S63  1  0.83480207  0.62880754  0.58361023  1
  S  S64  1  0.47890347  0.62576084  0.08356891  1
  S  S65  1  0.97950709  0.62614703  0.08448639  1
  S  S66  1  0.33332729  0.03946199  0.08356516  1
  S  S67  1  0.83334651  0.03846496  0.08330981  1
  S  S68  1  0.18775610  0.33427827  0.08276629  1
  S  S69  1  0.68690794  0.33374750  0.08215489  1
  S  S70  1  0.31262402  0.66826873  0.91754851  1
  S  S71  1  0.81242266  0.66803488  0.91794033  1
  S  S72  1  0.16647693  0.95720675  0.91737995  1
  S  S73  1  0.66647245  0.95727822  0.91763172  1
  S  S74  1  0.31239589  0.95688431  0.41716544  1
  S  S75  1  0.81293172  0.95673901  0.41755355  1
  S  S76  1  0.16640608  0.37590934  0.41684550  1
  S  S77  1  0.66698771  0.37595317  0.41647786  1
  O  O78  1  0.10373139  0.02812807  0.30873495  1
  O  O79  1  0.60590491  0.03136540  0.30895974  1
  O  O80  1  0.40600364  0.78900697  0.30131424  1
  O  O81  1  0.90855578  0.78911558  0.30047103  1
  O  O82  1  0.48514010  0.18417880  0.30144355  1
  O  O83  1  0.98526800  0.18553219  0.30136482  1
  O  O84  1  0.10618061  0.18239852  0.80952994  1
  O  O85  1  0.60696989  0.18301766  0.81072648  1
  O  O86  1  0.48805050  0.79076847  0.80268428  1
  O  O87  1  0.98525695  0.78673579  0.80212958  1
  O  O88  1  0.40776595  0.02481913  0.80187126  1
  O  O89  1  0.90618141  0.02377235  0.80175385  1
  O  O90  1  0.39199709  0.96862277  0.69819626  1
  O  O91  1  0.89339379  0.97088036  0.69756875  1
  O  O92  1  0.08688667  0.19849011  0.69545264  1
  O  O93  1  0.58341668  0.20230301  0.69724496  1
  O  O94  1  0.00913068  0.81367577  0.69759786  1
  O  O95  1  0.50947590  0.81214269  0.69802156  1
  O  O96  1  0.39320592  0.81541894  0.19715117  1
  O  O97  1  0.89417747  0.81654836  0.19684860  1
  O  O98  1  0.00932136  0.20612182  0.19719061  1
  O  O99  1  0.50931974  0.20465333  0.19698430  1
  O  O100  1  0.08322394  0.96518988  0.19591073  1
  O  O101  1  0.58721537  0.97451009  0.19436075  1
  O  O102  1  0.43580143  0.35770317  0.64510218  1
  O  O103  1  0.93853574  0.35730079  0.63546841  1
  O  O104  1  0.23908225  0.12382129  0.63321395  1
  O  O105  1  0.74325598  0.13237527  0.63370932  1
  O  O106  1  0.31725944  0.51898874  0.63501145  1
  O  O107  1  0.82316869  0.52024155  0.63517152  1
  O  O108  1  0.43840626  0.51987292  0.13530529  1
  O  O109  1  0.94030887  0.52433819  0.13744928  1
  O  O110  1  0.32167570  0.12442495  0.13520127  1
  O  O111  1  0.82184630  0.12302810  0.13507413  1
  O  O112  1  0.24154058  0.35506394  0.13393358  1
  O  O113  1  0.74101336  0.35594929  0.13333521  1
  O  O114  1  0.22619533  0.31002233  0.02944193  1
  O  O115  1  0.72673163  0.31055633  0.02914236  1
  O  O116  1  0.42640607  0.54252387  0.03142385  1
  O  O117  1  0.92556354  0.54023389  0.03314232  1
  O  O118  1  0.34460536  0.14637270  0.03162420  1
  O  O119  1  0.84516958  0.14646977  0.03164571  1
  O  O120  1  0.22314582  0.13956922  0.52831877  1
  O  O121  1  0.72867784  0.14682192  0.52931008  1
  O  O122  1  0.34252573  0.54354606  0.53102426  1
  O  O123  1  0.84643863  0.54357741  0.53166865  1
  O  O124  1  0.42090774  0.30598726  0.52954432  1
  O  O125  1  0.92648492  0.31056072  0.53139259  1
  O  O126  1  0.27325755  0.69594661  0.96992525  1
  O  O127  1  0.77286658  0.69565851  0.97002810  1
  O  O128  1  0.08202001  0.46211608  0.97293013  1
  O  O129  1  0.58310307  0.46487320  0.97094617  1
  O  O130  1  0.15732757  0.85424066  0.96944697  1
  O  O131  1  0.65748994  0.85419054  0.96950499  1
  O  O132  1  0.27279962  0.85012392  0.46897638  1
  O  O133  1  0.77480935  0.85190746  0.46956005  1
  O  O134  1  0.15624999  0.46030024  0.46864410  1
  O  O135  1  0.65799354  0.45998114  0.46862260  1
  O  O136  1  0.08412799  0.70077386  0.47020960  1
  O  O137  1  0.58309280  0.70873284  0.47124370  1
  O  O138  1  0.06193875  0.63773509  0.35683446  1
  O  O139  1  0.56424049  0.63893820  0.36008182  1
  O  O140  1  0.25813272  0.87353922  0.36520060  1
  O  O141  1  0.75932570  0.87800774  0.36524739  1
  O  O142  1  0.17939591  0.48063383  0.36456525  1
  O  O143  1  0.68232673  0.48093075  0.36419266  1
  O  O144  1  0.06478909  0.49240892  0.86141490  1
  O  O145  1  0.56342268  0.48801084  0.85819920  1
  O  O146  1  0.18197224  0.88253044  0.86520115  1
  O  O147  1  0.68187364  0.88246469  0.86541143  1
  O  O148  1  0.25872592  0.63975258  0.86597912  1
  O  O149  1  0.75867415  0.63947576  0.86629821  1
  O  O150  1  0.01341669  0.84328962  0.41152777  1
  O  O151  1  0.51217277  0.84505753  0.41088141  1
  O  O152  1  0.39933921  0.98267684  0.40962523  1
  O  O153  1  0.90073498  0.98551208  0.40930711  1
  O  O154  1  0.08631414  0.20184510  0.41183862  1
  O  O155  1  0.58852546  0.20174418  0.41126920  1
  O  O156  1  0.01282333  0.18020801  0.91268444  1
  O  O157  1  0.51309653  0.18101953  0.91216628  1
  O  O158  1  0.08777795  0.97405059  0.91271811  1
  O  O159  1  0.58791916  0.97378024  0.91284582  1
  O  O160  1  0.40009497  0.81613059  0.91110651  1
  O  O161  1  0.90000091  0.81624726  0.91113294  1
  O  O162  1  0.48808550  0.15643507  0.58781107  1
  O  O163  1  0.98652306  0.17318969  0.58803284  1
  O  O164  1  0.09789425  0.01613880  0.58877586  1
  O  O165  1  0.60227649  0.02057184  0.58891196  1
  O  O166  1  0.41027918  0.79760944  0.59005758  1
  O  O167  1  0.91345239  0.80065066  0.58965273  1
  O  O168  1  0.48657133  0.80026027  0.08816447  1
  O  O169  1  0.98663675  0.80081572  0.08828939  1
  O  O170  1  0.41114959  0.02215011  0.08939581  1
  O  O171  1  0.91150967  0.02197370  0.08958168  1
  O  O172  1  0.10008429  0.18013393  0.08950389  1
  O  O173  1  0.59985130  0.18028849  0.08863661  1
  O  O174  1  0.34884296  0.16085128  0.74495229  1
  O  O175  1  0.84753915  0.15967549  0.74250201  1
  O  O176  1  0.24513523  0.31177995  0.74369665  1
  O  O177  1  0.74453817  0.31436164  0.74397059  1
  O  O178  1  0.42446699  0.53113390  0.74632735  1
  O  O179  1  0.92400010  0.53241374  0.74278267  1
  O  O180  1  0.34715702  0.53533136  0.24187915  1
  O  O181  1  0.85189454  0.53841053  0.24160530  1
  O  O182  1  0.42423243  0.31572951  0.24200643  1
  O  O183  1  0.92548351  0.32281136  0.24219859  1
  O  O184  1  0.24312228  0.17256924  0.24233584  1
  O  O185  1  0.74251207  0.17298765  0.24320546  1
  O  O186  1  0.31567128  0.50254965  0.92526764  1
  O  O187  1  0.81551629  0.50243021  0.92532164  1
  O  O188  1  0.42399530  0.35275031  0.92377300  1
  O  O189  1  0.92353773  0.35160516  0.92433353  1
  O  O190  1  0.24100049  0.13877181  0.92497448  1
  O  O191  1  0.74123466  0.13863346  0.92485595  1
  O  O192  1  0.31366618  0.12615135  0.42251909  1
  O  O193  1  0.81659430  0.13008101  0.42404666  1
  O  O194  1  0.23975396  0.34312251  0.42292053  1
  O  O195  1  0.74162264  0.34287646  0.42336876  1
  O  O196  1  0.42170734  0.49584581  0.42066237  1
  O  O197  1  0.92360304  0.49365198  0.42318933  1
  O  O198  1  0.17997103  0.49375882  0.07874734  1
  O  O199  1  0.68020415  0.49434642  0.07810340  1
  O  O200  1  0.06673301  0.64716530  0.07753882  1
  O  O201  1  0.56643940  0.64643413  0.07700498  1
  O  O202  1  0.25510439  0.86639792  0.07723165  1
  O  O203  1  0.75542797  0.86595464  0.07681839  1
  O  O204  1  0.17852064  0.86409938  0.57765010  1
  O  O205  1  0.68476920  0.87243699  0.57861810  1
  O  O206  1  0.25431466  0.64710299  0.57635529  1
  O  O207  1  0.75780897  0.64701586  0.57694613  1
  O  O208  1  0.06632331  0.48655583  0.57692382  1
  O  O209  1  0.57603735  0.50380804  0.57981277  1
  O  O210  1  0.15341370  0.82221611  0.25456536  1
  O  O211  1  0.65972883  0.82845918  0.25381957  1
  O  O212  1  0.26638925  0.68519882  0.25572188  1
  O  O213  1  0.76700791  0.68245408  0.25577298  1
  O  O214  1  0.07868226  0.46459423  0.25402022  1
  O  O215  1  0.57945973  0.46092115  0.25397651  1
  O  O216  1  0.15854809  0.48700818  0.75450614  1
  O  O217  1  0.65500083  0.48441586  0.75625664  1
  O  O218  1  0.07908184  0.69802175  0.75454602  1
  O  O219  1  0.57863605  0.69247953  0.75548708  1
  O  O220  1  0.26612209  0.84819673  0.75804123  1
  O  O221  1  0.76684441  0.84821957  0.75674351  1
