# generated using pymatgen
data_Sr4MgV3O10
_symmetry_space_group_name_H-M   'P 1'
_cell_length_a   3.92290640
_cell_length_b   3.92265808
_cell_length_c   16.00460418
_cell_angle_alpha   96.96938964
_cell_angle_beta   96.97840603
_cell_angle_gamma   89.99627648
_symmetry_Int_Tables_number   1
_chemical_formula_structural   Sr4MgV3O10
_chemical_formula_sum   'Sr4 Mg1 V3 O10'
_cell_volume   242.62472505
_cell_formula_units_Z   1
loop_
 _symmetry_equiv_pos_site_id
 _symmetry_equiv_pos_as_xyz
  1  'x, y, z'
loop_
 _atom_site_type_symbol
 _atom_site_label
 _atom_site_symmetry_multiplicity
 _atom_site_fract_x
 _atom_site_fract_y
 _atom_site_fract_z
 _atom_site_occupancy
  Sr  Sr0  1  0.67918400  0.68026300  0.36175500  1
  Sr  Sr1  1  0.31987600  0.32109700  0.63828000  1
  Sr  Sr2  1  0.55768900  0.55807400  0.11627200  1
  Sr  Sr3  1  0.44165500  0.44211500  0.88363200  1
  Mg  Mg4  1  0.75169800  0.24847500  0.50004300  1
  V  V5  1  0.87647600  0.87682000  0.75248900  1
  V  V6  1  0.12322200  0.12353600  0.24745300  1
  V  V7  1  0.99958200  0.00005500  0.99986700  1
  O  O8  1  0.77992300  0.77765700  0.55792500  1
  O  O9  1  0.22260900  0.22046000  0.44228700  1
  O  O10  1  0.86766700  0.36801100  0.73473200  1
  O  O11  1  0.36923100  0.86958900  0.73781100  1
  O  O12  1  0.13056600  0.63084200  0.26222300  1
  O  O13  1  0.63207500  0.13248700  0.26526700  1
  O  O14  1  0.93925300  0.93973100  0.87854800  1
  O  O15  1  0.49970900  0.00019400  0.00013600  1
  O  O16  1  0.06007700  0.06056300  0.12145200  1
  O  O17  1  0.99951100  0.50003300  0.99982800  1
