# generated using pymatgen
data_VO2
_symmetry_space_group_name_H-M   'P 1'
_cell_length_a   5.24558429
_cell_length_b   5.87966937
_cell_length_c   10.80343920
_cell_angle_alpha   89.98520471
_cell_angle_beta   90.01572450
_cell_angle_gamma   87.02971582
_symmetry_Int_Tables_number   1
_chemical_formula_structural   VO2
_chemical_formula_sum   'V8 O16'
_cell_volume   332.75525782
_cell_formula_units_Z   8
loop_
 _symmetry_equiv_pos_site_id
 _symmetry_equiv_pos_as_xyz
  1  'x, y, z'
loop_
 _atom_site_type_symbol
 _atom_site_label
 _atom_site_symmetry_multiplicity
 _atom_site_fract_x
 _atom_site_fract_y
 _atom_site_fract_z
 _atom_site_occupancy
  V  V0  1  0.49920300  0.74983400  0.49825500  1
  V  V1  1  0.49903800  0.74988200  0.00202000  1
  V  V2  1  0.50086800  0.25015700  0.50169300  1
  V  V3  1  0.50091000  0.25016000  0.99793400  1
  V  V4  1  0.00001200  0.49999300  0.49993500  1
  V  V5  1  0.99995700  0.00004300  0.00004500  1
  V  V6  1  0.00005000  0.99995000  0.50004200  1
  V  V7  1  0.99999100  0.50002100  0.99994100  1
  O  O8  1  0.83772200  0.74348900  0.41046500  1
  O  O9  1  0.83774300  0.74363500  0.08969600  1
  O  O10  1  0.16233100  0.25649800  0.58956900  1
  O  O11  1  0.16219600  0.25637200  0.91032000  1
  O  O12  1  0.16271000  0.75631400  0.58865500  1
  O  O13  1  0.16263300  0.75620800  0.91140300  1
  O  O14  1  0.83736100  0.24355700  0.41137100  1
  O  O15  1  0.83729400  0.24391900  0.08860700  1
  O  O16  1  0.66239200  0.50703800  0.58898500  1
  O  O17  1  0.66251800  0.00523900  0.91084800  1
  O  O18  1  0.33745500  0.99434600  0.41089100  1
  O  O19  1  0.33766800  0.49304300  0.08900700  1
  O  O20  1  0.33768000  0.49287800  0.41100500  1
  O  O21  1  0.33746300  0.99481300  0.08919300  1
  O  O22  1  0.66256000  0.00559100  0.58916300  1
  O  O23  1  0.66224500  0.50702100  0.91096000  1
