# generated using pymatgen
data_Na6Nb2Zn4Si3(SO6)6
_symmetry_space_group_name_H-M   'P 1'
_cell_length_a   8.95464002
_cell_length_b   8.95463972
_cell_length_c   22.48193516
_cell_angle_alpha   90.00000000
_cell_angle_beta   90.00000000
_cell_angle_gamma   120.00000112
_symmetry_Int_Tables_number   1
_chemical_formula_structural   Na6Nb2Zn4Si3(SO6)6
_chemical_formula_sum   'Na12 Nb4 Zn8 Si6 S12 O72'
_cell_volume   1561.20727563
_cell_formula_units_Z   2
loop_
 _symmetry_equiv_pos_site_id
 _symmetry_equiv_pos_as_xyz
  1  'x, y, z'
loop_
 _atom_site_type_symbol
 _atom_site_label
 _atom_site_symmetry_multiplicity
 _atom_site_fract_x
 _atom_site_fract_y
 _atom_site_fract_z
 _atom_site_occupancy
  Na  Na0  1  0.98433025  0.69301408  0.91661149  1
  Na  Na1  1  0.70868283  0.01566975  0.91661149  1
  Na  Na2  1  0.30698592  0.29131717  0.91661149  1
  Na  Na3  1  0.98433025  0.29131717  0.41661149  1
  Na  Na4  1  0.30698592  0.01566975  0.41661149  1
  Na  Na5  1  0.70868283  0.69301408  0.41661149  1
  Na  Na6  1  -0.00000000  -0.00000000  0.49889863  1
  Na  Na7  1  -0.00000000  -0.00000000  0.99889863  1
  Na  Na8  1  0.66666700  0.33333300  0.82210720  1
  Na  Na9  1  0.66666700  0.33333300  0.32210720  1
  Na  Na10  1  0.33333300  0.66666700  0.15885770  1
  Na  Na11  1  0.33333300  0.66666700  0.65885770  1
  Nb  Nb12  1  0.66666700  0.33333300  0.97975226  1
  Nb  Nb13  1  0.66666700  0.33333300  0.47975226  1
  Nb  Nb14  1  0.33333300  0.66666700  0.31678753  1
  Nb  Nb15  1  0.33333300  0.66666700  0.81678753  1
  Zn  Zn16  1  -0.00000000  -0.00000000  0.35062580  1
  Zn  Zn17  1  -0.00000000  -0.00000000  0.85062580  1
  Zn  Zn18  1  -0.00000000  -0.00000000  0.65110257  1
  Zn  Zn19  1  -0.00000000  -0.00000000  0.15110257  1
  Zn  Zn20  1  0.66666700  0.33333300  0.68203488  1
  Zn  Zn21  1  0.66666700  0.33333300  0.18203488  1
  Zn  Zn22  1  0.33333300  0.66666700  0.00906634  1
  Zn  Zn23  1  0.33333300  0.66666700  0.50906634  1
  Si  Si24  1  0.62657965  0.66945547  0.92000569  1
  Si  Si25  1  0.04287482  0.37342035  0.92000569  1
  Si  Si26  1  0.33054453  0.95712518  0.92000569  1
  Si  Si27  1  0.62657965  0.95712518  0.42000569  1
  Si  Si28  1  0.33054453  0.37342035  0.42000569  1
  Si  Si29  1  0.04287482  0.66945547  0.42000569  1
  S  S30  1  0.29803399  -0.00008627  0.24896995  1
  S  S31  1  0.70187974  0.70196601  0.24896995  1
  S  S32  1  0.00008627  0.29812026  0.24896995  1
  S  S33  1  0.29803399  0.29812026  0.74896995  1
  S  S34  1  0.00008627  0.70196601  0.74896995  1
  S  S35  1  0.70187974  -0.00008627  0.74896995  1
  S  S36  1  0.96010305  0.33215152  0.58618641  1
  S  S37  1  0.37204946  0.03989695  0.58618641  1
  S  S38  1  0.66784848  0.62795054  0.58618641  1
  S  S39  1  0.96010305  0.62795054  0.08618641  1
  S  S40  1  0.66784848  0.03989695  0.08618641  1
  S  S41  1  0.37204946  0.33215152  0.08618641  1
  O  O42  1  0.22301588  0.01813118  0.30534649  1
  O  O43  1  0.79511530  0.77698412  0.30534649  1
  O  O44  1  0.98186882  0.20488470  0.30534649  1
  O  O45  1  0.22301588  0.20488470  0.80534649  1
  O  O46  1  0.98186882  0.77698412  0.80534649  1
  O  O47  1  0.79511530  0.01813118  0.80534649  1
  O  O48  1  0.78477894  0.97571550  0.69655008  1
  O  O49  1  0.19093656  0.21522106  0.69655008  1
  O  O50  1  0.02428450  0.80906344  0.69655008  1
  O  O51  1  0.78477894  0.80906344  0.19655008  1
  O  O52  1  0.02428450  0.21522106  0.19655008  1
  O  O53  1  0.19093656  0.97571550  0.19655008  1
  O  O54  1  0.86808527  0.34572033  0.63807445  1
  O  O55  1  0.47763606  0.13191473  0.63807445  1
  O  O56  1  0.65427967  0.52236394  0.63807445  1
  O  O57  1  0.86808527  0.52236394  0.13807445  1
  O  O58  1  0.65427967  0.13191473  0.13807445  1
  O  O59  1  0.47763606  0.34572033  0.13807445  1
  O  O60  1  0.46888752  0.31976942  0.03001515  1
  O  O61  1  0.85088290  0.53111248  0.03001515  1
  O  O62  1  0.68023058  0.14911710  0.03001515  1
  O  O63  1  0.46888752  0.14911710  0.53001515  1
  O  O64  1  0.68023058  0.53111248  0.53001515  1
  O  O65  1  0.85088290  0.31976942  0.53001515  1
  O  O66  1  0.55516978  0.71871168  0.97670026  1
  O  O67  1  0.16354090  0.44483022  0.97670026  1
  O  O68  1  0.28128832  0.83645910  0.97670026  1
  O  O69  1  0.55516978  0.83645910  0.47670026  1
  O  O70  1  0.28128832  0.44483022  0.47670026  1
  O  O71  1  0.16354090  0.71871168  0.47670026  1
  O  O72  1  0.13267383  0.62205323  0.36133840  1
  O  O73  1  0.48937841  0.86732617  0.36133840  1
  O  O74  1  0.37794677  0.51062159  0.36133840  1
  O  O75  1  0.13267383  0.51062159  0.86133840  1
  O  O76  1  0.37794677  0.86732617  0.86133840  1
  O  O77  1  0.48937841  0.62205323  0.86133840  1
  O  O78  1  0.00177909  0.82145159  0.40703929  1
  O  O79  1  0.81967249  0.99822091  0.40703929  1
  O  O80  1  0.17854841  0.18032751  0.40703929  1
  O  O81  1  0.00177909  0.18032751  0.90703929  1
  O  O82  1  0.17854841  0.99822091  0.90703929  1
  O  O83  1  0.81967249  0.82145159  0.90703929  1
  O  O84  1  0.96412990  0.16844565  0.58531684  1
  O  O85  1  0.20431574  0.03587010  0.58531684  1
  O  O86  1  0.83155435  0.79568426  0.58531684  1
  O  O87  1  0.96412990  0.79568426  0.08531684  1
  O  O88  1  0.83155435  0.03587010  0.08531684  1
  O  O89  1  0.20431574  0.16844565  0.08531684  1
  O  O90  1  0.67688637  0.15199422  0.74396685  1
  O  O91  1  0.47510884  0.32311363  0.74396685  1
  O  O92  1  0.84800578  0.52489116  0.74396685  1
  O  O93  1  0.67688637  0.52489116  0.24396685  1
  O  O94  1  0.84800578  0.32311363  0.24396685  1
  O  O95  1  0.47510884  0.15199422  0.24396685  1
  O  O96  1  0.63092266  0.48556187  0.92613436  1
  O  O97  1  0.85464020  0.36907734  0.92613436  1
  O  O98  1  0.51443813  0.14535980  0.92613436  1
  O  O99  1  0.63092266  0.14535980  0.42613436  1
  O  O100  1  0.51443813  0.36907734  0.42613436  1
  O  O101  1  0.85464020  0.48556187  0.42613436  1
  O  O102  1  0.35735206  0.48641337  0.08172109  1
  O  O103  1  0.12906031  0.64264794  0.08172109  1
  O  O104  1  0.51358663  0.87093969  0.08172109  1
  O  O105  1  0.35735206  0.87093969  0.58172109  1
  O  O106  1  0.51358663  0.64264794  0.58172109  1
  O  O107  1  0.12906031  0.48641337  0.58172109  1
  O  O108  1  0.31270435  0.83645731  0.25294587  1
  O  O109  1  0.52375196  0.68729565  0.25294587  1
  O  O110  1  0.16354269  0.47624804  0.25294587  1
  O  O111  1  0.31270435  0.47624804  0.75294587  1
  O  O112  1  0.16354269  0.68729565  0.75294587  1
  O  O113  1  0.52375196  0.83645731  0.75294587  1
