# generated using pymatgen
data_Na4MgGe3(PO4)6
_symmetry_space_group_name_H-M   'P 1'
_cell_length_a   8.55195835
_cell_length_b   8.55764066
_cell_length_c   21.69649660
_cell_angle_alpha   89.99932210
_cell_angle_beta   89.98761634
_cell_angle_gamma   119.91617281
_symmetry_Int_Tables_number   1
_chemical_formula_structural   Na4MgGe3(PO4)6
_chemical_formula_sum   'Na12 Mg3 Ge9 P18 O72'
_cell_volume   1376.27772978
_cell_formula_units_Z   3
loop_
 _symmetry_equiv_pos_site_id
 _symmetry_equiv_pos_as_xyz
  1  'x, y, z'
loop_
 _atom_site_type_symbol
 _atom_site_label
 _atom_site_symmetry_multiplicity
 _atom_site_fract_x
 _atom_site_fract_y
 _atom_site_fract_z
 _atom_site_occupancy
  Na  Na0  1  0.64070469  0.00852237  0.24676505  1
  Na  Na1  1  0.36797590  0.35915704  0.24677529  1
  Na  Na2  1  0.99188425  0.63148305  0.24640827  1
  Na  Na3  1  0.99039224  0.36583041  0.74495208  1
  Na  Na4  1  0.37401010  0.00541751  0.74517327  1
  Na  Na5  1  0.70763536  0.67445616  0.41615589  1
  Na  Na6  1  0.01094823  0.01189149  0.49795523  1
  Na  Na7  1  0.99977404  0.99989274  0.00065356  1
  Na  Na8  1  0.66508148  0.34423504  0.83411011  1
  Na  Na9  1  0.66527246  0.32223134  0.33406236  1
  Na  Na10  1  0.33303173  0.66660068  0.16078055  1
  Na  Na11  1  0.34413537  0.66481111  0.66231769  1
  Mg  Mg12  1  0.00480464  0.00565281  0.35708901  1
  Mg  Mg13  1  0.66545054  0.33882623  0.68428547  1
  Mg  Mg14  1  0.66689990  0.33345628  0.18014685  1
  Ge  Ge15  1  0.99982031  0.99896651  0.85647446  1
  Ge  Ge16  1  0.99799555  0.99822034  0.64335294  1
  Ge  Ge17  1  0.00132541  0.00098677  0.14421524  1
  Ge  Ge18  1  0.66712825  0.33354518  0.98261796  1
  Ge  Ge19  1  0.66610162  0.32921947  0.48378852  1
  Ge  Ge20  1  0.33382361  0.66680880  0.01878502  1
  Ge  Ge21  1  0.33210201  0.66633152  0.52135458  1
  Ge  Ge22  1  0.33226715  0.66718929  0.31689291  1
  Ge  Ge23  1  0.33727798  0.66554291  0.81625581  1
  P  P24  1  0.28675923  0.99671632  0.25074077  1
  P  P25  1  0.70945017  0.71275090  0.25194000  1
  P  P26  1  0.00282005  0.28956414  0.25083881  1
  P  P27  1  0.28330006  0.28745117  0.75217799  1
  P  P28  1  0.99961918  0.71695268  0.75242201  1
  P  P29  1  0.71325493  0.99002132  0.75178007  1
  P  P30  1  0.96066022  0.33365434  0.58444980  1
  P  P31  1  0.37346489  0.03949716  0.58442501  1
  P  P32  1  0.66622027  0.62660409  0.58252918  1
  P  P33  1  0.96177443  0.62806763  0.08248936  1
  P  P34  1  0.66610171  0.03824024  0.08252254  1
  P  P35  1  0.37232194  0.33394014  0.08249509  1
  P  P36  1  0.62246787  0.66536527  0.91754885  1
  P  P37  1  0.04313758  0.37780814  0.91680462  1
  P  P38  1  0.33520521  0.95721928  0.91681030  1
  P  P39  1  0.61586597  0.95954163  0.41893539  1
  P  P40  1  0.33479234  0.37895696  0.41969264  1
  P  P41  1  0.04389980  0.65972753  0.41928254  1
  O  O42  1  0.20636946  0.03228900  0.30671778  1
  O  O43  1  0.81865440  0.78825281  0.31013955  1
  O  O44  1  0.96474716  0.17242904  0.30662126  1
  O  O45  1  0.19832350  0.16528335  0.80963338  1
  O  O46  1  0.97111956  0.80237292  0.81068322  1
  O  O47  1  0.83571876  0.03131521  0.80907553  1
  O  O48  1  0.79488064  0.95611839  0.69314312  1
  O  O49  1  0.15816843  0.20769302  0.69467096  1
  O  O50  1  0.04628817  0.84206503  0.69491616  1
  O  O51  1  0.79242140  0.83910741  0.19428024  1
  O  O52  1  0.04888302  0.21164266  0.19198400  1
  O  O53  1  0.16328008  0.95170525  0.19186192  1
  O  O54  1  0.88866176  0.36591156  0.64376933  1
  O  O55  1  0.47831598  0.10987243  0.64367818  1
  O  O56  1  0.63080740  0.51415118  0.63896151  1
  O  O57  1  0.89227139  0.52453837  0.14189062  1
  O  O58  1  0.63213195  0.10805093  0.14187836  1
  O  O59  1  0.47576608  0.36797255  0.14194664  1
  O  O60  1  0.46063775  0.29745616  0.02536463  1
  O  O61  1  0.83722643  0.53984135  0.02537580  1
  O  O62  1  0.70294864  0.16277654  0.02529172  1
  O  O63  1  0.45976050  0.16372925  0.52717871  1
  O  O64  1  0.70245061  0.54626994  0.52229930  1
  O  O65  1  0.83728645  0.29716614  0.52703292  1
  O  O66  1  0.53725592  0.70322719  0.97347887  1
  O  O67  1  0.16787660  0.46503631  0.97206381  1
  O  O68  1  0.29798344  0.83257503  0.97208522  1
  O  O69  1  0.52487039  0.83024489  0.47322724  1
  O  O70  1  0.30967724  0.47440061  0.47505389  1
  O  O71  1  0.16585920  0.69090720  0.47450471  1
  O  O72  1  0.12198077  0.62456638  0.35797823  1
  O  O73  1  0.50216868  0.88038963  0.35746370  1
  O  O74  1  0.38064020  0.50204683  0.35921255  1
  O  O75  1  0.12230941  0.49297147  0.85667766  1
  O  O76  1  0.37032966  0.87752078  0.85653787  1
  O  O77  1  0.50351088  0.62688282  0.85880993  1
  O  O78  1  0.01790275  0.82182027  0.41477134  1
  O  O79  1  0.79932452  0.97460370  0.41402694  1
  O  O80  1  0.17119025  0.19666194  0.41478238  1
  O  O81  1  0.02567722  0.18874309  0.91037771  1
  O  O82  1  0.16324796  0.97457740  0.91079322  1
  O  O83  1  0.81081005  0.83719737  0.91055326  1
  O  O84  1  0.98011149  0.16137214  0.58794950  1
  O  O85  1  0.18196420  0.02075319  0.58848442  1
  O  O86  1  0.83887738  0.81755067  0.58735600  1
  O  O87  1  0.98008866  0.81874175  0.08698254  1
  O  O88  1  0.83812431  0.01899691  0.08715682  1
  O  O89  1  0.18169017  0.16180796  0.08676084  1
  O  O90  1  0.68861066  0.15481841  0.74742881  1
  O  O91  1  0.46789430  0.30616377  0.74710481  1
  O  O92  1  0.84031870  0.52854127  0.74767263  1
  O  O93  1  0.68093373  0.52313606  0.24349428  1
  O  O94  1  0.84275834  0.32042254  0.24273991  1
  O  O95  1  0.47721948  0.15702121  0.24288005  1
  O  O96  1  0.64106762  0.49518512  0.92431439  1
  O  O97  1  0.85473791  0.36003169  0.92375889  1
  O  O98  1  0.50523067  0.14544723  0.92369642  1
  O  O99  1  0.62669883  0.14457645  0.42535754  1
  O  O100  1  0.51413362  0.37144353  0.42466498  1
  O  O101  1  0.85400626  0.48496349  0.42440229  1
  O  O102  1  0.35215742  0.50339647  0.07232460  1
  O  O103  1  0.15124092  0.64777038  0.07214898  1
  O  O104  1  0.49637957  0.84923337  0.07236000  1
  O  O105  1  0.35156119  0.84961684  0.57441342  1
  O  O106  1  0.49889673  0.65120224  0.57399406  1
  O  O107  1  0.15054930  0.50206281  0.57494940  1
  O  O108  1  0.30237527  0.81972803  0.25603256  1
  O  O109  1  0.51663473  0.69681193  0.25633866  1
  O  O110  1  0.17983996  0.48171746  0.25669278  1
  O  O111  1  0.29355828  0.47514666  0.75893601  1
  O  O112  1  0.17817952  0.70211742  0.75801286  1
  O  O113  1  0.52140047  0.81845264  0.75821208  1
