# generated using pymatgen
data_Na3LaIn(PO4)3
_symmetry_space_group_name_H-M   'P 1'
_cell_length_a   9.36510915
_cell_length_b   9.32914703
_cell_length_c   23.61458850
_cell_angle_alpha   89.74053661
_cell_angle_beta   90.21962500
_cell_angle_gamma   119.80548926
_symmetry_Int_Tables_number   1
_chemical_formula_structural   Na3LaIn(PO4)3
_chemical_formula_sum   'Na18 La6 In6 P18 O72'
_cell_volume   1790.22868935
_cell_formula_units_Z   6
loop_
 _symmetry_equiv_pos_site_id
 _symmetry_equiv_pos_as_xyz
  1  'x, y, z'
loop_
 _atom_site_type_symbol
 _atom_site_label
 _atom_site_symmetry_multiplicity
 _atom_site_fract_x
 _atom_site_fract_y
 _atom_site_fract_z
 _atom_site_occupancy
  Na  Na0  1  0.00144663  0.00057901  0.50324400  1
  Na  Na1  1  0.99840788  0.99810478  0.00198601  1
  Na  Na2  1  0.64076888  0.32073540  0.83186113  1
  Na  Na3  1  0.68017172  0.35987512  0.33499969  1
  Na  Na4  1  0.33073481  0.66626054  0.17130513  1
  Na  Na5  1  0.33366040  0.66721663  0.66703477  1
  Na  Na6  1  0.63658854  0.00267685  0.24816035  1
  Na  Na7  1  0.36220530  0.36178043  0.24880004  1
  Na  Na8  1  0.63951402  0.63289259  0.74524534  1
  Na  Na9  1  0.99152143  0.35980307  0.74420300  1
  Na  Na10  1  0.03345888  0.70167556  0.58512206  1
  Na  Na11  1  0.66797169  0.97063419  0.58550455  1
  Na  Na12  1  0.29814159  0.96910381  0.08857108  1
  Na  Na13  1  0.02520673  0.32739958  0.08895210  1
  Na  Na14  1  0.97085969  0.66538340  0.91819689  1
  Na  Na15  1  0.69654163  0.02994475  0.91696429  1
  Na  Na16  1  0.96923640  0.30471760  0.41677188  1
  Na  Na17  1  0.33803717  0.03521906  0.41863824  1
  La  La18  1  0.98852611  0.98346069  0.34553826  1
  La  La19  1  0.01782839  0.01274361  0.84391076  1
  La  La20  1  0.65796795  0.34143427  0.99031534  1
  La  La21  1  0.34582756  0.66043108  0.01983126  1
  La  La22  1  0.33908876  0.65420469  0.51871970  1
  La  La23  1  0.33228454  0.67107081  0.81402934  1
  In  In24  1  0.01165969  0.00769144  0.64829462  1
  In  In25  1  0.99204590  0.98818277  0.15674697  1
  In  In26  1  0.65693183  0.32704878  0.67960748  1
  In  In27  1  0.67296734  0.34302473  0.18266994  1
  In  In28  1  0.66176266  0.34000987  0.48496339  1
  In  In29  1  0.32964009  0.66617563  0.31803624  1
  P  P30  1  0.31131231  0.00128802  0.24804654  1
  P  P31  1  0.68498545  0.68994688  0.24750296  1
  P  P32  1  0.00119439  0.30721771  0.24802951  1
  P  P33  1  0.30983046  0.30394737  0.74258050  1
  P  P34  1  0.98749906  0.68849235  0.74294069  1
  P  P35  1  0.70610291  0.00802143  0.74284758  1
  P  P36  1  0.94827944  0.32354286  0.58500820  1
  P  P37  1  0.36816793  0.04347826  0.58200737  1
  P  P38  1  0.68315563  0.63670816  0.58767181  1
  P  P39  1  0.96964332  0.64345137  0.08676715  1
  P  P40  1  0.67696767  0.03907025  0.08992017  1
  P  P41  1  0.34940702  0.31610531  0.09412598  1
  P  P42  1  0.64785875  0.67186098  0.91159821  1
  P  P43  1  0.02069737  0.35851283  0.91773362  1
  P  P44  1  0.33447339  0.97034146  0.92094447  1
  P  P45  1  0.62965535  0.97739270  0.41681147  1
  P  P46  1  0.34133653  0.36621942  0.41177515  1
  P  P47  1  0.03212797  0.65469037  0.41928086  1
  O  O48  1  0.23587555  0.03227878  0.30147358  1
  O  O49  1  0.78490470  0.75710022  0.30196159  1
  O  O50  1  0.96778197  0.20025674  0.30204839  1
  O  O51  1  0.24266871  0.21498417  0.79927199  1
  O  O52  1  0.97132641  0.76622293  0.79873436  1
  O  O53  1  0.80228781  0.03168443  0.79897992  1
  O  O54  1  0.80046972  0.98863050  0.69210977  1
  O  O55  1  0.19148344  0.21074751  0.69361279  1
  O  O56  1  0.00703919  0.79919440  0.69129823  1
  O  O57  1  0.77187084  0.80980784  0.19742325  1
  O  O58  1  0.03064937  0.21982553  0.19657685  1
  O  O59  1  0.20150715  0.97597317  0.19532432  1
  O  O60  1  0.86638876  0.34486637  0.63855669  1
  O  O61  1  0.47872493  0.12905767  0.63310079  1
  O  O62  1  0.66255665  0.53865522  0.64235723  1
  O  O63  1  0.87105708  0.52050467  0.13419940  1
  O  O64  1  0.65528873  0.13252514  0.14037016  1
  O  O65  1  0.45847641  0.33702606  0.14577337  1
  O  O66  1  0.42656641  0.29432893  0.03945413  1
  O  O67  1  0.88458680  0.57977130  0.02864035  1
  O  O68  1  0.70147811  0.13598573  0.03358689  1
  O  O69  1  0.44369118  0.13864621  0.52578293  1
  O  O70  1  0.70008719  0.54831614  0.53489917  1
  O  O71  1  0.84423440  0.30082671  0.53048144  1
  O  O72  1  0.55380393  0.68406125  0.96328987  1
  O  O73  1  0.12019373  0.44707417  0.97147629  1
  O  O74  1  0.32356350  0.87529234  0.97622101  1
  O  O75  1  0.55207207  0.87760775  0.47119391  1
  O  O76  1  0.31024703  0.44636082  0.46329776  1
  O  O77  1  0.12915264  0.67860087  0.47464719  1
  O  O78  1  0.12048471  0.62735079  0.36798241  1
  O  O79  1  0.52335833  0.88792664  0.36330002  1
  O  O80  1  0.35953415  0.46666716  0.35678550  1
  O  O81  1  0.10958078  0.45747673  0.86352487  1
  O  O82  1  0.34790968  0.87639475  0.86917268  1
  O  O83  1  0.55483710  0.66096504  0.85619843  1
  O  O84  1  0.02157212  0.81400603  0.41257530  1
  O  O85  1  0.80966022  0.01217946  0.41268050  1
  O  O86  1  0.18737095  0.18961306  0.40898093  1
  O  O87  1  0.99135951  0.17978251  0.91696299  1
  O  O88  1  0.17287504  0.97661621  0.91749350  1
  O  O89  1  0.81911392  0.83129076  0.91327414  1
  O  O90  1  0.96058276  0.16246717  0.58806798  1
  O  O91  1  0.18999221  0.01643745  0.58656869  1
  O  O92  1  0.84531922  0.81021790  0.58806429  1
  O  O93  1  0.99478452  0.81964902  0.09427709  1
  O  O94  1  0.83639054  0.02811490  0.09599346  1
  O  O95  1  0.17748463  0.15638293  0.09681203  1
  O  O96  1  0.69260104  0.16687773  0.73844029  1
  O  O97  1  0.48632807  0.33073200  0.73834179  1
  O  O98  1  0.82734760  0.51608136  0.74039658  1
  O  O99  1  0.65507301  0.51179815  0.23998086  1
  O  O100  1  0.84412735  0.32198775  0.24054281  1
  O  O101  1  0.48668336  0.15730767  0.24187931  1
  O  O102  1  0.67398178  0.52103214  0.91489212  1
  O  O103  1  0.84949088  0.34835668  0.91839536  1
  O  O104  1  0.49332828  0.14069763  0.91973975  1
  O  O105  1  0.63616285  0.14909160  0.41967651  1
  O  O106  1  0.49681719  0.34771255  0.41895077  1
  O  O107  1  0.86025004  0.49395963  0.42232764  1
  O  O108  1  0.32063308  0.46600033  0.09122228  1
  O  O109  1  0.14292695  0.65717567  0.08696018  1
  O  O110  1  0.51672699  0.86929989  0.08824813  1
  O  O111  1  0.35137499  0.86786539  0.58115821  1
  O  O112  1  0.53756321  0.67171116  0.58535915  1
  O  O113  1  0.11899069  0.48247373  0.58277394  1
  O  O114  1  0.33605851  0.84765875  0.25431600  1
  O  O115  1  0.51273945  0.67963495  0.25269428  1
  O  O116  1  0.16361572  0.47657044  0.25381230  1
  O  O117  1  0.32334972  0.47759813  0.74351353  1
  O  O118  1  0.13574463  0.65696770  0.74365632  1
  O  O119  1  0.53684067  0.84718831  0.74404734  1
