# generated using pymatgen
data_NdFeO3
_symmetry_space_group_name_H-M   'P 1'
_cell_length_a   5.46086797
_cell_length_b   5.63890520
_cell_length_c   7.77694011
_cell_angle_alpha   90.00000000
_cell_angle_beta   90.00000000
_cell_angle_gamma   90.00000000
_symmetry_Int_Tables_number   1
_chemical_formula_structural   NdFeO3
_chemical_formula_sum   'Nd4 Fe4 O12'
_cell_volume   239.47778048
_cell_formula_units_Z   4
loop_
 _symmetry_equiv_pos_site_id
 _symmetry_equiv_pos_as_xyz
  1  'x, y, z'
loop_
 _atom_site_type_symbol
 _atom_site_label
 _atom_site_symmetry_multiplicity
 _atom_site_fract_x
 _atom_site_fract_y
 _atom_site_fract_z
 _atom_site_occupancy
  Nd  Nd0  1  0.01299226  0.94487046  0.75000000  1
  Nd  Nd1  1  0.51299226  0.55512954  0.25000000  1
  Nd  Nd2  1  0.48700774  0.44487046  0.75000000  1
  Nd  Nd3  1  0.98700774  0.05512954  0.25000000  1
  Fe  Fe4  1  -0.00000000  0.50000000  0.50000000  1
  Fe  Fe5  1  0.50000000  -0.00000000  0.50000000  1
  Fe  Fe6  1  0.50000000  -0.00000000  0.00000000  1
  Fe  Fe7  1  -0.00000000  0.50000000  0.00000000  1
  O  O8  1  0.70384190  0.29571580  0.45170828  1
  O  O9  1  0.20384190  0.20428420  0.54829172  1
  O  O10  1  0.79615810  0.79571580  0.04829172  1
  O  O11  1  0.29615810  0.70428420  0.95170828  1
  O  O12  1  0.29615810  0.70428420  0.54829172  1
  O  O13  1  0.79615810  0.79571580  0.45170828  1
  O  O14  1  0.20384190  0.20428420  0.95170828  1
  O  O15  1  0.70384190  0.29571580  0.04829172  1
  O  O16  1  0.09153749  0.47401449  0.25000000  1
  O  O17  1  0.59153749  0.02598551  0.75000000  1
  O  O18  1  0.40846251  0.97401449  0.25000000  1
  O  O19  1  0.90846251  0.52598551  0.75000000  1
