# generated using pymatgen
data_H4IN
_symmetry_space_group_name_H-M   'P 1'
_cell_length_a   5.03928357
_cell_length_b   5.14375379
_cell_length_c   5.14375544
_cell_angle_alpha   61.80013004
_cell_angle_beta   60.66962627
_cell_angle_gamma   60.66961604
_symmetry_Int_Tables_number   1
_chemical_formula_structural   H4IN
_chemical_formula_sum   'H4 I1 N1'
_cell_volume   96.47597240
_cell_formula_units_Z   1
loop_
 _symmetry_equiv_pos_site_id
 _symmetry_equiv_pos_as_xyz
  1  'x, y, z'
loop_
 _atom_site_type_symbol
 _atom_site_label
 _atom_site_symmetry_multiplicity
 _atom_site_fract_x
 _atom_site_fract_y
 _atom_site_fract_z
 _atom_site_occupancy
  H  H0  1  0.12973161  0.84126702  0.15873298  1
  H  H1  1  0.12973161  0.15873298  0.84126702  1
  H  H2  1  0.77823076  0.11689511  0.11689511  1
  H  H3  1  0.01202098  0.88310489  0.88310489  1
  I  I4  1  0.48995976  0.50000000  0.50000000  1
  N  N5  1  0.00932426  -0.00000000  -0.00000000  1
