# generated using pymatgen
data_Rb6Br4O
_symmetry_space_group_name_H-M   'P 1'
_cell_length_a   9.36625862
_cell_length_b   9.36625862
_cell_length_c   9.36625824
_cell_angle_alpha   88.74358035
_cell_angle_beta   88.74358035
_cell_angle_gamma   88.74358860
_symmetry_Int_Tables_number   1
_chemical_formula_structural   Rb6Br4O
_chemical_formula_sum   'Rb12 Br8 O2'
_cell_volume   821.08774938
_cell_formula_units_Z   2
loop_
 _symmetry_equiv_pos_site_id
 _symmetry_equiv_pos_as_xyz
  1  'x, y, z'
loop_
 _atom_site_type_symbol
 _atom_site_label
 _atom_site_symmetry_multiplicity
 _atom_site_fract_x
 _atom_site_fract_y
 _atom_site_fract_z
 _atom_site_occupancy
  Rb  Rb0  1  0.05868152  0.92977319  0.72323773  1
  Rb  Rb1  1  0.92977319  0.72323773  0.05868152  1
  Rb  Rb2  1  0.72323773  0.05868152  0.92977319  1
  Rb  Rb3  1  0.57022681  0.44131848  0.77676227  1
  Rb  Rb4  1  0.77676227  0.57022681  0.44131848  1
  Rb  Rb5  1  0.44131848  0.77676227  0.57022681  1
  Rb  Rb6  1  0.07022681  0.27676227  0.94131848  1
  Rb  Rb7  1  0.94131848  0.07022681  0.27676227  1
  Rb  Rb8  1  0.27676227  0.94131848  0.07022681  1
  Rb  Rb9  1  0.42977319  0.55868152  0.22323773  1
  Rb  Rb10  1  0.22323773  0.42977319  0.55868152  1
  Rb  Rb11  1  0.55868152  0.22323773  0.42977319  1
  Br  Br12  1  0.75000000  0.75000000  0.75000000  1
  Br  Br13  1  0.25000000  0.25000000  0.25000000  1
  Br  Br14  1  0.75000000  0.37845665  0.12154335  1
  Br  Br15  1  0.12154335  0.75000000  0.37845665  1
  Br  Br16  1  0.37845665  0.12154335  0.75000000  1
  Br  Br17  1  0.25000000  0.62154335  0.87845665  1
  Br  Br18  1  0.87845665  0.25000000  0.62154335  1
  Br  Br19  1  0.62154335  0.87845665  0.25000000  1
  O  O20  1  0.50000000  0.50000000  0.50000000  1
  O  O21  1  0.00000000  -0.00000000  0.00000000  1
