# generated using pymatgen
data_Sr2GeSe4
_symmetry_space_group_name_H-M   'P 1'
_cell_length_a   6.50904168
_cell_length_b   6.50904304
_cell_length_c   10.36699117
_cell_angle_alpha   90.00000000
_cell_angle_beta   90.00000000
_cell_angle_gamma   109.98928448
_symmetry_Int_Tables_number   1
_chemical_formula_structural   Sr2GeSe4
_chemical_formula_sum   'Sr4 Ge2 Se8'
_cell_volume   412.76445797
_cell_formula_units_Z   2
loop_
 _symmetry_equiv_pos_site_id
 _symmetry_equiv_pos_as_xyz
  1  'x, y, z'
loop_
 _atom_site_type_symbol
 _atom_site_label
 _atom_site_symmetry_multiplicity
 _atom_site_fract_x
 _atom_site_fract_y
 _atom_site_fract_z
 _atom_site_occupancy
  Sr  Sr0  1  0.74490859  0.36472971  0.25000000  1
  Sr  Sr1  1  0.36472971  0.74490859  0.75000000  1
  Sr  Sr2  1  0.00059243  0.00059243  0.50000000  1
  Sr  Sr3  1  0.00059243  0.00059243  -0.00000000  1
  Ge  Ge4  1  0.76361522  0.31097409  0.75000000  1
  Ge  Ge5  1  0.31097409  0.76361522  0.25000000  1
  Se  Se6  1  0.26433350  0.11079022  0.25000000  1
  Se  Se7  1  0.11079022  0.26433350  0.75000000  1
  Se  Se8  1  0.69428194  0.83667095  0.25000000  1
  Se  Se9  1  0.83667095  0.69428194  0.75000000  1
  Se  Se10  1  0.13740695  0.57674802  0.43743592  1
  Se  Se11  1  0.57674802  0.13740695  0.56256408  1
  Se  Se12  1  0.13740695  0.57674802  0.06256408  1
  Se  Se13  1  0.57674802  0.13740695  0.93743592  1
