# generated using pymatgen
data_AgSbF6
_symmetry_space_group_name_H-M   'P 1'
_cell_length_a   8.38514488
_cell_length_b   8.38516387
_cell_length_c   8.38471779
_cell_angle_alpha   109.47063003
_cell_angle_beta   109.47109762
_cell_angle_gamma   109.47342860
_symmetry_Int_Tables_number   1
_chemical_formula_structural   AgSbF6
_chemical_formula_sum   'Ag4 Sb4 F24'
_cell_volume   453.81690952
_cell_formula_units_Z   4
loop_
 _symmetry_equiv_pos_site_id
 _symmetry_equiv_pos_as_xyz
  1  'x, y, z'
loop_
 _atom_site_type_symbol
 _atom_site_label
 _atom_site_symmetry_multiplicity
 _atom_site_fract_x
 _atom_site_fract_y
 _atom_site_fract_z
 _atom_site_occupancy
  Ag  Ag0  1  0.49999699  0.49999887  0.49999977  1
  Ag  Ag1  1  0.00000055  0.49999871  -0.00000028  1
  Ag  Ag2  1  0.00000051  -0.00000063  0.49999995  1
  Ag  Ag3  1  0.49999992  -0.00000130  -0.00000103  1
  Sb  Sb4  1  0.00000009  -0.00000343  -0.00000048  1
  Sb  Sb5  1  0.50000094  0.49999933  -0.00000123  1
  Sb  Sb6  1  -0.00000242  0.50000483  0.50000303  1
  Sb  Sb7  1  0.50000016  -0.00000094  0.49999826  1
  F  F8  1  0.41547781  0.67698934  0.96868029  1
  F  F9  1  0.29173833  0.82305724  0.23854428  1
  F  F10  1  0.08450950  0.05319063  0.26146690  1
  F  F11  1  0.44681105  0.53131602  0.20828556  1
  F  F12  1  0.53132861  0.20827888  0.44682320  1
  F  F13  1  0.96868624  0.41550233  0.67695522  1
  F  F14  1  0.82300307  0.23848818  0.29168861  1
  F  F15  1  0.26152749  0.08453208  0.05321086  1
  F  F16  1  0.79172641  0.55318444  0.46868014  1
  F  F17  1  0.94682651  0.73855447  0.91549403  1
  F  F18  1  0.76143475  0.70826122  0.17693753  1
  F  F19  1  0.32304890  0.03130736  0.58449473  1
  F  F20  1  0.73847286  0.91546581  0.94678902  1
  F  F21  1  0.17699715  0.76151902  0.70831531  1
  F  F22  1  0.03130813  0.58449622  0.32304338  1
  F  F23  1  0.46867301  0.79171970  0.55317558  1
  F  F24  1  0.55319074  0.46868280  0.79171332  1
  F  F25  1  0.91549089  0.94680871  0.73853294  1
  F  F26  1  0.70826255  0.17694164  0.76145412  1
  F  F27  1  0.58452524  0.32301097  0.03132159  1
  F  F28  1  0.20827274  0.44682963  0.53132621  1
  F  F29  1  0.05317222  0.26144052  0.08450575  1
  F  F30  1  0.23856569  0.29173680  0.82306119  1
  F  F31  1  0.67695239  0.96869156  0.41550326  1
