# generated using pymatgen
data_Rb2CrCl4
_symmetry_space_group_name_H-M   'P 1'
_cell_length_a   7.16927022
_cell_length_b   7.16728974
_cell_length_c   8.70881020
_cell_angle_alpha   89.99994799
_cell_angle_beta   114.03578673
_cell_angle_gamma   90.00008487
_symmetry_Int_Tables_number   1
_chemical_formula_structural   Rb2CrCl4
_chemical_formula_sum   'Rb4 Cr2 Cl8'
_cell_volume   408.69377756
_cell_formula_units_Z   2
loop_
 _symmetry_equiv_pos_site_id
 _symmetry_equiv_pos_as_xyz
  1  'x, y, z'
loop_
 _atom_site_type_symbol
 _atom_site_label
 _atom_site_symmetry_multiplicity
 _atom_site_fract_x
 _atom_site_fract_y
 _atom_site_fract_z
 _atom_site_occupancy
  Rb  Rb0  1  0.86178180  0.49993929  0.71990468  1
  Rb  Rb1  1  0.63821820  0.99993929  0.28009532  1
  Rb  Rb2  1  0.36178180  0.00006071  0.71990468  1
  Rb  Rb3  1  0.13821820  0.50006071  0.28009532  1
  Cr  Cr4  1  -0.00000000  -0.00000000  -0.00000000  1
  Cr  Cr5  1  0.50000000  0.50000000  -0.00000000  1
  Cl  Cl6  1  0.65151028  0.50004899  0.30671962  1
  Cl  Cl7  1  0.73690752  0.73677800  -0.00002262  1
  Cl  Cl8  1  0.84848972  0.00004899  0.69328038  1
  Cl  Cl9  1  0.15151028  -0.00004899  0.30671962  1
  Cl  Cl10  1  0.23690752  0.76322200  -0.00002262  1
  Cl  Cl11  1  0.26309248  0.26322200  0.00002262  1
  Cl  Cl12  1  0.34848972  0.49995101  0.69328038  1
  Cl  Cl13  1  0.76309248  0.23677800  0.00002262  1
