# generated using pymatgen
data_BaMnO3
_symmetry_space_group_name_H-M   'P 1'
_cell_length_a   5.66658882
_cell_length_b   5.66658908
_cell_length_c   9.25043075
_cell_angle_alpha   89.99999844
_cell_angle_beta   89.99999857
_cell_angle_gamma   59.99992362
_symmetry_Int_Tables_number   1
_chemical_formula_structural   BaMnO3
_chemical_formula_sum   'Ba4 Mn4 O12'
_cell_volume   257.23832595
_cell_formula_units_Z   4
loop_
 _symmetry_equiv_pos_site_id
 _symmetry_equiv_pos_as_xyz
  1  'x, y, z'
loop_
 _atom_site_type_symbol
 _atom_site_label
 _atom_site_symmetry_multiplicity
 _atom_site_fract_x
 _atom_site_fract_y
 _atom_site_fract_z
 _atom_site_occupancy
  Ba  Ba0  1  0.00000019  0.99999917  0.99999518  1
  Ba  Ba1  1  -0.00000008  -0.00000004  0.50000625  1
  Ba  Ba2  1  0.33333352  0.33333337  0.74999885  1
  Ba  Ba3  1  0.66666681  0.66666608  0.25000082  1
  Mn  Mn4  1  0.66666632  0.66666662  0.61262222  1
  Mn  Mn5  1  0.33333383  0.33333323  0.11262314  1
  Mn  Mn6  1  0.66666655  0.66666644  0.88737730  1
  Mn  Mn7  1  0.33333350  0.33333335  0.38737820  1
  O  O8  1  0.18838448  0.62323291  0.25000048  1
  O  O9  1  0.18838391  0.18838400  0.25000065  1
  O  O10  1  0.81161671  0.37676678  0.74999872  1
  O  O11  1  0.37676637  0.81161581  0.74999887  1
  O  O12  1  0.81161523  0.81161723  0.74999893  1
  O  O13  1  0.62323325  0.18838332  0.25000068  1
  O  O14  1  0.50000008  0.49999960  0.99999837  1
  O  O15  1  -0.00000018  0.49999968  0.99999870  1
  O  O16  1  -0.00000004  0.50000019  0.50000062  1
  O  O17  1  0.49999970  0.00000046  0.50000070  1
  O  O18  1  0.50000014  -0.00000022  0.99999857  1
  O  O19  1  0.49999969  0.50000002  0.50000074  1
