# generated using pymatgen
data_ZrSO
_symmetry_space_group_name_H-M   'P 1'
_cell_length_a   5.72243600
_cell_length_b   5.72243600
_cell_length_c   5.72243600
_cell_angle_alpha   90.00000000
_cell_angle_beta   90.00000000
_cell_angle_gamma   90.00000000
_symmetry_Int_Tables_number   1
_chemical_formula_structural   ZrSO
_chemical_formula_sum   'Zr4 S4 O4'
_cell_volume   187.38845591
_cell_formula_units_Z   4
loop_
 _symmetry_equiv_pos_site_id
 _symmetry_equiv_pos_as_xyz
  1  'x, y, z'
loop_
 _atom_site_type_symbol
 _atom_site_label
 _atom_site_symmetry_multiplicity
 _atom_site_fract_x
 _atom_site_fract_y
 _atom_site_fract_z
 _atom_site_occupancy
  Zr  Zr0  1  0.92874290  0.57125710  0.42874290  1
  Zr  Zr1  1  0.57125710  0.42874290  0.92874290  1
  Zr  Zr2  1  0.42874290  0.92874290  0.57125710  1
  Zr  Zr3  1  0.07125710  0.07125710  0.07125710  1
  S  S4  1  0.16785540  0.66785540  0.83214460  1
  S  S5  1  0.83214460  0.16785540  0.66785540  1
  S  S6  1  0.66785540  0.83214460  0.16785540  1
  S  S7  1  0.33214460  0.33214460  0.33214460  1
  O  O8  1  0.15538670  0.84461330  0.34461330  1
  O  O9  1  0.84461330  0.34461330  0.15538670  1
  O  O10  1  0.65538670  0.65538670  0.65538670  1
  O  O11  1  0.34461330  0.15538670  0.84461330  1
