# generated using pymatgen
data_Ta3SBr7
_symmetry_space_group_name_H-M   'P 1'
_cell_length_a   7.12491694
_cell_length_b   7.12612342
_cell_length_c   7.47683511
_cell_angle_alpha   75.77644751
_cell_angle_beta   61.54515252
_cell_angle_gamma   60.00560460
_symmetry_Int_Tables_number   1
_chemical_formula_structural   Ta3SBr7
_chemical_formula_sum   'Ta3 S1 Br7'
_cell_volume   289.04743488
_cell_formula_units_Z   1
loop_
 _symmetry_equiv_pos_site_id
 _symmetry_equiv_pos_as_xyz
  1  'x, y, z'
loop_
 _atom_site_type_symbol
 _atom_site_label
 _atom_site_symmetry_multiplicity
 _atom_site_fract_x
 _atom_site_fract_y
 _atom_site_fract_z
 _atom_site_occupancy
  Ta  Ta0  1  0.64686202  0.31984597  0.38643000  1
  Ta  Ta1  1  0.64645047  0.71995675  0.38714285  1
  Ta  Ta2  1  0.24644992  0.71995675  0.38714285  1
  S  S3  1  0.64396932  0.59005862  0.12200273  1
  Br  Br4  1  0.74184234  0.91790177  0.59841255  1
  Br  Br5  1  0.12184053  0.58543151  0.17088842  1
  Br  Br6  1  0.21668010  0.91949559  0.64714420  1
  Br  Br7  1  0.61705320  0.09041746  0.17031855  1
  Br  Br8  1  0.12221279  0.09041746  0.17031855  1
  Br  Br9  1  0.21730036  0.41515806  0.64580064  1
  Br  Br10  1  0.72173994  0.41515806  0.64580064  1
