# generated using pymatgen
data_Na2Ta4O11
_symmetry_space_group_name_H-M   'P 1'
_cell_length_a   12.75042520
_cell_length_b   12.75042520
_cell_length_c   12.75042475
_cell_angle_alpha   28.22657600
_cell_angle_beta   28.22657600
_cell_angle_gamma   28.22657941
_symmetry_Int_Tables_number   1
_chemical_formula_structural   Na2Ta4O11
_chemical_formula_sum   'Na4 Ta8 O22'
_cell_volume   409.67434156
_cell_formula_units_Z   2
loop_
 _symmetry_equiv_pos_site_id
 _symmetry_equiv_pos_as_xyz
  1  'x, y, z'
loop_
 _atom_site_type_symbol
 _atom_site_label
 _atom_site_symmetry_multiplicity
 _atom_site_fract_x
 _atom_site_fract_y
 _atom_site_fract_z
 _atom_site_occupancy
  Na  Na0  1  0.16544653  0.16544653  0.16544653  1
  Na  Na1  1  0.33455347  0.33455347  0.33455347  1
  Na  Na2  1  0.83455347  0.83455347  0.83455347  1
  Na  Na3  1  0.66544653  0.66544653  0.66544653  1
  Ta  Ta4  1  0.61315574  0.25000000  0.88684426  1
  Ta  Ta5  1  0.88684426  0.61315574  0.25000000  1
  Ta  Ta6  1  0.50000000  0.50000000  0.50000000  1
  Ta  Ta7  1  -0.00000000  0.00000000  0.00000000  1
  Ta  Ta8  1  0.25000000  0.88684426  0.61315574  1
  Ta  Ta9  1  0.11315574  0.38684426  0.75000000  1
  Ta  Ta10  1  0.38684426  0.75000000  0.11315574  1
  Ta  Ta11  1  0.75000000  0.11315574  0.38684426  1
  O  O12  1  0.43807398  0.74712720  0.22294839  1
  O  O13  1  0.22294839  0.43807398  0.74712720  1
  O  O14  1  0.74712720  0.22294839  0.43807398  1
  O  O15  1  0.06192602  0.27705161  0.75287280  1
  O  O16  1  0.75287280  0.06192602  0.27705161  1
  O  O17  1  0.27705161  0.75287280  0.06192602  1
  O  O18  1  0.56192602  0.25287280  0.77705161  1
  O  O19  1  0.77705161  0.56192602  0.25287280  1
  O  O20  1  0.25287280  0.77705161  0.56192602  1
  O  O21  1  0.93807398  0.72294839  0.24712720  1
  O  O22  1  0.24712720  0.93807398  0.72294839  1
  O  O23  1  0.72294839  0.24712720  0.93807398  1
  O  O24  1  0.49814333  0.00185667  0.25000000  1
  O  O25  1  0.00185667  0.25000000  0.49814333  1
  O  O26  1  0.25000000  0.49814333  0.00185667  1
  O  O27  1  0.50185667  0.99814333  0.75000000  1
  O  O28  1  0.99814333  0.75000000  0.50185667  1
  O  O29  1  0.75000000  0.50185667  0.99814333  1
  O  O30  1  0.09397961  0.09397961  0.09397961  1
  O  O31  1  0.40602039  0.40602039  0.40602039  1
  O  O32  1  0.90602039  0.90602039  0.90602039  1
  O  O33  1  0.59397961  0.59397961  0.59397961  1
