# generated using pymatgen
data_Sr(NdSe2)2
_symmetry_space_group_name_H-M   'P 1'
_cell_length_a   7.83551096
_cell_length_b   7.83551125
_cell_length_c   7.83551200
_cell_angle_alpha   109.43573267
_cell_angle_beta   109.54221168
_cell_angle_gamma   109.43574280
_symmetry_Int_Tables_number   1
_chemical_formula_structural   Sr(NdSe2)2
_chemical_formula_sum   'Sr2 Nd4 Se8'
_cell_volume   370.32210784
_cell_formula_units_Z   2
loop_
 _symmetry_equiv_pos_site_id
 _symmetry_equiv_pos_as_xyz
  1  'x, y, z'
loop_
 _atom_site_type_symbol
 _atom_site_label
 _atom_site_symmetry_multiplicity
 _atom_site_fract_x
 _atom_site_fract_y
 _atom_site_fract_z
 _atom_site_occupancy
  Sr  Sr0  1  0.12500000  0.75000000  0.87500000  1
  Sr  Sr1  1  0.37500000  0.25000000  0.62500000  1
  Nd  Nd2  1  0.25000000  0.62673693  0.37673693  1
  Nd  Nd3  1  0.75000000  0.87326307  0.12326307  1
  Nd  Nd4  1  0.62326307  0.37326307  0.25000000  1
  Nd  Nd5  1  0.87673693  0.12673693  0.75000000  1
  Se  Se6  1  0.14163271  0.15102073  0.14250303  1
  Se  Se7  1  0.35836729  0.50086933  0.00938802  1
  Se  Se8  1  0.64250303  0.65102073  0.64163271  1
  Se  Se9  1  0.50938802  0.00086933  0.85836729  1
  Se  Se10  1  0.50851869  0.99913067  0.35749697  1
  Se  Se11  1  0.99061198  0.84897927  0.49148131  1
  Se  Se12  1  0.85749697  0.49913067  0.00851869  1
  Se  Se13  1  0.99148131  0.34897927  0.49061198  1
