# generated using pymatgen
data_Tl3PbCl5
_symmetry_space_group_name_H-M   'P 1'
_cell_length_a   8.48349148
_cell_length_b   8.48349148
_cell_length_c   14.88026700
_cell_angle_alpha   90.00000000
_cell_angle_beta   90.00000000
_cell_angle_gamma   90.00000000
_symmetry_Int_Tables_number   1
_chemical_formula_structural   Tl3PbCl5
_chemical_formula_sum   'Tl12 Pb4 Cl20'
_cell_volume   1070.92727594
_cell_formula_units_Z   4
loop_
 _symmetry_equiv_pos_site_id
 _symmetry_equiv_pos_as_xyz
  1  'x, y, z'
loop_
 _atom_site_type_symbol
 _atom_site_label
 _atom_site_symmetry_multiplicity
 _atom_site_fract_x
 _atom_site_fract_y
 _atom_site_fract_z
 _atom_site_occupancy
  Tl  Tl0  1  0.99738183  0.81122014  0.80554849  1
  Tl  Tl1  1  0.18877986  0.99738183  0.05554849  1
  Tl  Tl2  1  0.81122014  0.00261817  0.55554849  1
  Tl  Tl3  1  0.00261817  0.18877986  0.30554849  1
  Tl  Tl4  1  0.36560061  0.82505691  0.32236490  1
  Tl  Tl5  1  0.17494309  0.36560061  0.57236490  1
  Tl  Tl6  1  0.82505691  0.63439939  0.07236490  1
  Tl  Tl7  1  0.63439939  0.17494309  0.82236490  1
  Tl  Tl8  1  0.88284767  0.68337707  0.38363791  1
  Tl  Tl9  1  0.31662293  0.88284767  0.63363791  1
  Tl  Tl10  1  0.68337707  0.11715233  0.13363791  1
  Tl  Tl11  1  0.11715233  0.31662293  0.88363791  1
  Pb  Pb12  1  0.49312462  0.69593023  0.89669329  1
  Pb  Pb13  1  0.30406977  0.49312462  0.14669329  1
  Pb  Pb14  1  0.69593023  0.50687538  0.64669329  1
  Pb  Pb15  1  0.50687538  0.30406977  0.39669329  1
  Cl  Cl16  1  0.51048772  0.19982045  0.60579917  1
  Cl  Cl17  1  0.80017955  0.51048772  0.85579917  1
  Cl  Cl18  1  0.19982045  0.48951228  0.35579917  1
  Cl  Cl19  1  0.48951228  0.80017955  0.10579917  1
  Cl  Cl20  1  0.47861550  0.36048844  0.00910452  1
  Cl  Cl21  1  0.63951156  0.47861550  0.25910452  1
  Cl  Cl22  1  0.36048844  0.52138450  0.75910452  1
  Cl  Cl23  1  0.52138450  0.63951156  0.50910452  1
  Cl  Cl24  1  0.96456670  0.18311007  0.70692208  1
  Cl  Cl25  1  0.81688993  0.96456670  0.95692208  1
  Cl  Cl26  1  0.18311007  0.03543330  0.45692208  1
  Cl  Cl27  1  0.03543330  0.81688993  0.20692208  1
  Cl  Cl28  1  0.33151051  0.97838843  0.85286610  1
  Cl  Cl29  1  0.02161157  0.33151051  0.10286610  1
  Cl  Cl30  1  0.97838843  0.66848949  0.60286610  1
  Cl  Cl31  1  0.66848949  0.02161157  0.35286610  1
  Cl  Cl32  1  0.35243207  0.17769331  0.22706555  1
  Cl  Cl33  1  0.82230669  0.35243207  0.47706555  1
  Cl  Cl34  1  0.17769331  0.64756793  0.97706555  1
  Cl  Cl35  1  0.64756793  0.82230669  0.72706555  1
