# generated using pymatgen
data_Sm2Te4O11
_symmetry_space_group_name_H-M   'P 1'
_cell_length_a   6.78496314
_cell_length_b   6.78496314
_cell_length_c   16.25884552
_cell_angle_alpha   75.59757158
_cell_angle_beta   75.59757158
_cell_angle_gamma   45.01150087
_symmetry_Int_Tables_number   1
_chemical_formula_structural   Sm2Te4O11
_chemical_formula_sum   'Sm4 Te8 O22'
_cell_volume   509.81975534
_cell_formula_units_Z   2
loop_
 _symmetry_equiv_pos_site_id
 _symmetry_equiv_pos_as_xyz
  1  'x, y, z'
loop_
 _atom_site_type_symbol
 _atom_site_label
 _atom_site_symmetry_multiplicity
 _atom_site_fract_x
 _atom_site_fract_y
 _atom_site_fract_z
 _atom_site_occupancy
  Sm  Sm0  1  0.12848511  0.63538105  0.03700442  1
  Sm  Sm1  1  0.36461895  0.87151489  0.46299558  1
  Sm  Sm2  1  0.87151489  0.36461895  0.96299558  1
  Sm  Sm3  1  0.63538105  0.12848511  0.53700442  1
  Te  Te4  1  0.91048454  0.34880342  0.62728289  1
  Te  Te5  1  0.65119658  0.08951546  0.87271711  1
  Te  Te6  1  0.08951546  0.65119658  0.37271711  1
  Te  Te7  1  0.34880342  0.91048454  0.12728289  1
  Te  Te8  1  0.10234186  0.65654989  0.70047176  1
  Te  Te9  1  0.34345011  0.89765814  0.79952824  1
  Te  Te10  1  0.89765814  0.34345011  0.29952824  1
  Te  Te11  1  0.65654989  0.10234186  0.20047176  1
  O  O12  1  0.34867313  0.65132687  0.75000000  1
  O  O13  1  0.65132687  0.34867313  0.25000000  1
  O  O14  1  0.68860908  0.45490938  0.54619969  1
  O  O15  1  0.54509062  0.31139092  0.95380031  1
  O  O16  1  0.31139092  0.54509062  0.45380031  1
  O  O17  1  0.45490938  0.68860908  0.04619969  1
  O  O18  1  0.69981675  0.59333133  0.83016225  1
  O  O19  1  0.40666867  0.30018325  0.66983775  1
  O  O20  1  0.30018325  0.40666867  0.16983775  1
  O  O21  1  0.59333133  0.69981675  0.33016225  1
  O  O22  1  0.81913992  0.68544991  0.62753219  1
  O  O23  1  0.31455009  0.18086008  0.87246781  1
  O  O24  1  0.88641634  0.06447630  0.09874097  1
  O  O25  1  0.93552370  0.11358366  0.40125903  1
  O  O26  1  0.11358366  0.93552370  0.90125903  1
  O  O27  1  0.06447630  0.88641634  0.59874097  1
  O  O28  1  0.75127950  0.83337661  0.44425913  1
  O  O29  1  0.16662339  0.24872050  0.05574087  1
  O  O30  1  0.24872050  0.16662339  0.55574087  1
  O  O31  1  0.83337661  0.75127950  0.94425913  1
  O  O32  1  0.68544991  0.81913992  0.12753219  1
  O  O33  1  0.18086008  0.31455009  0.37246781  1
