# generated using pymatgen
data_Sm4S3N2
_symmetry_space_group_name_H-M   'P 1'
_cell_length_a   3.92837968
_cell_length_b   6.91117276
_cell_length_c   8.14744964
_cell_angle_alpha   84.35694138
_cell_angle_beta   76.05122771
_cell_angle_gamma   73.48584686
_symmetry_Int_Tables_number   1
_chemical_formula_structural   Sm4S3N2
_chemical_formula_sum   'Sm4 S3 N2'
_cell_volume   205.71682343
_cell_formula_units_Z   1
loop_
 _symmetry_equiv_pos_site_id
 _symmetry_equiv_pos_as_xyz
  1  'x, y, z'
loop_
 _atom_site_type_symbol
 _atom_site_label
 _atom_site_symmetry_multiplicity
 _atom_site_fract_x
 _atom_site_fract_y
 _atom_site_fract_z
 _atom_site_occupancy
  Sm  Sm0  1  0.24419002  0.86477199  0.64690806  1
  Sm  Sm1  1  0.75580998  0.13522801  0.35309194  1
  Sm  Sm2  1  0.56314730  0.72944169  0.14415268  1
  Sm  Sm3  1  0.43685270  0.27055831  0.85584732  1
  S  S4  1  -0.00000000  0.00000000  -0.00000000  1
  S  S5  1  0.83018518  0.55828513  0.78102857  1
  S  S6  1  0.16981482  0.44171487  0.21897143  1
  N  N7  1  0.35431851  0.93111022  0.36032196  1
  N  N8  1  0.64568149  0.06888978  0.63967804  1
