# generated using pymatgen
data_Sb2BrF15
_symmetry_space_group_name_H-M   'P 1'
_cell_length_a   4.97799007
_cell_length_b   13.98978733
_cell_length_c   14.16533772
_cell_angle_alpha   90.00000000
_cell_angle_beta   90.00000000
_cell_angle_gamma   91.72401223
_symmetry_Int_Tables_number   1
_chemical_formula_structural   Sb2BrF15
_chemical_formula_sum   'Sb8 Br4 F60'
_cell_volume   986.04205804
_cell_formula_units_Z   4
loop_
 _symmetry_equiv_pos_site_id
 _symmetry_equiv_pos_as_xyz
  1  'x, y, z'
loop_
 _atom_site_type_symbol
 _atom_site_label
 _atom_site_symmetry_multiplicity
 _atom_site_fract_x
 _atom_site_fract_y
 _atom_site_fract_z
 _atom_site_occupancy
  Sb  Sb0  1  0.74797753  0.99037758  0.35921063  1
  Sb  Sb1  1  0.25202247  0.50962242  0.85921063  1
  Sb  Sb2  1  0.25202247  0.00962242  0.64078937  1
  Sb  Sb3  1  0.74797753  0.49037758  0.14078937  1
  Sb  Sb4  1  0.45780728  0.15377705  0.14739054  1
  Sb  Sb5  1  0.54219272  0.34622295  0.64739054  1
  Sb  Sb6  1  0.54219272  0.84622295  0.85260946  1
  Sb  Sb7  1  0.45780728  0.65377705  0.35260946  1
  Br  Br8  1  0.08504930  0.32183536  0.35187020  1
  Br  Br9  1  0.91495070  0.17816464  0.85187020  1
  Br  Br10  1  0.91495070  0.67816464  0.64812980  1
  Br  Br11  1  0.08504930  0.82183536  0.14812980  1
  F  F12  1  0.94489479  0.40023685  0.42883596  1
  F  F13  1  0.05510421  0.09976315  0.92883596  1
  F  F14  1  0.05510421  0.59976315  0.57116404  1
  F  F15  1  0.94489479  0.90023685  0.07116404  1
  F  F16  1  0.21661315  0.25100663  0.43761902  1
  F  F17  1  0.78338685  0.24899337  0.93761902  1
  F  F18  1  0.78338685  0.74899337  0.56238098  1
  F  F19  1  0.21661315  0.75100663  0.06238098  1
  F  F20  1  0.38573229  0.39350949  0.35924720  1
  F  F21  1  0.61426771  0.10649051  0.85924720  1
  F  F22  1  0.61426771  0.60649051  0.64075280  1
  F  F23  1  0.38573229  0.89350949  0.14075280  1
  F  F24  1  0.31368360  0.73562690  0.44156295  1
  F  F25  1  0.68631640  0.76437310  0.94156295  1
  F  F26  1  0.68631640  0.26437310  0.55843705  1
  F  F27  1  0.31368360  0.23562690  0.05843705  1
  F  F28  1  0.31048509  0.72241920  0.24743544  1
  F  F29  1  0.68951491  0.77758080  0.74743544  1
  F  F30  1  0.68951491  0.27758080  0.75256456  1
  F  F31  1  0.31048509  0.22241920  0.25256456  1
  F  F32  1  0.15262736  0.57313639  0.35027868  1
  F  F33  1  0.84737264  0.92686361  0.85027868  1
  F  F34  1  0.84737264  0.42686361  0.64972132  1
  F  F35  1  0.15262736  0.07313639  0.14972132  1
  F  F36  1  0.62803591  0.57585011  0.43962074  1
  F  F37  1  0.37196409  0.92414989  0.93962074  1
  F  F38  1  0.37196409  0.42414989  0.56037926  1
  F  F39  1  0.62803591  0.07585011  0.06037926  1
  F  F40  1  0.77184146  0.72858688  0.33499935  1
  F  F41  1  0.22815854  0.77141312  0.83499935  1
  F  F42  1  0.22815854  0.27141312  0.66500065  1
  F  F43  1  0.77184146  0.22858688  0.16500065  1
  F  F44  1  0.59993776  0.56828394  0.25069637  1
  F  F45  1  0.40006224  0.93171606  0.75069637  1
  F  F46  1  0.40006224  0.43171606  0.74930363  1
  F  F47  1  0.59993776  0.06828394  0.24930363  1
  F  F48  1  0.90108720  0.41190807  0.05116638  1
  F  F49  1  0.09891280  0.08809193  0.55116638  1
  F  F50  1  0.09891280  0.58809193  0.94883362  1
  F  F51  1  0.90108720  0.91190807  0.44883362  1
  F  F52  1  0.43675839  0.41445345  0.15752601  1
  F  F53  1  0.56324161  0.08554655  0.65752601  1
  F  F54  1  0.56324161  0.58554655  0.84247399  1
  F  F55  1  0.43675839  0.91445345  0.34247399  1
  F  F56  1  0.57772461  0.57554171  0.06147719  1
  F  F57  1  0.42227539  0.92445829  0.56147719  1
  F  F58  1  0.42227539  0.42445829  0.93852281  1
  F  F59  1  0.57772461  0.07554171  0.43852281  1
  F  F60  1  0.04878250  0.57194945  0.15333684  1
  F  F61  1  0.95121750  0.92805055  0.65333684  1
  F  F62  1  0.95121750  0.42805055  0.84666316  1
  F  F63  1  0.04878250  0.07194945  0.34666316  1
  F  F64  1  0.89552402  0.41726504  0.24432946  1
  F  F65  1  0.10447598  0.08273496  0.74432946  1
  F  F66  1  0.10447598  0.58273496  0.75567054  1
  F  F67  1  0.89552402  0.91726504  0.25567054  1
  F  F68  1  0.78370153  0.75132508  0.13798956  1
  F  F69  1  0.21629847  0.74867492  0.63798956  1
  F  F70  1  0.21629847  0.24867492  0.86201044  1
  F  F71  1  0.78370153  0.25132508  0.36201044  1
