# generated using pymatgen
data_Y2SiO5
_symmetry_space_group_name_H-M   'P 1'
_cell_length_a   7.96620319
_cell_length_b   7.96620319
_cell_length_c   10.42107312
_cell_angle_alpha   61.14213265
_cell_angle_beta   61.14213265
_cell_angle_gamma   50.07524301
_symmetry_Int_Tables_number   1
_chemical_formula_structural   Y2SiO5
_chemical_formula_sum   'Y8 Si4 O20'
_cell_volume   429.21501303
_cell_formula_units_Z   4
loop_
 _symmetry_equiv_pos_site_id
 _symmetry_equiv_pos_as_xyz
  1  'x, y, z'
loop_
 _atom_site_type_symbol
 _atom_site_label
 _atom_site_symmetry_multiplicity
 _atom_site_fract_x
 _atom_site_fract_y
 _atom_site_fract_z
 _atom_site_occupancy
  Y  Y0  1  0.78133132  0.29200909  0.03445076  1
  Y  Y1  1  0.70799091  0.21866868  0.46554924  1
  Y  Y2  1  0.21866868  0.70799091  0.96554924  1
  Y  Y3  1  0.29200909  0.78133132  0.53445076  1
  Y  Y4  1  0.23589185  0.48070608  0.33570632  1
  Y  Y5  1  0.51929392  0.76410815  0.16429368  1
  Y  Y6  1  0.76410815  0.51929392  0.66429368  1
  Y  Y7  1  0.48070608  0.23589185  0.83570632  1
  Si  Si8  1  0.72788873  0.90902453  0.30687324  1
  Si  Si9  1  0.09097547  0.27211127  0.19312676  1
  Si  Si10  1  0.27211127  0.09097547  0.69312676  1
  Si  Si11  1  0.90902453  0.72788873  0.80687324  1
  O  O12  1  0.42242136  0.61302730  0.10269917  1
  O  O13  1  0.38697270  0.57757864  0.39730083  1
  O  O14  1  0.57757864  0.38697270  0.89730083  1
  O  O15  1  0.61302730  0.42242136  0.60269917  1
  O  O16  1  0.86824630  0.73030181  0.43616332  1
  O  O17  1  0.26969819  0.13175370  0.06383668  1
  O  O18  1  0.13175370  0.26969819  0.56383668  1
  O  O19  1  0.73030181  0.86824630  0.93616332  1
  O  O20  1  0.55630922  0.85043847  0.32456078  1
  O  O21  1  0.14956153  0.44369078  0.17543922  1
  O  O22  1  0.44369078  0.14956153  0.67543922  1
  O  O23  1  0.85043847  0.55630922  0.82456078  1
  O  O24  1  0.16689596  0.59450822  0.82091119  1
  O  O25  1  0.40549178  0.83310404  0.67908881  1
  O  O26  1  0.83310404  0.40549178  0.17908881  1
  O  O27  1  0.59450822  0.16689596  0.32091119  1
  O  O28  1  0.91332125  0.90653684  0.64028764  1
  O  O29  1  0.09346316  0.08667875  0.85971236  1
  O  O30  1  0.08667875  0.09346316  0.35971236  1
  O  O31  1  0.90653684  0.91332125  0.14028764  1
