# generated using pymatgen
data_SrSiO3
_symmetry_space_group_name_H-M   'P 1'
_cell_length_a   7.13626051
_cell_length_b   7.13626051
_cell_length_c   10.90449510
_cell_angle_alpha   71.42083431
_cell_angle_beta   71.42083431
_cell_angle_gamma   60.15957470
_symmetry_Int_Tables_number   1
_chemical_formula_structural   SrSiO3
_chemical_formula_sum   'Sr6 Si6 O18'
_cell_volume   447.85571033
_cell_formula_units_Z   6
loop_
 _symmetry_equiv_pos_site_id
 _symmetry_equiv_pos_as_xyz
  1  'x, y, z'
loop_
 _atom_site_type_symbol
 _atom_site_label
 _atom_site_symmetry_multiplicity
 _atom_site_fract_x
 _atom_site_fract_y
 _atom_site_fract_z
 _atom_site_occupancy
  Sr  Sr0  1  0.15377537  0.67263914  0.99914528  1
  Sr  Sr1  1  0.32736086  0.84622463  0.50085472  1
  Sr  Sr2  1  0.84622463  0.32736086  0.00085472  1
  Sr  Sr3  1  0.67263914  0.15377537  0.49914528  1
  Sr  Sr4  1  -0.00000000  0.50000000  0.50000000  1
  Sr  Sr5  1  0.50000000  -0.00000000  0.00000000  1
  Si  Si6  1  0.33382413  0.41828048  0.74633374  1
  Si  Si7  1  0.58171952  0.66617587  0.75366626  1
  Si  Si8  1  0.66617587  0.58171952  0.25366626  1
  Si  Si9  1  0.41828048  0.33382413  0.24633374  1
  Si  Si10  1  0.83162320  0.16837680  0.75000000  1
  Si  Si11  1  0.16837680  0.83162320  0.25000000  1
  O  O12  1  0.28062023  0.46514336  0.60509795  1
  O  O13  1  0.53485664  0.71937977  0.89490205  1
  O  O14  1  0.71937977  0.53485664  0.39490205  1
  O  O15  1  0.46514336  0.28062023  0.10509795  1
  O  O16  1  0.18340675  0.37190352  0.88470223  1
  O  O17  1  0.62809648  0.81659325  0.61529777  1
  O  O18  1  0.81659325  0.62809648  0.11529777  1
  O  O19  1  0.37190352  0.18340675  0.38470223  1
  O  O20  1  0.58270460  0.20415428  0.74819246  1
  O  O21  1  0.79584572  0.41729540  0.75180754  1
  O  O22  1  0.41729540  0.79584572  0.25180754  1
  O  O23  1  0.20415428  0.58270460  0.24819246  1
  O  O24  1  0.88746085  0.01822356  0.88919940  1
  O  O25  1  0.98177644  0.11253915  0.61080060  1
  O  O26  1  0.11253915  0.98177644  0.11080060  1
  O  O27  1  0.01822356  0.88746085  0.38919940  1
  O  O28  1  0.36862532  0.63137468  0.75000000  1
  O  O29  1  0.63137468  0.36862532  0.25000000  1
