# generated using pymatgen
data_Ba(InTe2)2
_symmetry_space_group_name_H-M   'P 1'
_cell_length_a   7.13349730
_cell_length_b   7.13350678
_cell_length_c   7.13350342
_cell_angle_alpha   104.66263392
_cell_angle_beta   104.66588550
_cell_angle_gamma   119.58266184
_symmetry_Int_Tables_number   1
_chemical_formula_structural   Ba(InTe2)2
_chemical_formula_sum   'Ba1 In2 Te4'
_cell_volume   272.81440039
_cell_formula_units_Z   1
loop_
 _symmetry_equiv_pos_site_id
 _symmetry_equiv_pos_as_xyz
  1  'x, y, z'
loop_
 _atom_site_type_symbol
 _atom_site_label
 _atom_site_symmetry_multiplicity
 _atom_site_fract_x
 _atom_site_fract_y
 _atom_site_fract_z
 _atom_site_occupancy
  Ba  Ba0  1  0.00001076  0.00001566  0.00001091  1
  In  In1  1  0.50000338  0.00000408  0.50000184  1
  In  In2  1  -0.00000012  0.49999925  0.50000351  1
  Te  Te3  1  0.92636917  0.07362072  0.49999431  1
  Te  Te4  1  0.07364573  0.57361886  0.14725899  1
  Te  Te5  1  0.42635307  0.92637192  0.85273654  1
  Te  Te6  1  0.57361802  0.42637051  0.49999391  1
