# generated using pymatgen
data_P2Pb4O9
_symmetry_space_group_name_H-M   'P 1'
_cell_length_a   7.16604718
_cell_length_b   9.48599845
_cell_length_c   14.53344074
_cell_angle_alpha   75.61086161
_cell_angle_beta   90.00000000
_cell_angle_gamma   90.00000000
_symmetry_Int_Tables_number   1
_chemical_formula_structural   P2Pb4O9
_chemical_formula_sum   'P8 Pb16 O36'
_cell_volume   956.94990022
_cell_formula_units_Z   4
loop_
 _symmetry_equiv_pos_site_id
 _symmetry_equiv_pos_as_xyz
  1  'x, y, z'
loop_
 _atom_site_type_symbol
 _atom_site_label
 _atom_site_symmetry_multiplicity
 _atom_site_fract_x
 _atom_site_fract_y
 _atom_site_fract_z
 _atom_site_occupancy
  P  P0  1  0.73311311  0.36908243  0.18557461  1
  P  P1  1  0.23311311  0.63091757  0.31442539  1
  P  P2  1  0.26688689  0.63091757  0.81442539  1
  P  P3  1  0.76688689  0.36908243  0.68557461  1
  P  P4  1  0.29306381  0.03167947  0.09671023  1
  P  P5  1  0.79306381  0.96832053  0.40328977  1
  P  P6  1  0.70693619  0.96832053  0.90328977  1
  P  P7  1  0.20693619  0.03167947  0.59671023  1
  Pb  Pb8  1  0.01250501  0.28406066  0.38761918  1
  Pb  Pb9  1  0.51250501  0.71593934  0.11238082  1
  Pb  Pb10  1  0.98749499  0.71593934  0.61238082  1
  Pb  Pb11  1  0.48749499  0.28406066  0.88761918  1
  Pb  Pb12  1  0.49677755  0.31422266  0.41608816  1
  Pb  Pb13  1  0.99677755  0.68577734  0.08391184  1
  Pb  Pb14  1  0.50322245  0.68577734  0.58391184  1
  Pb  Pb15  1  0.00322245  0.31422266  0.91608816  1
  Pb  Pb16  1  0.26979668  0.32729435  0.16735658  1
  Pb  Pb17  1  0.76979668  0.67270565  0.33264342  1
  Pb  Pb18  1  0.73020332  0.67270565  0.83264342  1
  Pb  Pb19  1  0.23020332  0.32729435  0.66735658  1
  Pb  Pb20  1  0.30071978  0.96515208  0.35172187  1
  Pb  Pb21  1  0.80071978  0.03484792  0.14827813  1
  Pb  Pb22  1  0.69928022  0.03484792  0.64827813  1
  Pb  Pb23  1  0.19928022  0.96515208  0.85172187  1
  O  O24  1  0.64508519  0.42760614  0.26636245  1
  O  O25  1  0.14508519  0.57239386  0.23363755  1
  O  O26  1  0.35491481  0.57239386  0.73363755  1
  O  O27  1  0.85491481  0.42760614  0.76636245  1
  O  O28  1  0.92203643  0.29405410  0.21728371  1
  O  O29  1  0.42203643  0.70594590  0.28271629  1
  O  O30  1  0.07796357  0.70594590  0.78271629  1
  O  O31  1  0.57796357  0.29405410  0.71728371  1
  O  O32  1  0.22249186  0.06609127  0.19041195  1
  O  O33  1  0.72249186  0.93390873  0.30958805  1
  O  O34  1  0.77750814  0.93390873  0.80958805  1
  O  O35  1  0.27750814  0.06609127  0.69041195  1
  O  O36  1  0.16921890  0.91941369  0.06841018  1
  O  O37  1  0.66921890  0.08058631  0.43158982  1
  O  O38  1  0.28863239  0.23286269  0.32601389  1
  O  O39  1  0.83078110  0.08058631  0.93158982  1
  O  O40  1  0.75698064  0.49923732  0.09878379  1
  O  O41  1  0.25698064  0.50076268  0.40121621  1
  O  O42  1  0.24301936  0.50076268  0.90121621  1
  O  O43  1  0.74301936  0.49923732  0.59878379  1
  O  O44  1  0.60100149  0.25442717  0.16140063  1
  O  O45  1  0.10100149  0.74557283  0.33859937  1
  O  O46  1  0.39899851  0.74557283  0.83859937  1
  O  O47  1  0.89899851  0.25442717  0.66140063  1
  O  O48  1  0.00601162  0.97144445  0.61062760  1
  O  O49  1  0.50601162  0.02855555  0.88937240  1
  O  O50  1  0.99398838  0.02855555  0.38937240  1
  O  O51  1  0.49398838  0.97144445  0.11062760  1
  O  O52  1  0.21455614  0.17960432  0.52306742  1
  O  O53  1  0.71455614  0.82039568  0.97693258  1
  O  O54  1  0.78544386  0.82039568  0.47693258  1
  O  O55  1  0.28544386  0.17960432  0.02306742  1
  O  O56  1  0.21136761  0.23286269  0.82601389  1
  O  O57  1  0.71136761  0.76713731  0.67398611  1
  O  O58  1  0.78863239  0.76713731  0.17398611  1
  O  O59  1  0.33078110  0.91941369  0.56841018  1
