# generated using pymatgen
data_Al2HgSe4
_symmetry_space_group_name_H-M   'P 1'
_cell_length_a   5.81371898
_cell_length_b   5.81371942
_cell_length_c   6.80293156
_cell_angle_alpha   115.29601585
_cell_angle_beta   115.29602807
_cell_angle_gamma   90.00001691
_symmetry_Int_Tables_number   1
_chemical_formula_structural   Al2HgSe4
_chemical_formula_sum   'Al2 Hg1 Se4'
_cell_volume   183.20425657
_cell_formula_units_Z   1
loop_
 _symmetry_equiv_pos_site_id
 _symmetry_equiv_pos_as_xyz
  1  'x, y, z'
loop_
 _atom_site_type_symbol
 _atom_site_label
 _atom_site_symmetry_multiplicity
 _atom_site_fract_x
 _atom_site_fract_y
 _atom_site_fract_z
 _atom_site_occupancy
  Al  Al0  1  0.25000000  0.75000000  0.50000000  1
  Al  Al1  1  0.50000000  0.50000000  -0.00000000  1
  Hg  Hg2  1  0.00000000  -0.00000000  -0.00000000  1
  Se  Se3  1  0.13281522  0.13441526  0.72504059  1
  Se  Se4  1  0.59222537  0.59062633  0.72504059  1
  Se  Se5  1  0.86558474  0.40777463  0.27495941  1
  Se  Se6  1  0.40937367  0.86718478  0.27495941  1
