# generated using pymatgen
data_Na4SiSe4
_symmetry_space_group_name_H-M   'P 1'
_cell_length_a   7.15775152
_cell_length_b   9.11518291
_cell_length_c   14.28697860
_cell_angle_alpha   90.00000000
_cell_angle_beta   90.00000000
_cell_angle_gamma   90.00000000
_symmetry_Int_Tables_number   1
_chemical_formula_structural   Na4SiSe4
_chemical_formula_sum   'Na16 Si4 Se16'
_cell_volume   932.14269389
_cell_formula_units_Z   4
loop_
 _symmetry_equiv_pos_site_id
 _symmetry_equiv_pos_as_xyz
  1  'x, y, z'
loop_
 _atom_site_type_symbol
 _atom_site_label
 _atom_site_symmetry_multiplicity
 _atom_site_fract_x
 _atom_site_fract_y
 _atom_site_fract_z
 _atom_site_occupancy
  Na  Na0  1  0.00000000  -0.00000000  0.00000000  1
  Na  Na1  1  0.50000000  -0.00000000  0.50000000  1
  Na  Na2  1  0.00000000  0.50000000  0.00000000  1
  Na  Na3  1  0.50000000  0.50000000  0.50000000  1
  Na  Na4  1  0.99431927  0.75000000  0.45428798  1
  Na  Na5  1  0.49431927  0.25000000  0.04571202  1
  Na  Na6  1  0.00568073  0.25000000  0.54571202  1
  Na  Na7  1  0.50568073  0.75000000  0.95428798  1
  Na  Na8  1  0.86262401  0.05087217  0.26642554  1
  Na  Na9  1  0.36262401  0.94912783  0.23357446  1
  Na  Na10  1  0.13737599  0.55087217  0.73357446  1
  Na  Na11  1  0.63737599  0.44912783  0.76642554  1
  Na  Na12  1  0.13737599  0.94912783  0.73357446  1
  Na  Na13  1  0.63737599  0.05087217  0.76642554  1
  Na  Na14  1  0.86262401  0.44912783  0.26642554  1
  Na  Na15  1  0.36262401  0.55087217  0.23357446  1
  Si  Si16  1  0.77806929  0.75000000  0.16532927  1
  Si  Si17  1  0.27806929  0.25000000  0.33467073  1
  Si  Si18  1  0.22193071  0.25000000  0.83467073  1
  Si  Si19  1  0.72193071  0.75000000  0.66532927  1
  Se  Se20  1  0.65670416  0.54665368  0.09587594  1
  Se  Se21  1  0.15670416  0.45334632  0.40412406  1
  Se  Se22  1  0.34329584  0.04665368  0.90412406  1
  Se  Se23  1  0.84329584  0.95334632  0.59587594  1
  Se  Se24  1  0.34329584  0.45334632  0.90412406  1
  Se  Se25  1  0.84329584  0.54665368  0.59587594  1
  Se  Se26  1  0.65670416  0.95334632  0.09587594  1
  Se  Se27  1  0.15670416  0.04665368  0.40412406  1
  Se  Se28  1  0.68176510  0.75000000  0.31807774  1
  Se  Se29  1  0.18176510  0.25000000  0.18192226  1
  Se  Se30  1  0.31823490  0.25000000  0.68192226  1
  Se  Se31  1  0.81823490  0.75000000  0.81807774  1
  Se  Se32  1  0.09284568  0.75000000  0.14123643  1
  Se  Se33  1  0.59284568  0.25000000  0.35876357  1
  Se  Se34  1  0.90715432  0.25000000  0.85876357  1
  Se  Se35  1  0.40715432  0.75000000  0.64123643  1
