# generated using pymatgen
data_NdScO3
_symmetry_space_group_name_H-M   'P 1'
_cell_length_a   5.58038856
_cell_length_b   5.80995328
_cell_length_c   8.02978969
_cell_angle_alpha   90.00000000
_cell_angle_beta   90.00000000
_cell_angle_gamma   90.00000000
_symmetry_Int_Tables_number   1
_chemical_formula_structural   NdScO3
_chemical_formula_sum   'Nd4 Sc4 O12'
_cell_volume   260.34020982
_cell_formula_units_Z   4
loop_
 _symmetry_equiv_pos_site_id
 _symmetry_equiv_pos_as_xyz
  1  'x, y, z'
loop_
 _atom_site_type_symbol
 _atom_site_label
 _atom_site_symmetry_multiplicity
 _atom_site_fract_x
 _atom_site_fract_y
 _atom_site_fract_z
 _atom_site_occupancy
  Nd  Nd0  1  0.01538422  0.94341464  0.25000000  1
  Nd  Nd1  1  0.51538422  0.55658536  0.75000000  1
  Nd  Nd2  1  0.48461578  0.44341464  0.25000000  1
  Nd  Nd3  1  0.98461578  0.05658536  0.75000000  1
  Sc  Sc4  1  0.00000000  0.50000000  -0.00000000  1
  Sc  Sc5  1  0.50000000  0.00000000  -0.00000000  1
  Sc  Sc6  1  0.50000000  0.00000000  0.50000000  1
  Sc  Sc7  1  0.00000000  0.50000000  0.50000000  1
  O  O8  1  0.89017972  0.54120546  0.25000000  1
  O  O9  1  0.39017972  0.95879454  0.75000000  1
  O  O10  1  0.60982028  0.04120546  0.25000000  1
  O  O11  1  0.10982028  0.45879454  0.75000000  1
  O  O12  1  0.69793525  0.30072182  0.94224873  1
  O  O13  1  0.19793525  0.19927818  0.05775127  1
  O  O14  1  0.80206475  0.80072182  0.55775127  1
  O  O15  1  0.30206475  0.69927818  0.44224873  1
  O  O16  1  0.30206475  0.69927818  0.05775127  1
  O  O17  1  0.80206475  0.80072182  0.94224873  1
  O  O18  1  0.19793525  0.19927818  0.44224873  1
  O  O19  1  0.69793525  0.30072182  0.55775127  1
