# generated using pymatgen
data_Ga2NiO4
_symmetry_space_group_name_H-M   'P 1'
_cell_length_a   5.79027870
_cell_length_b   5.91440374
_cell_length_c   8.26409598
_cell_angle_alpha   90.00028131
_cell_angle_beta   89.99999845
_cell_angle_gamma   90.00001011
_symmetry_Int_Tables_number   1
_chemical_formula_structural   Ga2NiO4
_chemical_formula_sum   'Ga8 Ni4 O16'
_cell_volume   283.01261117
_cell_formula_units_Z   4
loop_
 _symmetry_equiv_pos_site_id
 _symmetry_equiv_pos_as_xyz
  1  'x, y, z'
loop_
 _atom_site_type_symbol
 _atom_site_label
 _atom_site_symmetry_multiplicity
 _atom_site_fract_x
 _atom_site_fract_y
 _atom_site_fract_z
 _atom_site_occupancy
  Ga  Ga0  1  -0.00000017  -0.00000075  0.99268490  1
  Ga  Ga1  1  0.49999985  0.49999942  0.49268420  1
  Ga  Ga2  1  -0.00000025  0.50000038  0.25732250  1
  Ga  Ga3  1  0.49999981  0.00000090  0.75732149  1
  Ga  Ga4  1  0.00000051  0.75000213  0.62500244  1
  Ga  Ga5  1  0.50000034  0.25000152  0.12500329  1
  Ga  Ga6  1  0.00000031  0.24999779  0.62500251  1
  Ga  Ga7  1  0.50000009  0.74999866  0.12500326  1
  Ni  Ni8  1  0.74999824  0.50000102  0.87499027  1
  Ni  Ni9  1  0.25000140  0.49999935  0.87499115  1
  Ni  Ni10  1  0.24999811  0.00000087  0.37499037  1
  Ni  Ni11  1  0.75000130  -0.00000151  0.37499132  1
  O  O12  1  -0.00000031  0.75772374  0.38750098  1
  O  O13  1  0.49999954  0.25772341  0.88750104  1
  O  O14  1  0.00000037  0.24227839  0.38750124  1
  O  O15  1  0.50000050  0.74228020  0.88750143  1
  O  O16  1  0.00000050  0.25775301  0.86252642  1
  O  O17  1  0.50000039  0.75775395  0.36252674  1
  O  O18  1  -0.00000032  0.74224399  0.86252672  1
  O  O19  1  0.49999972  0.24224313  0.36252705  1
  O  O20  1  0.23495022  -0.00000080  0.62373923  1
  O  O21  1  0.73495007  0.49999924  0.12374052  1
  O  O22  1  0.76504994  -0.00000066  0.62373899  1
  O  O23  1  0.26504978  0.49999936  0.12374029  1
  O  O24  1  0.23492754  0.50000104  0.62623495  1
  O  O25  1  0.73492750  0.00000094  0.12623612  1
  O  O26  1  0.76507265  0.50000058  0.62623519  1
  O  O27  1  0.26507238  0.00000070  0.12623639  1
