# generated using pymatgen
data_Bi2O3
_symmetry_space_group_name_H-M   'P 1'
_cell_length_a   4.21828367
_cell_length_b   8.19794655
_cell_length_c   7.32982629
_cell_angle_alpha   26.56643644
_cell_angle_beta   49.21389405
_cell_angle_gamma   54.26433252
_symmetry_Int_Tables_number   1
_chemical_formula_structural   Bi2O3
_chemical_formula_sum   'Bi2 O3'
_cell_volume   85.83301720
_cell_formula_units_Z   1
loop_
 _symmetry_equiv_pos_site_id
 _symmetry_equiv_pos_as_xyz
  1  'x, y, z'
loop_
 _atom_site_type_symbol
 _atom_site_label
 _atom_site_symmetry_multiplicity
 _atom_site_fract_x
 _atom_site_fract_y
 _atom_site_fract_z
 _atom_site_occupancy
  Bi  Bi0  1  0.94118518  0.00022382  0.02846302  1
  Bi  Bi1  1  0.01566089  0.50003761  0.98985898  1
  O  O2  1  0.27744056  0.00013343  0.21727688  1
  O  O3  1  0.03244854  0.99949050  0.68299436  1
  O  O4  1  0.69626383  0.50011464  0.76040576  1
