# generated using pymatgen
data_NaAlB14
_symmetry_space_group_name_H-M   'P 1'
_cell_length_a   7.24490925
_cell_length_b   7.24506509
_cell_length_c   7.24508938
_cell_angle_alpha   132.52787447
_cell_angle_beta   110.96881406
_cell_angle_gamma   88.06307945
_symmetry_Int_Tables_number   1
_chemical_formula_structural   NaAlB14
_chemical_formula_sum   'Na2 Al2 B28'
_cell_volume   249.44444492
_cell_formula_units_Z   2
loop_
 _symmetry_equiv_pos_site_id
 _symmetry_equiv_pos_as_xyz
  1  'x, y, z'
loop_
 _atom_site_type_symbol
 _atom_site_label
 _atom_site_symmetry_multiplicity
 _atom_site_fract_x
 _atom_site_fract_y
 _atom_site_fract_z
 _atom_site_occupancy
  Na  Na0  1  0.09737571  0.75001014  0.34737626  1
  Na  Na1  1  0.90262426  0.24998991  0.65262371  1
  Al  Al2  1  0.49999997  0.49999996  0.49999995  1
  Al  Al3  1  0.49999999  -0.00000001  0.00000001  1
  B  B4  1  0.89713458  0.22034497  0.99714220  1
  B  B5  1  0.46477268  0.17089693  0.79441424  1
  B  B6  1  0.87647898  0.17036403  0.20558651  1
  B  B7  1  0.72320679  0.39999623  0.00286248  1
  B  B8  1  0.58162278  0.41425245  0.16736524  1
  B  B9  1  0.72748812  0.35210159  0.37538375  1
  B  B10  1  0.30143195  0.33392417  0.96751246  1
  B  B11  1  0.72320824  0.72034467  0.32320967  1
  B  B12  1  0.87647808  0.67089726  0.70612116  1
  B  B13  1  0.46477271  0.67035807  0.29387515  1
  B  B14  1  0.10286080  0.10000878  0.32321056  1
  B  B15  1  0.89713923  0.89999124  0.67678942  1
  B  B16  1  0.53522725  0.32964184  0.70612477  1
  B  B17  1  0.12352192  0.32910276  0.29387887  1
  B  B18  1  0.27679172  0.27965535  0.67679032  1
  B  B19  1  0.74687914  0.91425547  0.83262110  1
  B  B20  1  0.47671780  0.85210500  0.62461178  1
  B  B21  1  0.86640699  0.83391768  0.03248405  1
  B  B22  1  0.69856805  0.66607578  0.03248754  1
  B  B23  1  0.27251192  0.64789840  0.62461628  1
  B  B24  1  0.41837715  0.58574750  0.83263474  1
  B  B25  1  0.27679324  0.60000384  0.99713759  1
  B  B26  1  0.12352105  0.82963595  0.79441345  1
  B  B27  1  0.53522733  0.82910313  0.20558582  1
  B  B28  1  0.10286545  0.77965506  0.00285783  1
  B  B29  1  0.13359302  0.16608234  0.96751593  1
  B  B30  1  0.52328216  0.14789501  0.37538826  1
  B  B31  1  0.25312088  0.08574451  0.16737893  1
