# generated using pymatgen
data_Rb6Fe2O5
_symmetry_space_group_name_H-M   'P 1'
_cell_length_a   6.87109781
_cell_length_b   6.87109685
_cell_length_c   6.94784346
_cell_angle_alpha   92.95484430
_cell_angle_beta   92.95482159
_cell_angle_gamma   116.64926205
_symmetry_Int_Tables_number   1
_chemical_formula_structural   Rb6Fe2O5
_chemical_formula_sum   'Rb6 Fe2 O5'
_cell_volume   291.75928246
_cell_formula_units_Z   1
loop_
 _symmetry_equiv_pos_site_id
 _symmetry_equiv_pos_as_xyz
  1  'x, y, z'
loop_
 _atom_site_type_symbol
 _atom_site_label
 _atom_site_symmetry_multiplicity
 _atom_site_fract_x
 _atom_site_fract_y
 _atom_site_fract_z
 _atom_site_occupancy
  Rb  Rb0  1  0.20510583  0.79273717  0.99467626  1
  Rb  Rb1  1  0.24581657  0.75544774  0.50042379  1
  Rb  Rb2  1  0.36100398  0.36100398  0.17074919  1
  Rb  Rb3  1  0.64739242  0.64739242  0.82387825  1
  Rb  Rb4  1  0.75544774  0.24581657  0.50042379  1
  Rb  Rb5  1  0.79273717  0.20510583  0.99467626  1
  Fe  Fe6  1  0.18755130  0.18755230  0.69029796  1
  Fe  Fe7  1  0.79749276  0.79749276  0.33055872  1
  O  O8  1  0.16480277  0.43547581  0.77065821  1
  O  O9  1  0.57133737  0.84140467  0.22157044  1
  O  O10  1  0.43547581  0.16480277  0.77065821  1
  O  O11  1  0.93592862  0.93592862  0.57886046  1
  O  O12  1  0.84140467  0.57133737  0.22157044  1
