# generated using pymatgen
data_Li3GaN2
_symmetry_space_group_name_H-M   'P 1'
_cell_length_a   8.28699076
_cell_length_b   8.28700506
_cell_length_c   8.28699120
_cell_angle_alpha   109.47035236
_cell_angle_beta   109.47043865
_cell_angle_gamma   109.47038533
_symmetry_Int_Tables_number   1
_chemical_formula_structural   Li3GaN2
_chemical_formula_sum   'Li24 Ga8 N16'
_cell_volume   438.10959718
_cell_formula_units_Z   8
loop_
 _symmetry_equiv_pos_site_id
 _symmetry_equiv_pos_as_xyz
  1  'x, y, z'
loop_
 _atom_site_type_symbol
 _atom_site_label
 _atom_site_symmetry_multiplicity
 _atom_site_fract_x
 _atom_site_fract_y
 _atom_site_fract_z
 _atom_site_occupancy
  Li  Li0  1  0.73907813  0.76297881  0.23101334  1
  Li  Li1  1  0.03197206  0.50807185  0.26898020  1
  Li  Li2  1  0.76091999  0.99194845  0.02390147  1
  Li  Li3  1  0.26898077  0.03197148  0.50806899  1
  Li  Li4  1  0.76298046  0.23101544  0.73907744  1
  Li  Li5  1  0.73701425  0.47609235  0.46803898  1
  Li  Li6  1  0.47609104  0.46803727  0.73701342  1
  Li  Li7  1  0.50806996  0.26897894  0.03197211  1
  Li  Li8  1  0.02390247  0.76092003  0.99194823  1
  Li  Li9  1  0.99194814  0.02390067  0.76091983  1
  Li  Li10  1  0.23101465  0.73907721  0.76298035  1
  Li  Li11  1  0.46803751  0.73701181  0.47609232  1
  Li  Li12  1  0.26092288  0.23702089  0.76898552  1
  Li  Li13  1  0.96802950  0.49193032  0.73101980  1
  Li  Li14  1  0.23908212  0.00805312  0.97609951  1
  Li  Li15  1  0.73101974  0.96802555  0.49192888  1
  Li  Li16  1  0.23701907  0.76898312  0.26092180  1
  Li  Li17  1  0.26298730  0.52390868  0.53196305  1
  Li  Li18  1  0.52390776  0.53196383  0.26298766  1
  Li  Li19  1  0.53196252  0.26298705  0.52390702  1
  Li  Li20  1  0.97609881  0.23908113  0.00805340  1
  Li  Li21  1  0.00805225  0.97609785  0.23908058  1
  Li  Li22  1  0.76898484  0.26092395  0.23702071  1
  Li  Li23  1  0.49193091  0.73102141  0.96803007  1
  Ga  Ga24  1  0.50000114  0.00000240  0.23602613  1
  Ga  Ga25  1  0.00000280  0.23602644  0.50000214  1
  Ga  Ga26  1  0.26397897  0.26397869  0.26397927  1
  Ga  Ga27  1  0.23602689  0.50000178  0.00000287  1
  Ga  Ga28  1  0.49999777  -0.00000319  0.76397374  1
  Ga  Ga29  1  -0.00000192  0.76397447  0.49999917  1
  Ga  Ga30  1  0.73602142  0.73602070  0.73602071  1
  Ga  Ga31  1  0.76397379  0.49999811  -0.00000339  1
  N  N32  1  0.77233273  0.52233215  0.24999965  1
  N  N33  1  0.00000011  -0.00000040  0.49999947  1
  N  N34  1  0.50000045  0.50000060  0.50000031  1
  N  N35  1  -0.00000254  0.49999859  -0.00000127  1
  N  N36  1  0.47766588  0.74999902  0.22766586  1
  N  N37  1  0.22766640  0.47766600  0.74999910  1
  N  N38  1  0.25000295  0.27233434  0.02233105  1
  N  N39  1  0.27233081  0.02233084  0.24999850  1
  N  N40  1  0.97766476  0.74999768  0.72766615  1
  N  N41  1  0.25000209  0.77233599  0.52233502  1
  N  N42  1  0.72766700  0.97766904  0.74999921  1
  N  N43  1  0.74999912  0.72766691  0.97766877  1
  N  N44  1  0.74999574  0.22766612  0.47766625  1
  N  N45  1  0.52233238  0.25000140  0.77233469  1
  N  N46  1  0.02233286  0.25000175  0.27233210  1
  N  N47  1  0.49999927  -0.00000162  -0.00000222  1
