# generated using pymatgen
data_BaCeO3
_symmetry_space_group_name_H-M   'P 1'
_cell_length_a   6.23030760
_cell_length_b   6.23557771
_cell_length_c   6.23557766
_cell_angle_alpha   60.70769916
_cell_angle_beta   60.02796597
_cell_angle_gamma   60.02795864
_symmetry_Int_Tables_number   1
_chemical_formula_structural   BaCeO3
_chemical_formula_sum   'Ba2 Ce2 O6'
_cell_volume   172.26711112
_cell_formula_units_Z   2
loop_
 _symmetry_equiv_pos_site_id
 _symmetry_equiv_pos_as_xyz
  1  'x, y, z'
loop_
 _atom_site_type_symbol
 _atom_site_label
 _atom_site_symmetry_multiplicity
 _atom_site_fract_x
 _atom_site_fract_y
 _atom_site_fract_z
 _atom_site_occupancy
  Ba  Ba0  1  0.75000000  0.25919167  0.74080833  1
  Ba  Ba1  1  0.25000000  0.74080833  0.25919167  1
  Ce  Ce2  1  0.00000000  0.50000000  0.00000000  1
  Ce  Ce3  1  0.50000000  -0.00000000  0.50000000  1
  O  O4  1  0.20468643  0.29531357  0.29531357  1
  O  O5  1  0.29531357  0.70468643  0.70468643  1
  O  O6  1  0.79531357  0.70468643  0.70468643  1
  O  O7  1  0.70468643  0.29531357  0.29531357  1
  O  O8  1  0.25000000  0.16951603  0.83048397  1
  O  O9  1  0.75000000  0.83048397  0.16951603  1
