# generated using pymatgen
data_As8S9
_symmetry_space_group_name_H-M   'P 1'
_cell_length_a   9.38670426
_cell_length_b   9.93780597
_cell_length_c   10.15226338
_cell_angle_alpha   90.00000000
_cell_angle_beta   102.41598905
_cell_angle_gamma   90.00000000
_symmetry_Int_Tables_number   1
_chemical_formula_structural   As8S9
_chemical_formula_sum   'As16 S18'
_cell_volume   924.88709763
_cell_formula_units_Z   2
loop_
 _symmetry_equiv_pos_site_id
 _symmetry_equiv_pos_as_xyz
  1  'x, y, z'
loop_
 _atom_site_type_symbol
 _atom_site_label
 _atom_site_symmetry_multiplicity
 _atom_site_fract_x
 _atom_site_fract_y
 _atom_site_fract_z
 _atom_site_occupancy
  As  As0  1  0.31861471  0.03180502  0.62332648  1
  As  As1  1  0.18138529  0.03180502  0.37667352  1
  As  As2  1  0.68138529  0.96819498  0.37667352  1
  As  As3  1  0.81861471  0.96819498  0.62332648  1
  As  As4  1  0.06714591  0.31738716  0.55811749  1
  As  As5  1  0.43285409  0.31738716  0.44188251  1
  As  As6  1  0.93285409  0.68261284  0.44188251  1
  As  As7  1  0.56714591  0.68261284  0.55811749  1
  As  As8  1  0.64981473  0.41736148  0.83446234  1
  As  As9  1  0.85018527  0.41736148  0.16553766  1
  As  As10  1  0.35018527  0.58263852  0.16553766  1
  As  As11  1  0.14981473  0.58263852  0.83446234  1
  As  As12  1  0.56008966  0.22983188  0.97802342  1
  As  As13  1  0.93991034  0.22983188  0.02197658  1
  As  As14  1  0.43991034  0.77016812  0.02197658  1
  As  As15  1  0.06008966  0.77016812  0.97802342  1
  S  S16  1  0.50831363  0.16559612  0.60777496  1
  S  S17  1  0.99168637  0.16559612  0.39222504  1
  S  S18  1  0.49168637  0.83440388  0.39222504  1
  S  S19  1  0.00831363  0.83440388  0.60777496  1
  S  S20  1  0.25000000  0.43552328  0.50000000  1
  S  S21  1  0.75000000  0.56447672  0.50000000  1
  S  S22  1  0.17630417  0.16865202  0.71483839  1
  S  S23  1  0.32369583  0.16865202  0.28516161  1
  S  S24  1  0.82369583  0.83134798  0.28516161  1
  S  S25  1  0.67630417  0.83134798  0.71483839  1
  S  S26  1  0.86299886  0.32429826  0.81906125  1
  S  S27  1  0.63700114  0.32429826  0.18093875  1
  S  S28  1  0.13700114  0.67570174  0.18093875  1
  S  S29  1  0.36299886  0.67570174  0.81906125  1
  S  S30  1  0.75000000  0.55945126  0.00000000  1
  S  S31  1  0.25000000  0.44054874  0.00000000  1
  S  S32  1  0.25000000  0.91131658  0.00000000  1
  S  S33  1  0.75000000  0.08868342  0.00000000  1
