# generated using pymatgen
data_As2Pb8O13
_symmetry_space_group_name_H-M   'P 1'
_cell_length_a   7.55504938
_cell_length_b   7.55504938
_cell_length_c   14.72248553
_cell_angle_alpha   84.05937454
_cell_angle_beta   84.05937454
_cell_angle_gamma   88.05548454
_symmetry_Int_Tables_number   1
_chemical_formula_structural   As2Pb8O13
_chemical_formula_sum   'As4 Pb16 O26'
_cell_volume   831.11079269
_cell_formula_units_Z   2
loop_
 _symmetry_equiv_pos_site_id
 _symmetry_equiv_pos_as_xyz
  1  'x, y, z'
loop_
 _atom_site_type_symbol
 _atom_site_label
 _atom_site_symmetry_multiplicity
 _atom_site_fract_x
 _atom_site_fract_y
 _atom_site_fract_z
 _atom_site_occupancy
  As  As0  1  0.15595949  0.15595949  0.90488860  1
  As  As1  1  0.25327193  0.74672807  0.50000000  1
  As  As2  1  0.74672807  0.25327193  0.50000000  1
  As  As3  1  0.84404051  0.84404051  0.09511140  1
  Pb  Pb4  1  0.26046559  0.26046559  0.48295215  1
  Pb  Pb5  1  0.56637138  0.56637138  0.28399373  1
  Pb  Pb6  1  0.84073272  0.33375458  0.09611976  1
  Pb  Pb7  1  0.66624542  0.15926728  0.90388024  1
  Pb  Pb8  1  0.73953441  0.73953441  0.51704785  1
  Pb  Pb9  1  0.07335207  0.07335207  0.30011344  1
  Pb  Pb10  1  0.07494585  0.54400071  0.29513497  1
  Pb  Pb11  1  0.15926728  0.66624542  0.90388024  1
  Pb  Pb12  1  0.43362862  0.43362862  0.71600627  1
  Pb  Pb13  1  0.45599929  0.92505415  0.70486503  1
  Pb  Pb14  1  0.33031470  0.33031470  0.11701416  1
  Pb  Pb15  1  0.66968530  0.66968530  0.88298584  1
  Pb  Pb16  1  0.54400071  0.07494585  0.29513497  1
  Pb  Pb17  1  0.92505415  0.45599929  0.70486503  1
  Pb  Pb18  1  0.92664793  0.92664793  0.69988656  1
  Pb  Pb19  1  0.33375458  0.84073272  0.09611976  1
  O  O20  1  0.77004578  0.03673945  0.13903882  1
  O  O21  1  0.94355617  0.26698684  0.43247618  1
  O  O22  1  0.86309402  0.86309402  0.97860792  1
  O  O23  1  0.32969113  0.04532817  0.19452107  1
  O  O24  1  0.31194015  0.31194015  0.86682427  1
  O  O25  1  0.73301316  0.05644383  0.56752382  1
  O  O26  1  0.96326055  0.22995422  0.86096118  1
  O  O27  1  0.72758694  0.42175065  0.56970709  1
  O  O28  1  0.72796230  0.72796230  0.66716849  1
  O  O29  1  0.60834529  0.32748235  0.20837112  1
  O  O30  1  0.39165471  0.67251765  0.79162888  1
  O  O31  1  0.67251765  0.39165471  0.79162888  1
  O  O32  1  0.95467183  0.67030887  0.80547893  1
  O  O33  1  0.67030887  0.95467183  0.80547893  1
  O  O34  1  0.42175065  0.72758694  0.56970709  1
  O  O35  1  0.68805985  0.68805985  0.13317573  1
  O  O36  1  0.13690598  0.13690598  0.02139208  1
  O  O37  1  0.04532817  0.32969113  0.19452107  1
  O  O38  1  0.27203770  0.27203770  0.33283151  1
  O  O39  1  0.03673945  0.77004578  0.13903882  1
  O  O40  1  0.22995422  0.96326055  0.86096118  1
  O  O41  1  0.32748235  0.60834529  0.20837112  1
  O  O42  1  0.27241306  0.57824935  0.43029291  1
  O  O43  1  0.05644383  0.73301316  0.56752382  1
  O  O44  1  0.57824935  0.27241306  0.43029291  1
  O  O45  1  0.26698684  0.94355617  0.43247618  1
