# generated using pymatgen
data_In2(Se2O5)3
_symmetry_space_group_name_H-M   'P 1'
_cell_length_a   13.36423675
_cell_length_b   9.75653108
_cell_length_c   11.21180699
_cell_angle_alpha   74.77657930
_cell_angle_beta   90.00000000
_cell_angle_gamma   90.00000000
_symmetry_Int_Tables_number   1
_chemical_formula_structural   In2(Se2O5)3
_chemical_formula_sum   'In8 Se24 O60'
_cell_volume   1410.59282541
_cell_formula_units_Z   4
loop_
 _symmetry_equiv_pos_site_id
 _symmetry_equiv_pos_as_xyz
  1  'x, y, z'
loop_
 _atom_site_type_symbol
 _atom_site_label
 _atom_site_symmetry_multiplicity
 _atom_site_fract_x
 _atom_site_fract_y
 _atom_site_fract_z
 _atom_site_occupancy
  In  In0  1  0.70667898  0.57571535  0.86202383  1
  In  In1  1  0.29332102  0.07571535  0.86202383  1
  In  In2  1  0.95160466  0.53776992  0.32703575  1
  In  In3  1  0.04839534  0.03776992  0.32703575  1
  In  In4  1  0.45262167  0.51898368  0.33274369  1
  In  In5  1  0.54737833  0.01898368  0.33274369  1
  In  In6  1  0.79745352  0.08409259  0.84582874  1
  In  In7  1  0.20254648  0.58409259  0.84582874  1
  Se  Se8  1  0.53263890  0.68912898  0.54617779  1
  Se  Se9  1  0.46736110  0.18912898  0.54617779  1
  Se  Se10  1  0.48861037  0.34624199  0.11894938  1
  Se  Se11  1  0.51138963  0.84624199  0.11894938  1
  Se  Se12  1  0.98728210  0.35731450  0.10378892  1
  Se  Se13  1  0.01271790  0.85731450  0.10378892  1
  Se  Se14  1  0.73900859  0.77442092  0.08340340  1
  Se  Se15  1  0.26099141  0.27442092  0.08340340  1
  Se  Se16  1  0.95715564  0.18319577  0.54274200  1
  Se  Se17  1  0.04284436  0.68319577  0.54274200  1
  Se  Se18  1  0.53506579  0.18982114  0.82388041  1
  Se  Se19  1  0.46493421  0.68982114  0.82388041  1
  Se  Se20  1  0.23332081  0.74374990  0.06616168  1
  Se  Se21  1  0.76667919  0.24374990  0.06616168  1
  Se  Se22  1  0.04618281  0.18757676  0.80407189  1
  Se  Se23  1  0.95381719  0.68757676  0.80407189  1
  Se  Se24  1  0.77158068  0.41897115  0.63487778  1
  Se  Se25  1  0.22841932  0.91897115  0.63487778  1
  Se  Se26  1  0.79772307  0.91245318  0.38049257  1
  Se  Se27  1  0.20227693  0.41245318  0.38049257  1
  Se  Se28  1  0.71067436  0.41331672  0.35741786  1
  Se  Se29  1  0.28932564  0.91331672  0.35741786  1
  Se  Se30  1  0.70292694  0.91514524  0.64280359  1
  Se  Se31  1  0.29707306  0.41514524  0.64280359  1
  O  O32  1  0.39057077  0.29750034  0.02567743  1
  O  O33  1  0.60942923  0.79750034  0.02567743  1
  O  O34  1  0.55700838  0.15639581  0.67163045  1
  O  O35  1  0.44299162  0.65639581  0.67163045  1
  O  O36  1  0.86492884  0.28484277  0.16320581  1
  O  O37  1  0.13507116  0.78484277  0.16320581  1
  O  O38  1  0.01690242  0.27817631  0.64627881  1
  O  O39  1  0.98309758  0.77817631  0.64627881  1
  O  O40  1  0.68121628  0.43870521  0.50891864  1
  O  O41  1  0.31878372  0.93870521  0.50891864  1
  O  O42  1  0.77183636  0.82875189  0.54183726  1
  O  O43  1  0.22816364  0.32875189  0.54183726  1
  O  O44  1  0.65016869  0.76300003  0.72648638  1
  O  O45  1  0.34983131  0.26300003  0.72648638  1
  O  O46  1  0.68421195  0.44292140  0.73571419  1
  O  O47  1  0.31578805  0.94292140  0.73571419  1
  O  O48  1  0.45342875  0.05929308  0.88689906  1
  O  O49  1  0.54657125  0.55929308  0.88689906  1
  O  O50  1  0.14419934  0.08595475  0.78648934  1
  O  O51  1  0.85580066  0.58595475  0.78648934  1
  O  O52  1  0.29439212  0.89882516  0.02382139  1
  O  O53  1  0.70560788  0.39882516  0.02382139  1
  O  O54  1  0.89667627  0.01425108  0.39278973  1
  O  O55  1  0.77638304  0.68804182  0.98069824  1
  O  O56  1  0.91013148  0.33104036  0.44487645  1
  O  O57  1  0.08986852  0.83104036  0.44487645  1
  O  O58  1  0.98210494  0.51021040  0.14556444  1
  O  O59  1  0.01789506  0.01021040  0.14556444  1
  O  O60  1  0.06193488  0.14617284  0.47364541  1
  O  O61  1  0.93806512  0.64617284  0.47364541  1
  O  O62  1  0.05671697  0.25740334  0.21833528  1
  O  O63  1  0.94328303  0.75740334  0.21833528  1
  O  O64  1  0.21392144  0.74113630  0.67172456  1
  O  O65  1  0.78607856  0.24113630  0.67172456  1
  O  O66  1  0.83568153  0.24352838  0.94003846  1
  O  O67  1  0.16431847  0.74352838  0.94003846  1
  O  O68  1  0.35890325  0.61229604  0.88721289  1
  O  O69  1  0.64109675  0.11229604  0.88721289  1
  O  O70  1  0.20286993  0.43250100  0.73763916  1
  O  O71  1  0.79713007  0.93250100  0.73763916  1
  O  O72  1  0.20923619  0.43638111  0.02612717  1
  O  O73  1  0.79076381  0.93638111  0.02612717  1
  O  O74  1  0.04277598  0.56007823  0.83209327  1
  O  O75  1  0.95722402  0.06007823  0.83209327  1
  O  O76  1  0.55074278  0.17136580  0.43909919  1
  O  O77  1  0.44925722  0.67136580  0.43909919  1
  O  O78  1  0.45762308  0.36800256  0.51127475  1
  O  O79  1  0.54237692  0.86800256  0.51127475  1
  O  O80  1  0.45178869  0.68947295  0.16659843  1
  O  O81  1  0.54821131  0.18947295  0.16659843  1
  O  O82  1  0.39294382  0.99325115  0.28704677  1
  O  O83  1  0.60705618  0.49325115  0.28704677  1
  O  O84  1  0.58523661  0.85917843  0.23899150  1
  O  O85  1  0.41476339  0.35917843  0.23899150  1
  O  O86  1  0.29113153  0.53863511  0.34841464  1
  O  O87  1  0.70886847  0.03863511  0.34841464  1
  O  O88  1  0.20744412  0.04688657  0.30599266  1
  O  O89  1  0.79255588  0.54688657  0.30599266  1
  O  O90  1  0.10332373  0.51425108  0.39278973  1
  O  O91  1  0.22361696  0.18804182  0.98069824  1
