# generated using pymatgen
data_Ba3(BN2)2
_symmetry_space_group_name_H-M   'P 1'
_cell_length_a   4.28334874
_cell_length_b   11.11685963
_cell_length_c   14.87802664
_cell_angle_alpha   89.99991316
_cell_angle_beta   90.00000903
_cell_angle_gamma   90.00000258
_symmetry_Int_Tables_number   1
_chemical_formula_structural   Ba3(BN2)2
_chemical_formula_sum   'Ba12 B8 N16'
_cell_volume   708.45274768
_cell_formula_units_Z   4
loop_
 _symmetry_equiv_pos_site_id
 _symmetry_equiv_pos_as_xyz
  1  'x, y, z'
loop_
 _atom_site_type_symbol
 _atom_site_label
 _atom_site_symmetry_multiplicity
 _atom_site_fract_x
 _atom_site_fract_y
 _atom_site_fract_z
 _atom_site_occupancy
  Ba  Ba0  1  0.85143559  0.03752805  0.82974746  1
  Ba  Ba1  1  0.35143609  0.46247164  0.17025193  1
  Ba  Ba2  1  0.14856554  0.53752916  0.67025150  1
  Ba  Ba3  1  0.64856506  0.96247071  0.32974918  1
  Ba  Ba4  1  0.72622426  0.84509597  0.59299613  1
  Ba  Ba5  1  0.22622224  0.65490419  0.40700639  1
  Ba  Ba6  1  0.27377529  0.34509546  0.90700314  1
  Ba  Ba7  1  0.77377796  0.15490456  0.09299474  1
  Ba  Ba8  1  0.59944412  0.68804583  0.88585479  1
  Ba  Ba9  1  0.09944264  0.81195377  0.11414265  1
  Ba  Ba10  1  0.40055613  0.18804620  0.61414440  1
  Ba  Ba11  1  0.90055642  0.31195368  0.38585767  1
  B  B12  1  0.59362685  0.50034325  0.52082602  1
  B  B13  1  0.09362653  0.99965651  0.47917687  1
  B  B14  1  0.90637483  0.49965751  0.02082345  1
  B  B15  1  0.40637455  0.00034248  0.97917393  1
  B  B16  1  0.23430806  0.85866568  0.73845073  1
  B  B17  1  0.73430849  0.64133447  0.26154962  1
  B  B18  1  0.76569016  0.35866753  0.76154795  1
  B  B19  1  0.26568983  0.14133247  0.23845153  1
  N  N20  1  0.35139272  0.96656980  0.71615415  1
  N  N21  1  0.85139360  0.53343047  0.28384653  1
  N  N22  1  0.64860907  0.46657056  0.78384441  1
  N  N23  1  0.14860817  0.03342955  0.21615507  1
  N  N24  1  0.93052710  0.09980200  0.49536383  1
  N  N25  1  0.43052671  0.40019751  0.50464029  1
  N  N26  1  0.06947247  0.59980464  0.00463707  1
  N  N27  1  0.56947353  0.90019563  0.99535951  1
  N  N28  1  0.78706519  0.38926478  0.03640452  1
  N  N29  1  0.28706524  0.11073545  0.96359338  1
  N  N30  1  0.71293514  0.61073657  0.53640693  1
  N  N31  1  0.21293585  0.88926372  0.46359572  1
  N  N32  1  0.59262351  0.74554524  0.24240969  1
  N  N33  1  0.09262273  0.75445491  0.75758979  1
  N  N34  1  0.40737391  0.24554493  0.25759110  1
  N  N35  1  0.90737443  0.25445512  0.74240896  1
