# generated using pymatgen
data_Ag2S
_symmetry_space_group_name_H-M   'P 1'
_cell_length_a   4.21613425
_cell_length_b   5.74476330
_cell_length_c   9.13756990
_cell_angle_alpha   90.00000000
_cell_angle_beta   142.39318016
_cell_angle_gamma   90.00000000
_symmetry_Int_Tables_number   1
_chemical_formula_structural   Ag2S
_chemical_formula_sum   'Ag4 S2'
_cell_volume   135.05714760
_cell_formula_units_Z   2
loop_
 _symmetry_equiv_pos_site_id
 _symmetry_equiv_pos_as_xyz
  1  'x, y, z'
loop_
 _atom_site_type_symbol
 _atom_site_label
 _atom_site_symmetry_multiplicity
 _atom_site_fract_x
 _atom_site_fract_y
 _atom_site_fract_z
 _atom_site_occupancy
  Ag  Ag0  1  0.09136588  0.94742745  0.00464981  1
  Ag  Ag1  1  0.95104497  0.53384831  0.48079747  1
  Ag  Ag2  1  0.04895903  0.03384931  0.51920453  1
  Ag  Ag3  1  0.90863212  0.44742645  0.99534919  1
  S  S4  1  0.72179018  0.26872423  0.20449637  1
  S  S5  1  0.27820782  0.76872523  0.79550263  1
