# generated using pymatgen
data_SbKr3F11
_symmetry_space_group_name_H-M   'P 1'
_cell_length_a   7.95438002
_cell_length_b   8.51248083
_cell_length_c   8.94583736
_cell_angle_alpha   110.78570874
_cell_angle_beta   115.98575049
_cell_angle_gamma   83.26813670
_symmetry_Int_Tables_number   1
_chemical_formula_structural   SbKr3F11
_chemical_formula_sum   'Sb2 Kr6 F22'
_cell_volume   508.53104282
_cell_formula_units_Z   2
loop_
 _symmetry_equiv_pos_site_id
 _symmetry_equiv_pos_as_xyz
  1  'x, y, z'
loop_
 _atom_site_type_symbol
 _atom_site_label
 _atom_site_symmetry_multiplicity
 _atom_site_fract_x
 _atom_site_fract_y
 _atom_site_fract_z
 _atom_site_occupancy
  Sb  Sb0  1  0.28863270  0.67843188  0.21970575  1
  Sb  Sb1  1  0.71136730  0.32156812  0.78029425  1
  Kr  Kr2  1  0.68626600  0.32575581  0.26990538  1
  Kr  Kr3  1  0.31373400  0.67424419  0.73009462  1
  Kr  Kr4  1  0.22892423  0.16426164  0.22036654  1
  Kr  Kr5  1  0.77107577  0.83573836  0.77963346  1
  Kr  Kr6  1  0.80747285  0.85248940  0.29231265  1
  Kr  Kr7  1  0.19252715  0.14751060  0.70768735  1
  F  F8  1  0.98025303  0.11601635  0.14806769  1
  F  F9  1  0.01974697  0.88398365  0.85193231  1
  F  F10  1  0.94060416  0.78869565  0.49805671  1
  F  F11  1  0.05939584  0.21130435  0.50194329  1
  F  F12  1  0.67800582  0.92335391  0.09067650  1
  F  F13  1  0.32199418  0.07664609  0.90932350  1
  F  F14  1  0.25774340  0.88669628  0.37680728  1
  F  F15  1  0.74225660  0.11330372  0.62319272  1
  F  F16  1  0.45579675  0.31786578  0.61906844  1
  F  F17  1  0.54420325  0.68213422  0.38093156  1
  F  F18  1  0.63601031  0.20293008  0.88677295  1
  F  F19  1  0.36398969  0.79706992  0.11322705  1
  F  F20  1  0.96360900  0.31860515  0.94049940  1
  F  F21  1  0.03639100  0.68139485  0.05950060  1
  F  F22  1  0.67392576  0.52945607  0.93206083  1
  F  F23  1  0.32607424  0.47054393  0.06793917  1
  F  F24  1  0.48639830  0.80707181  0.69381064  1
  F  F25  1  0.51360170  0.19292819  0.30618936  1
  F  F26  1  0.77911884  0.43864016  0.66804535  1
  F  F27  1  0.22088116  0.56135984  0.33195465  1
  F  F28  1  0.14473220  0.55764848  0.74409108  1
  F  F29  1  0.85526780  0.44235152  0.25590892  1
