# generated using pymatgen
data_UTeO5
_symmetry_space_group_name_H-M   'P 1'
_cell_length_a   10.17408576
_cell_length_b   5.34589822
_cell_length_c   7.78661763
_cell_angle_alpha   90.00000000
_cell_angle_beta   90.00000000
_cell_angle_gamma   90.00000000
_symmetry_Int_Tables_number   1
_chemical_formula_structural   UTeO5
_chemical_formula_sum   'U4 Te4 O20'
_cell_volume   423.51122813
_cell_formula_units_Z   4
loop_
 _symmetry_equiv_pos_site_id
 _symmetry_equiv_pos_as_xyz
  1  'x, y, z'
loop_
 _atom_site_type_symbol
 _atom_site_label
 _atom_site_symmetry_multiplicity
 _atom_site_fract_x
 _atom_site_fract_y
 _atom_site_fract_z
 _atom_site_occupancy
  U  U0  1  0.51406518  0.96829418  0.00659745  1
  U  U1  1  0.48593482  0.03170582  0.50659745  1
  U  U2  1  0.98593482  0.96829418  0.50659745  1
  U  U3  1  0.01406518  0.03170582  0.00659745  1
  Te  Te4  1  0.75016142  0.62815520  0.25631076  1
  Te  Te5  1  0.24983858  0.37184480  0.75631076  1
  Te  Te6  1  0.74983858  0.62815520  0.75631076  1
  Te  Te7  1  0.25016142  0.37184480  0.25631076  1
  O  O8  1  0.71270091  0.73231574  0.00630753  1
  O  O9  1  0.28729909  0.26768426  0.50630753  1
  O  O10  1  0.78729909  0.73231574  0.50630753  1
  O  O11  1  0.21270091  0.26768426  0.00630753  1
  O  O12  1  0.60240598  0.84536888  0.28007988  1
  O  O13  1  0.39759402  0.15463112  0.78007988  1
  O  O14  1  0.89759402  0.84536888  0.78007988  1
  O  O15  1  0.10240598  0.15463112  0.28007988  1
  O  O16  1  0.89436983  0.85472491  0.23300320  1
  O  O17  1  0.10563017  0.14527509  0.73300320  1
  O  O18  1  0.60563017  0.85472491  0.73300320  1
  O  O19  1  0.39436983  0.14527509  0.23300320  1
  O  O20  1  0.11496129  0.75540535  0.01115377  1
  O  O21  1  0.88503871  0.24459465  0.51115377  1
  O  O22  1  0.38503871  0.75540535  0.51115377  1
  O  O23  1  0.61496129  0.24459465  0.01115377  1
  O  O24  1  0.08660050  0.68730342  0.50254942  1
  O  O25  1  0.91339950  0.31269658  0.00254942  1
  O  O26  1  0.41339950  0.68730342  0.00254942  1
  O  O27  1  0.58660050  0.31269658  0.50254942  1
