# generated using pymatgen
data_Na2CO3
_symmetry_space_group_name_H-M   'P 1'
_cell_length_a   5.26440270
_cell_length_b   5.12077734
_cell_length_c   5.92174490
_cell_angle_alpha   101.29461330
_cell_angle_beta   89.99958588
_cell_angle_gamma   120.93431114
_symmetry_Int_Tables_number   1
_chemical_formula_structural   Na2CO3
_chemical_formula_sum   'Na4 C2 O6'
_cell_volume   133.31302737
_cell_formula_units_Z   2
loop_
 _symmetry_equiv_pos_site_id
 _symmetry_equiv_pos_as_xyz
  1  'x, y, z'
loop_
 _atom_site_type_symbol
 _atom_site_label
 _atom_site_symmetry_multiplicity
 _atom_site_fract_x
 _atom_site_fract_y
 _atom_site_fract_z
 _atom_site_occupancy
  Na  Na0  1  0.66907534  0.33813434  0.74078507  1
  Na  Na1  1  0.33092466  0.66186566  0.25921493  1
  Na  Na2  1  -0.00000000  -0.00000000  0.00000000  1
  Na  Na3  1  -0.00000000  -0.00000000  0.50000000  1
  C  C4  1  0.33597300  0.67194472  0.75072194  1
  C  C5  1  0.66402700  0.32805528  0.24927806  1
  O  O6  1  0.21180692  0.42361969  0.83262606  1
  O  O7  1  0.38968889  0.20308043  0.29179268  1
  O  O8  1  0.18661174  0.79691604  0.70821165  1
  O  O9  1  0.81338826  0.20308396  0.29178835  1
  O  O10  1  0.61031111  0.79691957  0.70820732  1
  O  O11  1  0.78819308  0.57638031  0.16737394  1
