# generated using pymatgen
data_Hg3SO6
_symmetry_space_group_name_H-M   'P 1'
_cell_length_a   7.09741116
_cell_length_b   7.09738600
_cell_length_c   10.11514364
_cell_angle_alpha   89.99730550
_cell_angle_beta   90.00205308
_cell_angle_gamma   119.99968444
_symmetry_Int_Tables_number   1
_chemical_formula_structural   Hg3SO6
_chemical_formula_sum   'Hg9 S3 O18'
_cell_volume   441.26802297
_cell_formula_units_Z   3
loop_
 _symmetry_equiv_pos_site_id
 _symmetry_equiv_pos_as_xyz
  1  'x, y, z'
loop_
 _atom_site_type_symbol
 _atom_site_label
 _atom_site_symmetry_multiplicity
 _atom_site_fract_x
 _atom_site_fract_y
 _atom_site_fract_z
 _atom_site_occupancy
  Hg  Hg0  1  0.50471525  0.19000961  0.67745016  1
  Hg  Hg1  1  0.68529392  0.49526389  0.34411170  1
  Hg  Hg2  1  0.80998237  0.31471942  0.01076246  1
  Hg  Hg3  1  0.29609487  0.29773375  0.99486903  1
  Hg  Hg4  1  0.00162404  0.70388539  0.66155901  1
  Hg  Hg5  1  0.70225942  -0.00162678  0.32822522  1
  Hg  Hg6  1  0.49904652  0.68756607  0.64559887  1
  Hg  Hg7  1  0.18851353  0.50095302  0.31229276  1
  Hg  Hg8  1  0.31246601  0.81149398  0.97894915  1
  S  S9  1  0.77861424  0.77120373  0.99240717  1
  S  S10  1  0.99257183  0.22138427  0.65907702  1
  S  S11  1  0.22880675  0.00740738  0.32573746  1
  O  O12  1  0.13782401  0.39158830  0.56355974  1
  O  O13  1  0.25372959  0.86216276  0.23020342  1
  O  O14  1  0.60846307  0.74631977  0.89687569  1
  O  O15  1  0.79714288  0.05941948  0.58589409  1
  O  O16  1  0.26226261  0.20286238  0.25256048  1
  O  O17  1  0.94059180  0.73773517  0.91923812  1
  O  O18  1  0.32956587  0.84972912  0.71186946  1
  O  O19  1  0.52016183  0.67040824  0.37854660  1
  O  O20  1  0.15025238  0.47983910  0.04519283  1
  O  O21  1  0.92515382  0.32409472  0.76228179  1
  O  O22  1  0.39896844  0.07481966  0.42891621  1
  O  O23  1  0.67585290  0.60103378  0.09558746  1
  O  O24  1  0.48285828  0.15547399  0.94524746  1
  O  O25  1  0.84455872  0.32741266  0.27859589  1
  O  O26  1  0.67259815  0.51713780  0.61193193  1
  O  O27  1  0.88111751  0.98774208  0.05465885  1
  O  O28  1  0.01225633  0.89333778  0.38798125  1
  O  O29  1  0.10665706  0.11888849  0.72131672  1
