# generated using pymatgen
data_SrGd2O4
_symmetry_space_group_name_H-M   'P 1'
_cell_length_a   3.46932115
_cell_length_b   10.14486976
_cell_length_c   12.06768151
_cell_angle_alpha   90.00000000
_cell_angle_beta   90.00000000
_cell_angle_gamma   90.00000000
_symmetry_Int_Tables_number   1
_chemical_formula_structural   SrGd2O4
_chemical_formula_sum   'Sr4 Gd8 O16'
_cell_volume   424.73184032
_cell_formula_units_Z   4
loop_
 _symmetry_equiv_pos_site_id
 _symmetry_equiv_pos_as_xyz
  1  'x, y, z'
loop_
 _atom_site_type_symbol
 _atom_site_label
 _atom_site_symmetry_multiplicity
 _atom_site_fract_x
 _atom_site_fract_y
 _atom_site_fract_z
 _atom_site_occupancy
  Sr  Sr0  1  0.75000000  0.74899771  0.14902976  1
  Sr  Sr1  1  0.25000000  0.25100229  0.85097024  1
  Sr  Sr2  1  0.75000000  0.24899771  0.35097024  1
  Sr  Sr3  1  0.25000000  0.75100229  0.64902976  1
  Gd  Gd4  1  0.25000000  0.42472986  0.11208575  1
  Gd  Gd5  1  0.75000000  0.57527014  0.88791425  1
  Gd  Gd6  1  0.25000000  0.92472986  0.38791425  1
  Gd  Gd7  1  0.75000000  0.07527014  0.61208575  1
  Gd  Gd8  1  0.75000000  0.08144201  0.11144747  1
  Gd  Gd9  1  0.25000000  0.91855799  0.88855253  1
  Gd  Gd10  1  0.75000000  0.58144201  0.38855253  1
  Gd  Gd11  1  0.25000000  0.41855799  0.61144747  1
  O  O12  1  0.25000000  0.42675881  0.42095255  1
  O  O13  1  0.75000000  0.57324119  0.57904745  1
  O  O14  1  0.25000000  0.92675881  0.07904745  1
  O  O15  1  0.75000000  0.07324119  0.92095255  1
  O  O16  1  0.25000000  0.51100716  0.78363302  1
  O  O17  1  0.75000000  0.48899284  0.21636698  1
  O  O18  1  0.25000000  0.01100716  0.71636698  1
  O  O19  1  0.75000000  0.98899284  0.28363302  1
  O  O20  1  0.25000000  0.12964926  0.48101769  1
  O  O21  1  0.75000000  0.87035074  0.51898231  1
  O  O22  1  0.25000000  0.62964926  0.01898231  1
  O  O23  1  0.75000000  0.37035074  0.98101769  1
  O  O24  1  0.75000000  0.28608766  0.68024360  1
  O  O25  1  0.25000000  0.71391234  0.31975640  1
  O  O26  1  0.75000000  0.78608766  0.81975640  1
  O  O27  1  0.25000000  0.21391234  0.18024360  1
