# generated using pymatgen
data_ZrTlF5
_symmetry_space_group_name_H-M   'P 1'
_cell_length_a   7.94454852
_cell_length_b   7.40382090
_cell_length_c   7.94105300
_cell_angle_alpha   63.53682745
_cell_angle_beta   90.00000000
_cell_angle_gamma   90.00000000
_symmetry_Int_Tables_number   1
_chemical_formula_structural   ZrTlF5
_chemical_formula_sum   'Zr4 Tl4 F20'
_cell_volume   418.15131829
_cell_formula_units_Z   4
loop_
 _symmetry_equiv_pos_site_id
 _symmetry_equiv_pos_as_xyz
  1  'x, y, z'
loop_
 _atom_site_type_symbol
 _atom_site_label
 _atom_site_symmetry_multiplicity
 _atom_site_fract_x
 _atom_site_fract_y
 _atom_site_fract_z
 _atom_site_occupancy
  Zr  Zr0  1  0.83727508  0.50889863  0.66096728  1
  Zr  Zr1  1  0.33727508  0.49110137  0.83903272  1
  Zr  Zr2  1  0.16272492  0.49110137  0.33903272  1
  Zr  Zr3  1  0.66272492  0.50889863  0.16096728  1
  Tl  Tl4  1  0.47012933  0.92866453  0.29966543  1
  Tl  Tl5  1  0.97012933  0.07133547  0.20033457  1
  Tl  Tl6  1  0.52987067  0.07133547  0.70033457  1
  Tl  Tl7  1  0.02987067  0.92866453  0.79966543  1
  F  F8  1  0.06496590  0.49451056  0.79217886  1
  F  F9  1  0.56496590  0.50548944  0.70782114  1
  F  F10  1  0.93503410  0.50548944  0.20782114  1
  F  F11  1  0.43503410  0.49451056  0.29217886  1
  F  F12  1  0.79263465  0.80232995  0.58998390  1
  F  F13  1  0.29263465  0.19767005  0.91001610  1
  F  F14  1  0.20736535  0.19767005  0.41001610  1
  F  F15  1  0.70736535  0.80232995  0.08998390  1
  F  F16  1  0.20931882  0.78441566  0.16107257  1
  F  F17  1  0.70931882  0.21558434  0.33892743  1
  F  F18  1  0.79068118  0.21558434  0.83892743  1
  F  F19  1  0.29068118  0.78441566  0.66107257  1
  F  F20  1  0.71009510  0.51353685  0.43240773  1
  F  F21  1  0.21009510  0.48646315  0.06759227  1
  F  F22  1  0.28990490  0.48646315  0.56759227  1
  F  F23  1  0.78990490  0.51353685  0.93240773  1
  F  F24  1  0.49395906  0.67779418  0.92915746  1
  F  F25  1  0.99395906  0.32220582  0.57084254  1
  F  F26  1  0.50604094  0.32220582  0.07084254  1
  F  F27  1  0.00604094  0.67779418  0.42915746  1
