# generated using pymatgen
data_La(SbO3)3
_symmetry_space_group_name_H-M   'P 1'
_cell_length_a   5.51991590
_cell_length_b   5.51991590
_cell_length_c   11.81003255
_cell_angle_alpha   90.00000000
_cell_angle_beta   90.00000000
_cell_angle_gamma   107.18975851
_symmetry_Int_Tables_number   1
_chemical_formula_structural   La(SbO3)3
_chemical_formula_sum   'La2 Sb6 O18'
_cell_volume   343.77158815
_cell_formula_units_Z   2
loop_
 _symmetry_equiv_pos_site_id
 _symmetry_equiv_pos_as_xyz
  1  'x, y, z'
loop_
 _atom_site_type_symbol
 _atom_site_label
 _atom_site_symmetry_multiplicity
 _atom_site_fract_x
 _atom_site_fract_y
 _atom_site_fract_z
 _atom_site_occupancy
  La  La0  1  0.75540068  0.24459932  0.75000000  1
  La  La1  1  0.24459932  0.75540068  0.25000000  1
  Sb  Sb2  1  0.12186721  0.87813279  0.90832527  1
  Sb  Sb3  1  0.87813279  0.12186721  0.40832527  1
  Sb  Sb4  1  0.87813279  0.12186721  0.09167473  1
  Sb  Sb5  1  0.12186721  0.87813279  0.59167473  1
  Sb  Sb6  1  0.50000000  0.50000000  0.00000000  1
  Sb  Sb7  1  0.50000000  0.50000000  0.50000000  1
  O  O8  1  0.94019258  0.05980742  0.25000000  1
  O  O9  1  0.05980742  0.94019258  0.75000000  1
  O  O10  1  0.10390743  0.89609257  0.07410795  1
  O  O11  1  0.89609257  0.10390743  0.57410795  1
  O  O12  1  0.89609257  0.10390743  0.92589205  1
  O  O13  1  0.10390743  0.89609257  0.42589205  1
  O  O14  1  0.33666007  0.66333993  0.88431094  1
  O  O15  1  0.66333993  0.33666007  0.38431094  1
  O  O16  1  0.41674370  0.19160939  0.59834343  1
  O  O17  1  0.58325630  0.80839061  0.09834343  1
  O  O18  1  0.19160939  0.41674370  0.40165657  1
  O  O19  1  0.80839061  0.58325630  0.90165657  1
  O  O20  1  0.58325630  0.80839061  0.40165657  1
  O  O21  1  0.41674370  0.19160939  0.90165657  1
  O  O22  1  0.80839061  0.58325630  0.59834343  1
  O  O23  1  0.19160939  0.41674370  0.09834343  1
  O  O24  1  0.33666007  0.66333993  0.61568906  1
  O  O25  1  0.66333993  0.33666007  0.11568906  1
