# generated using pymatgen
data_Sr(LaSe2)2
_symmetry_space_group_name_H-M   'P 1'
_cell_length_a   7.93847537
_cell_length_b   7.93847522
_cell_length_c   7.93847549
_cell_angle_alpha   109.29875271
_cell_angle_beta   109.81671560
_cell_angle_gamma   109.29875146
_symmetry_Int_Tables_number   1
_chemical_formula_structural   Sr(LaSe2)2
_chemical_formula_sum   'Sr2 La4 Se8'
_cell_volume   385.10356294
_cell_formula_units_Z   2
loop_
 _symmetry_equiv_pos_site_id
 _symmetry_equiv_pos_as_xyz
  1  'x, y, z'
loop_
 _atom_site_type_symbol
 _atom_site_label
 _atom_site_symmetry_multiplicity
 _atom_site_fract_x
 _atom_site_fract_y
 _atom_site_fract_z
 _atom_site_occupancy
  Sr  Sr0  1  0.12500000  0.75000000  0.87500000  1
  Sr  Sr1  1  0.37500000  0.25000000  0.62500000  1
  La  La2  1  0.25000000  0.62861789  0.37861789  1
  La  La3  1  0.75000000  0.87138211  0.12138211  1
  La  La4  1  0.62138211  0.37138211  0.25000000  1
  La  La5  1  0.87861789  0.12861789  0.75000000  1
  Se  Se6  1  0.50661702  0.99919321  0.35644120  1
  Se  Se7  1  0.14275301  0.15017783  0.14355880  1
  Se  Se8  1  0.35724699  0.50080679  0.00742482  1
  Se  Se9  1  0.50742482  0.00080679  0.85724699  1
  Se  Se10  1  0.64355880  0.65017783  0.64275301  1
  Se  Se11  1  0.99257518  0.84982217  0.49338298  1
  Se  Se12  1  0.85644120  0.49919321  0.00661702  1
  Se  Se13  1  0.99338298  0.34982217  0.49257518  1
