# generated using pymatgen
data_Sr3Te4O11
_symmetry_space_group_name_H-M   'P 1'
_cell_length_a   7.53338535
_cell_length_b   9.27167745
_cell_length_c   9.58677863
_cell_angle_alpha   98.00186374
_cell_angle_beta   109.72044131
_cell_angle_gamma   102.08641528
_symmetry_Int_Tables_number   1
_chemical_formula_structural   Sr3Te4O11
_chemical_formula_sum   'Sr6 Te8 O22'
_cell_volume   600.13117303
_cell_formula_units_Z   2
loop_
 _symmetry_equiv_pos_site_id
 _symmetry_equiv_pos_as_xyz
  1  'x, y, z'
loop_
 _atom_site_type_symbol
 _atom_site_label
 _atom_site_symmetry_multiplicity
 _atom_site_fract_x
 _atom_site_fract_y
 _atom_site_fract_z
 _atom_site_occupancy
  Sr  Sr0  1  0.47569279  0.33681368  0.32501567  1
  Sr  Sr1  1  0.04426202  0.37633691  0.53038080  1
  Sr  Sr2  1  0.48875993  0.82388684  0.82634818  1
  Sr  Sr3  1  0.31737538  0.21464686  0.88627182  1
  Sr  Sr4  1  0.87226598  0.76552956  0.59081621  1
  Sr  Sr5  1  0.88565961  0.25336811  0.09156852  1
  Te  Te6  1  0.10082627  0.93252778  0.00760410  1
  Te  Te7  1  0.19859703  0.54895887  0.98397096  1
  Te  Te8  1  0.63518823  0.98989381  0.25356469  1
  Te  Te9  1  0.26060467  0.65794824  0.40912755  1
  Te  Te10  1  0.72626219  0.60085989  0.16348889  1
  Te  Te11  1  0.68195475  0.10405699  0.66692201  1
  Te  Te12  1  0.67907100  0.48486523  0.74957730  1
  Te  Te13  1  0.16261557  0.04134959  0.43304190  1
  O  O14  1  0.73864913  0.19773884  0.33570408  1
  O  O15  1  0.13171986  0.19144411  0.32392886  1
  O  O16  1  0.38233550  0.52505183  0.50948952  1
  O  O17  1  0.86787462  0.93227675  0.37272373  1
  O  O18  1  0.69768591  0.98680334  0.08306446  1
  O  O19  1  0.15117589  0.14343985  0.60885187  1
  O  O20  1  0.78425654  0.47710835  0.59947974  1
  O  O21  1  0.47534840  0.15321146  0.51664564  1
  O  O22  1  0.88612688  0.43563981  0.89939309  1
  O  O23  1  0.34597358  0.07953373  0.11450018  1
  O  O24  1  0.57672087  0.11256591  0.81699032  1
  O  O25  1  0.01559133  0.51092814  0.30156702  1
  O  O26  1  0.75526188  0.69493112  0.81740608  1
  O  O27  1  0.60548321  0.89393498  0.59978611  1
  O  O28  1  0.18769587  0.73412492  0.56593420  1
  O  O29  1  0.17317366  0.85519389  0.85091074  1
  O  O30  1  0.97917542  0.06512058  0.90654235  1
  O  O31  1  0.21123270  0.44821465  0.80800157  1
  O  O32  1  0.22985618  0.39841384  0.09244769  1
  O  O33  1  0.49321592  0.65869223  0.04525019  1
  O  O34  1  0.62307571  0.39317545  0.08052718  1
  O  O35  1  0.66413349  0.60311485  0.33405178  1
