# generated using pymatgen
data_TaBiO4
_symmetry_space_group_name_H-M   'P 1'
_cell_length_a   4.97981121
_cell_length_b   5.66235001
_cell_length_c   11.79260671
_cell_angle_alpha   90.00000000
_cell_angle_beta   90.00000000
_cell_angle_gamma   90.00000000
_symmetry_Int_Tables_number   1
_chemical_formula_structural   TaBiO4
_chemical_formula_sum   'Ta4 Bi4 O16'
_cell_volume   332.52125004
_cell_formula_units_Z   4
loop_
 _symmetry_equiv_pos_site_id
 _symmetry_equiv_pos_as_xyz
  1  'x, y, z'
loop_
 _atom_site_type_symbol
 _atom_site_label
 _atom_site_symmetry_multiplicity
 _atom_site_fract_x
 _atom_site_fract_y
 _atom_site_fract_z
 _atom_site_occupancy
  Ta  Ta0  1  0.75000000  0.86596378  0.25000000  1
  Ta  Ta1  1  0.75000000  0.63403622  0.75000000  1
  Ta  Ta2  1  0.25000000  0.13403622  0.75000000  1
  Ta  Ta3  1  0.25000000  0.36596378  0.25000000  1
  Bi  Bi4  1  0.22383586  0.75000000  0.50000000  1
  Bi  Bi5  1  0.27616414  0.75000000  0.00000000  1
  Bi  Bi6  1  0.77616414  0.25000000  0.50000000  1
  Bi  Bi7  1  0.72383586  0.25000000  0.00000000  1
  O  O8  1  0.08722104  0.08356931  0.59783529  1
  O  O9  1  0.08722104  0.41643069  0.40216471  1
  O  O10  1  0.41277896  0.08356931  0.90216471  1
  O  O11  1  0.41277896  0.41643069  0.09783529  1
  O  O12  1  0.91277896  0.91643069  0.40216471  1
  O  O13  1  0.91277896  0.58356931  0.59783529  1
  O  O14  1  0.58722104  0.91643069  0.09783529  1
  O  O15  1  0.58722104  0.58356931  0.90216471  1
  O  O16  1  0.50660235  0.14495108  0.30517774  1
  O  O17  1  0.50660235  0.35504892  0.69482226  1
  O  O18  1  0.99339765  0.14495108  0.19482226  1
  O  O19  1  0.99339765  0.35504892  0.80517774  1
  O  O20  1  0.49339765  0.85504892  0.69482226  1
  O  O21  1  0.49339765  0.64495108  0.30517774  1
  O  O22  1  0.00660235  0.85504892  0.80517774  1
  O  O23  1  0.00660235  0.64495108  0.19482226  1
