# generated using pymatgen
data_K2Re3CS5N
_symmetry_space_group_name_H-M   'P 1'
_cell_length_a   9.25553883
_cell_length_b   10.24013709
_cell_length_c   11.37908298
_cell_angle_alpha   90.00000000
_cell_angle_beta   90.00000000
_cell_angle_gamma   90.00000000
_symmetry_Int_Tables_number   1
_chemical_formula_structural   K2Re3CS5N
_chemical_formula_sum   'K8 Re12 C4 S20 N4'
_cell_volume   1078.48657262
_cell_formula_units_Z   4
loop_
 _symmetry_equiv_pos_site_id
 _symmetry_equiv_pos_as_xyz
  1  'x, y, z'
loop_
 _atom_site_type_symbol
 _atom_site_label
 _atom_site_symmetry_multiplicity
 _atom_site_fract_x
 _atom_site_fract_y
 _atom_site_fract_z
 _atom_site_occupancy
  K  K0  1  0.04644891  0.75000000  0.25000000  1
  K  K1  1  0.04644891  0.75000000  0.75000000  1
  K  K2  1  0.22335741  0.07198608  -0.00000000  1
  K  K3  1  0.22335741  0.42801392  0.50000000  1
  K  K4  1  0.77664259  0.57198608  0.50000000  1
  K  K5  1  0.77664259  0.92801392  -0.00000000  1
  K  K6  1  0.95355109  0.25000000  0.25000000  1
  K  K7  1  0.95355109  0.25000000  0.75000000  1
  Re  Re8  1  0.33659535  0.60362430  -0.00000000  1
  Re  Re9  1  0.33659535  0.89637570  0.50000000  1
  Re  Re10  1  0.41856242  0.10632909  0.38547475  1
  Re  Re11  1  0.41856242  0.10632909  0.61452525  1
  Re  Re12  1  0.41856242  0.39367091  0.11452525  1
  Re  Re13  1  0.41856242  0.39367091  0.88547475  1
  Re  Re14  1  0.58143758  0.60632909  0.11452525  1
  Re  Re15  1  0.58143758  0.60632909  0.88547475  1
  Re  Re16  1  0.58143758  0.89367091  0.38547475  1
  Re  Re17  1  0.58143758  0.89367091  0.61452525  1
  Re  Re18  1  0.66340465  0.10362430  0.50000000  1
  Re  Re19  1  0.66340465  0.39637570  -0.00000000  1
  C  C20  1  0.16554532  0.76153979  0.50000000  1
  C  C21  1  0.16554532  0.73846021  -0.00000000  1
  C  C22  1  0.83445468  0.23846021  0.50000000  1
  C  C23  1  0.83445468  0.26153979  -0.00000000  1
  S  S24  1  0.19716946  0.09391305  0.50000000  1
  S  S25  1  0.19716946  0.40608695  -0.00000000  1
  S  S26  1  0.28817302  0.25000000  0.25000000  1
  S  S27  1  0.28817302  0.25000000  0.75000000  1
  S  S28  1  0.34998234  0.59248564  0.78724634  1
  S  S29  1  0.34998234  0.90751436  0.71275366  1
  S  S30  1  0.34998234  0.59248564  0.21275366  1
  S  S31  1  0.34998234  0.90751436  0.28724634  1
  S  S32  1  0.49163823  0.71059550  0.50000000  1
  S  S33  1  0.49163823  0.78940450  -0.00000000  1
  S  S34  1  0.50836177  0.21059550  -0.00000000  1
  S  S35  1  0.50836177  0.28940450  0.50000000  1
  S  S36  1  0.65001766  0.09248564  0.28724634  1
  S  S37  1  0.65001766  0.09248564  0.71275366  1
  S  S38  1  0.65001766  0.40751436  0.78724634  1
  S  S39  1  0.65001766  0.40751436  0.21275366  1
  S  S40  1  0.71182698  0.75000000  0.25000000  1
  S  S41  1  0.71182698  0.75000000  0.75000000  1
  S  S42  1  0.80283054  0.59391305  -0.00000000  1
  S  S43  1  0.80283054  0.90608695  0.50000000  1
  N  N44  1  0.07884566  0.82249158  -0.00000000  1
  N  N45  1  0.07884566  0.67750842  0.50000000  1
  N  N46  1  0.92115434  0.17750842  -0.00000000  1
  N  N47  1  0.92115434  0.32249158  0.50000000  1
