# generated using pymatgen
data_RbTaO3
_symmetry_space_group_name_H-M   'P 1'
_cell_length_a   6.43027102
_cell_length_b   6.43026992
_cell_length_c   8.16808936
_cell_angle_alpha   86.24770949
_cell_angle_beta   86.24770814
_cell_angle_gamma   83.07055500
_symmetry_Int_Tables_number   1
_chemical_formula_structural   RbTaO3
_chemical_formula_sum   'Rb4 Ta4 O12'
_cell_volume   333.98647388
_cell_formula_units_Z   4
loop_
 _symmetry_equiv_pos_site_id
 _symmetry_equiv_pos_as_xyz
  1  'x, y, z'
loop_
 _atom_site_type_symbol
 _atom_site_label
 _atom_site_symmetry_multiplicity
 _atom_site_fract_x
 _atom_site_fract_y
 _atom_site_fract_z
 _atom_site_occupancy
  Rb  Rb0  1  0.66204933  0.66204933  0.76124604  1
  Rb  Rb1  1  0.33795067  0.33795067  0.23875396  1
  Rb  Rb2  1  0.23439784  0.76560216  0.50000000  1
  Rb  Rb3  1  0.76560216  0.23439784  0.50000000  1
  Ta  Ta4  1  0.18939383  0.81060617  0.00000000  1
  Ta  Ta5  1  0.81060617  0.18939383  -0.00000000  1
  Ta  Ta6  1  0.73949046  0.73949046  0.19646896  1
  Ta  Ta7  1  0.26050954  0.26050954  0.80353104  1
  O  O8  1  0.12288695  0.12288695  0.05203341  1
  O  O9  1  0.87711305  0.87711305  0.94796659  1
  O  O10  1  0.77347509  0.45344587  0.10295968  1
  O  O11  1  0.54655413  0.22652491  0.89704032  1
  O  O12  1  0.22652491  0.54655413  0.89704032  1
  O  O13  1  0.45344587  0.77347509  0.10295968  1
  O  O14  1  0.33097539  0.33097539  0.58954317  1
  O  O15  1  0.66902461  0.66902461  0.41045683  1
  O  O16  1  0.28689255  0.95236455  0.78862552  1
  O  O17  1  0.04763545  0.71310745  0.21137448  1
  O  O18  1  0.71310745  0.04763545  0.21137448  1
  O  O19  1  0.95236455  0.28689255  0.78862552  1
