# generated using pymatgen
data_La3TaO7
_symmetry_space_group_name_H-M   'P 1'
_cell_length_a   6.75467841
_cell_length_b   6.75467841
_cell_length_c   7.77824973
_cell_angle_alpha   90.00000000
_cell_angle_beta   90.00000000
_cell_angle_gamma   111.75412145
_symmetry_Int_Tables_number   1
_chemical_formula_structural   La3TaO7
_chemical_formula_sum   'La6 Ta2 O14'
_cell_volume   329.61384549
_cell_formula_units_Z   2
loop_
 _symmetry_equiv_pos_site_id
 _symmetry_equiv_pos_as_xyz
  1  'x, y, z'
loop_
 _atom_site_type_symbol
 _atom_site_label
 _atom_site_symmetry_multiplicity
 _atom_site_fract_x
 _atom_site_fract_y
 _atom_site_fract_z
 _atom_site_occupancy
  La  La0  1  0.00000000  0.00000000  -0.00000000  1
  La  La1  1  0.00000000  0.00000000  0.50000000  1
  La  La2  1  0.47577579  0.93056529  0.75000000  1
  La  La3  1  0.52422421  0.06943471  0.25000000  1
  La  La4  1  0.93056529  0.47577579  0.75000000  1
  La  La5  1  0.06943471  0.52422421  0.25000000  1
  Ta  Ta6  1  0.50000000  0.50000000  -0.00000000  1
  Ta  Ta7  1  0.50000000  0.50000000  0.50000000  1
  O  O8  1  0.84600934  0.10625866  0.75000000  1
  O  O9  1  0.15399066  0.89374134  0.25000000  1
  O  O10  1  0.10625866  0.84600934  0.75000000  1
  O  O11  1  0.89374134  0.15399066  0.25000000  1
  O  O12  1  0.43876798  0.18986772  0.96745115  1
  O  O13  1  0.56123202  0.81013228  0.46745115  1
  O  O14  1  0.18986772  0.43876798  0.53254885  1
  O  O15  1  0.81013228  0.56123202  0.03254885  1
  O  O16  1  0.43754598  0.43754598  0.25000000  1
  O  O17  1  0.56245402  0.56245402  0.75000000  1
  O  O18  1  0.18986772  0.43876798  0.96745115  1
  O  O19  1  0.81013228  0.56123202  0.46745115  1
  O  O20  1  0.43876798  0.18986772  0.53254885  1
  O  O21  1  0.56123202  0.81013228  0.03254885  1
