# generated using pymatgen
data_SrTe3O8
_symmetry_space_group_name_H-M   'P 1'
_cell_length_a   6.85404138
_cell_length_b   6.85404138
_cell_length_c   6.77059248
_cell_angle_alpha   90.00000000
_cell_angle_beta   90.00000000
_cell_angle_gamma   90.00000000
_symmetry_Int_Tables_number   1
_chemical_formula_structural   SrTe3O8
_chemical_formula_sum   'Sr2 Te6 O16'
_cell_volume   318.06810298
_cell_formula_units_Z   2
loop_
 _symmetry_equiv_pos_site_id
 _symmetry_equiv_pos_as_xyz
  1  'x, y, z'
loop_
 _atom_site_type_symbol
 _atom_site_label
 _atom_site_symmetry_multiplicity
 _atom_site_fract_x
 _atom_site_fract_y
 _atom_site_fract_z
 _atom_site_occupancy
  Sr  Sr0  1  -0.00000000  0.00000000  0.25000000  1
  Sr  Sr1  1  -0.00000000  0.00000000  0.75000000  1
  Te  Te2  1  0.78245073  0.56394118  -0.00000000  1
  Te  Te3  1  0.56394118  0.21754927  0.50000000  1
  Te  Te4  1  0.43605882  0.78245073  0.50000000  1
  Te  Te5  1  0.21754927  0.43605882  -0.00000000  1
  Te  Te6  1  0.50000000  0.00000000  -0.00000000  1
  Te  Te7  1  -0.00000000  0.50000000  0.50000000  1
  O  O8  1  0.95457481  0.32312279  -0.00000000  1
  O  O9  1  0.32312279  0.04542519  0.50000000  1
  O  O10  1  0.67687721  0.95457481  0.50000000  1
  O  O11  1  0.04542519  0.67687721  -0.00000000  1
  O  O12  1  0.75438243  0.88073006  -0.00000000  1
  O  O13  1  0.88073006  0.24561757  0.50000000  1
  O  O14  1  0.11926994  0.75438243  0.50000000  1
  O  O15  1  0.24561757  0.11926994  -0.00000000  1
  O  O16  1  0.18555214  0.41034658  0.30526181  1
  O  O17  1  0.41034658  0.81444786  0.80526181  1
  O  O18  1  0.58965342  0.18555214  0.80526181  1
  O  O19  1  0.81444786  0.58965342  0.30526181  1
  O  O20  1  0.81444786  0.58965342  0.69473819  1
  O  O21  1  0.58965342  0.18555214  0.19473819  1
  O  O22  1  0.41034658  0.81444786  0.19473819  1
  O  O23  1  0.18555214  0.41034658  0.69473819  1
