# generated using pymatgen
data_Zn2SnO4
_symmetry_space_group_name_H-M   'P 1'
_cell_length_a   6.13402101
_cell_length_b   6.13402524
_cell_length_c   6.13401314
_cell_angle_alpha   121.38047847
_cell_angle_beta   118.74801682
_cell_angle_gamma   89.90353992
_symmetry_Int_Tables_number   1
_chemical_formula_structural   Zn2SnO4
_chemical_formula_sum   'Zn4 Sn2 O8'
_cell_volume   162.93413001
_cell_formula_units_Z   2
loop_
 _symmetry_equiv_pos_site_id
 _symmetry_equiv_pos_as_xyz
  1  'x, y, z'
loop_
 _atom_site_type_symbol
 _atom_site_label
 _atom_site_symmetry_multiplicity
 _atom_site_fract_x
 _atom_site_fract_y
 _atom_site_fract_z
 _atom_site_occupancy
  Zn  Zn0  1  0.89126510  0.14126740  0.74999871  1
  Zn  Zn1  1  0.10873490  0.85873302  0.25000166  1
  Zn  Zn2  1  0.49999992  0.50000007  0.50000004  1
  Zn  Zn3  1  0.49999998  0.00000000  0.00000003  1
  Sn  Sn4  1  0.00000005  0.49999999  0.50000000  1
  Sn  Sn5  1  0.49999996  0.49999996  -0.00000005  1
  O  O6  1  0.25207144  0.73496698  0.51710426  1
  O  O7  1  0.71786081  0.73496707  0.98289495  1
  O  O8  1  0.25055986  0.26738145  0.51681976  1
  O  O9  1  0.25056069  0.73374120  0.98318093  1
  O  O10  1  0.74943952  0.26625865  0.01681881  1
  O  O11  1  0.74944001  0.73261804  0.48317989  1
  O  O12  1  0.28213920  0.26503302  0.01710511  1
  O  O13  1  0.74792857  0.26503314  0.48289590  1
