# generated using pymatgen
data_Na3GdCl6
_symmetry_space_group_name_H-M   'P 1'
_cell_length_a   7.49983674
_cell_length_b   7.49983829
_cell_length_c   7.49983978
_cell_angle_alpha   55.68196961
_cell_angle_beta   55.68194308
_cell_angle_gamma   55.68197078
_symmetry_Int_Tables_number   1
_chemical_formula_structural   Na3GdCl6
_chemical_formula_sum   'Na3 Gd1 Cl6'
_cell_volume   268.40916562
_cell_formula_units_Z   1
loop_
 _symmetry_equiv_pos_site_id
 _symmetry_equiv_pos_as_xyz
  1  'x, y, z'
loop_
 _atom_site_type_symbol
 _atom_site_label
 _atom_site_symmetry_multiplicity
 _atom_site_fract_x
 _atom_site_fract_y
 _atom_site_fract_z
 _atom_site_occupancy
  Na  Na0  1  0.19522330  0.19522330  0.19522230  1
  Na  Na1  1  0.50000000  0.50000000  0.50000000  1
  Na  Na2  1  0.80477670  0.80477670  0.80477770  1
  Gd  Gd3  1  -0.00000000  -0.00000000  0.00000000  1
  Cl  Cl4  1  0.10823094  0.37725334  0.77550592  1
  Cl  Cl5  1  0.37725434  0.77550592  0.10822994  1
  Cl  Cl6  1  0.77550492  0.10823094  0.37725334  1
  Cl  Cl7  1  0.22449508  0.89176906  0.62274666  1
  Cl  Cl8  1  0.62274566  0.22449408  0.89177006  1
  Cl  Cl9  1  0.89176906  0.62274666  0.22449408  1
