# generated using pymatgen
data_Sm3GaO6
_symmetry_space_group_name_H-M   'P 1'
_cell_length_a   5.53254422
_cell_length_b   7.27667005
_cell_length_c   7.27667026
_cell_angle_alpha   102.81968869
_cell_angle_beta   90.00000000
_cell_angle_gamma   90.00000000
_symmetry_Int_Tables_number   1
_chemical_formula_structural   Sm3GaO6
_chemical_formula_sum   'Sm6 Ga2 O12'
_cell_volume   285.64555930
_cell_formula_units_Z   2
loop_
 _symmetry_equiv_pos_site_id
 _symmetry_equiv_pos_as_xyz
  1  'x, y, z'
loop_
 _atom_site_type_symbol
 _atom_site_label
 _atom_site_symmetry_multiplicity
 _atom_site_fract_x
 _atom_site_fract_y
 _atom_site_fract_z
 _atom_site_occupancy
  Sm  Sm0  1  0.07683227  0.60338655  0.39661345  1
  Sm  Sm1  1  0.57683227  0.39661345  0.60338655  1
  Sm  Sm2  1  0.03153745  0.08722158  0.29843072  1
  Sm  Sm3  1  0.53153745  0.91277842  0.70156928  1
  Sm  Sm4  1  0.03153745  0.70156928  0.91277842  1
  Sm  Sm5  1  0.53153745  0.29843072  0.08722158  1
  Ga  Ga6  1  0.49866535  0.80738261  0.19261739  1
  Ga  Ga7  1  0.99866535  0.19261739  0.80738261  1
  O  O8  1  0.82863950  0.78422037  0.21577963  1
  O  O9  1  0.32863950  0.21577963  0.78422037  1
  O  O10  1  0.36437564  0.95929436  0.04070564  1
  O  O11  1  0.86437564  0.04070564  0.95929436  1
  O  O12  1  0.30274281  0.32586292  0.35463415  1
  O  O13  1  0.80274281  0.67413708  0.64536585  1
  O  O14  1  0.30274281  0.64536585  0.67413708  1
  O  O15  1  0.80274281  0.35463415  0.32586292  1
  O  O16  1  0.82726886  0.41735575  0.89406183  1
  O  O17  1  0.32726886  0.58264425  0.10593817  1
  O  O18  1  0.82726886  0.10593817  0.58264425  1
  O  O19  1  0.32726886  0.89406183  0.41735575  1
