# generated using pymatgen
data_MgSiO3
_symmetry_space_group_name_H-M   'P 1'
_cell_length_a   8.79652390
_cell_length_b   5.16435374
_cell_length_c   9.37779770
_cell_angle_alpha   76.66814828
_cell_angle_beta   90.00000000
_cell_angle_gamma   90.00000000
_symmetry_Int_Tables_number   1
_chemical_formula_structural   MgSiO3
_chemical_formula_sum   'Mg8 Si8 O24'
_cell_volume   414.53715067
_cell_formula_units_Z   8
loop_
 _symmetry_equiv_pos_site_id
 _symmetry_equiv_pos_as_xyz
  1  'x, y, z'
loop_
 _atom_site_type_symbol
 _atom_site_label
 _atom_site_symmetry_multiplicity
 _atom_site_fract_x
 _atom_site_fract_y
 _atom_site_fract_z
 _atom_site_occupancy
  Mg  Mg0  1  0.65371943  0.96405241  0.25117758  1
  Mg  Mg1  1  0.15371943  0.53594759  0.74882242  1
  Mg  Mg2  1  0.34628057  0.03594759  0.74882242  1
  Mg  Mg3  1  0.84628057  0.46405241  0.25117758  1
  Mg  Mg4  1  0.01207115  0.95639431  0.25587273  1
  Mg  Mg5  1  0.51207115  0.54360569  0.74412727  1
  Mg  Mg6  1  0.98792885  0.04360569  0.74412727  1
  Mg  Mg7  1  0.48792885  0.45639431  0.25587273  1
  Si  Si8  1  0.34109611  0.25184721  0.04343445  1
  Si  Si9  1  0.84109611  0.24815279  0.95656555  1
  Si  Si10  1  0.65890389  0.74815279  0.95656555  1
  Si  Si11  1  0.15890389  0.75184721  0.04343445  1
  Si  Si12  1  0.83726838  0.67555838  0.55364685  1
  Si  Si13  1  0.33726838  0.82444162  0.44635315  1
  Si  Si14  1  0.16273162  0.32444162  0.44635315  1
  Si  Si15  1  0.66273162  0.17555838  0.55364685  1
  O  O16  1  0.80698212  0.34630669  0.60582243  1
  O  O17  1  0.30698212  0.15369331  0.39417757  1
  O  O18  1  0.19301788  0.65369331  0.39417757  1
  O  O19  1  0.69301788  0.84630669  0.60582243  1
  O  O20  1  0.51713689  0.25635149  0.63428396  1
  O  O21  1  0.01713689  0.24364851  0.36571604  1
  O  O22  1  0.48286311  0.74364851  0.36571604  1
  O  O23  1  0.98286311  0.75635149  0.63428396  1
  O  O24  1  0.66051464  0.24708287  0.37604214  1
  O  O25  1  0.16051464  0.25291713  0.62395786  1
  O  O26  1  0.33948536  0.75291713  0.62395786  1
  O  O27  1  0.83948536  0.74708287  0.37604214  1
  O  O28  1  0.21861166  0.01025948  0.10644402  1
  O  O29  1  0.71861166  0.48974052  0.89355598  1
  O  O30  1  0.78138834  0.98974052  0.89355598  1
  O  O31  1  0.28138834  0.51025948  0.10644402  1
  O  O32  1  0.33964440  0.32055768  0.86658771  1
  O  O33  1  0.83964440  0.17944232  0.13341229  1
  O  O34  1  0.66035560  0.67944232  0.13341229  1
  O  O35  1  0.16035560  0.82055768  0.86658771  1
  O  O36  1  0.50142561  0.19691685  0.12299223  1
  O  O37  1  0.00142561  0.30308315  0.87700777  1
  O  O38  1  0.49857439  0.80308315  0.87700777  1
  O  O39  1  0.99857439  0.69691685  0.12299223  1
