# generated using pymatgen
data_AsKrF7
_symmetry_space_group_name_H-M   'P 1'
_cell_length_a   10.16916338
_cell_length_b   5.10901351
_cell_length_c   10.59769624
_cell_angle_alpha   84.32660547
_cell_angle_beta   90.00000000
_cell_angle_gamma   90.00000000
_symmetry_Int_Tables_number   1
_chemical_formula_structural   AsKrF7
_chemical_formula_sum   'As4 Kr4 F28'
_cell_volume   547.89982290
_cell_formula_units_Z   4
loop_
 _symmetry_equiv_pos_site_id
 _symmetry_equiv_pos_as_xyz
  1  'x, y, z'
loop_
 _atom_site_type_symbol
 _atom_site_label
 _atom_site_symmetry_multiplicity
 _atom_site_fract_x
 _atom_site_fract_y
 _atom_site_fract_z
 _atom_site_occupancy
  As  As0  1  0.98811063  0.90423343  0.76939340  1
  As  As1  1  0.48811063  0.09576657  0.73060660  1
  As  As2  1  0.01188937  0.09576657  0.23060660  1
  As  As3  1  0.51188937  0.90423343  0.26939340  1
  Kr  Kr4  1  0.22660132  0.53232561  0.97056500  1
  Kr  Kr5  1  0.72660132  0.46767439  0.52943500  1
  Kr  Kr6  1  0.77339868  0.46767439  0.02943500  1
  Kr  Kr7  1  0.27339868  0.53232561  0.47056500  1
  F  F8  1  0.09409009  0.14902436  0.80649314  1
  F  F9  1  0.59409009  0.85097564  0.69350686  1
  F  F10  1  0.90590991  0.85097564  0.19350686  1
  F  F11  1  0.40590991  0.14902436  0.30649314  1
  F  F12  1  0.86885130  0.02175405  0.86544728  1
  F  F13  1  0.36885130  0.97824595  0.63455272  1
  F  F14  1  0.13114870  0.97824595  0.13455272  1
  F  F15  1  0.63114870  0.02175405  0.36544728  1
  F  F16  1  0.45495597  0.71228216  0.42457803  1
  F  F17  1  0.95495597  0.28771784  0.07542197  1
  F  F18  1  0.54504403  0.28771784  0.57542197  1
  F  F19  1  0.04504403  0.71228216  0.92457803  1
  F  F20  1  0.12083310  0.36549136  0.51928005  1
  F  F21  1  0.62083310  0.63450864  0.98071995  1
  F  F22  1  0.87916690  0.63450864  0.48071995  1
  F  F23  1  0.37916690  0.36549136  0.01928005  1
  F  F24  1  0.38457302  0.75470678  0.19673155  1
  F  F25  1  0.88457302  0.24529322  0.30326845  1
  F  F26  1  0.61542698  0.24529322  0.80326845  1
  F  F27  1  0.11542698  0.75470678  0.69673155  1
  F  F28  1  0.56869532  0.07683496  0.13361900  1
  F  F29  1  0.06869532  0.92316504  0.36638100  1
  F  F30  1  0.43130468  0.92316504  0.86638100  1
  F  F31  1  0.93130468  0.07683496  0.63361900  1
  F  F32  1  0.61098817  0.63426721  0.25241754  1
  F  F33  1  0.11098817  0.36573279  0.24758246  1
  F  F34  1  0.38901183  0.36573279  0.74758246  1
  F  F35  1  0.88901183  0.63426721  0.75241754  1
