# generated using pymatgen
data_K3PSe4
_symmetry_space_group_name_H-M   'P 1'
_cell_length_a   9.41161546
_cell_length_b   9.68282721
_cell_length_c   10.93015115
_cell_angle_alpha   90.00000000
_cell_angle_beta   90.00000000
_cell_angle_gamma   90.00000000
_symmetry_Int_Tables_number   1
_chemical_formula_structural   K3PSe4
_chemical_formula_sum   'K12 P4 Se16'
_cell_volume   996.07611015
_cell_formula_units_Z   4
loop_
 _symmetry_equiv_pos_site_id
 _symmetry_equiv_pos_as_xyz
  1  'x, y, z'
loop_
 _atom_site_type_symbol
 _atom_site_label
 _atom_site_symmetry_multiplicity
 _atom_site_fract_x
 _atom_site_fract_y
 _atom_site_fract_z
 _atom_site_occupancy
  K  K0  1  0.44075670  0.30382278  0.04454445  1
  K  K1  1  0.05924330  0.80382278  0.54454445  1
  K  K2  1  0.94075670  0.19617722  0.04454445  1
  K  K3  1  0.55924330  0.69617722  0.95545555  1
  K  K4  1  0.44075670  0.30382278  0.45545555  1
  K  K5  1  0.55924330  0.69617722  0.54454445  1
  K  K6  1  0.05924330  0.80382278  0.95545555  1
  K  K7  1  0.94075670  0.19617722  0.45545555  1
  K  K8  1  0.85747368  0.41850315  0.75000000  1
  K  K9  1  0.35747368  0.08149685  0.75000000  1
  K  K10  1  0.64252632  0.91850315  0.25000000  1
  K  K11  1  0.14252632  0.58149685  0.25000000  1
  P  P12  1  0.27651204  0.52290858  0.75000000  1
  P  P13  1  0.72348796  0.47709142  0.25000000  1
  P  P14  1  0.22348796  0.02290858  0.25000000  1
  P  P15  1  0.77651204  0.97709142  0.75000000  1
  Se  Se16  1  0.31310552  0.74798386  0.75000000  1
  Se  Se17  1  0.81310552  0.75201614  0.75000000  1
  Se  Se18  1  0.18689448  0.24798386  0.25000000  1
  Se  Se19  1  0.68689448  0.25201614  0.25000000  1
  Se  Se20  1  0.48420960  0.41347979  0.75000000  1
  Se  Se21  1  0.98420960  0.08652021  0.75000000  1
  Se  Se22  1  0.01579040  0.91347979  0.25000000  1
  Se  Se23  1  0.51579040  0.58652021  0.25000000  1
  Se  Se24  1  0.84283902  0.53291480  0.08318846  1
  Se  Se25  1  0.34283902  0.96708520  0.41681154  1
  Se  Se26  1  0.65716098  0.03291480  0.91681154  1
  Se  Se27  1  0.15716098  0.46708520  0.58318846  1
  Se  Se28  1  0.15716098  0.46708520  0.91681154  1
  Se  Se29  1  0.65716098  0.03291480  0.58318846  1
  Se  Se30  1  0.34283902  0.96708520  0.08318846  1
  Se  Se31  1  0.84283902  0.53291480  0.41681154  1
