# generated using pymatgen
data_Ta2FeO6
_symmetry_space_group_name_H-M   'P 1'
_cell_length_a   4.75172540
_cell_length_b   10.14506526
_cell_length_c   9.50255923
_cell_angle_alpha   62.08412913
_cell_angle_beta   90.00000000
_cell_angle_gamma   90.00000000
_symmetry_Int_Tables_number   1
_chemical_formula_structural   Ta2FeO6
_chemical_formula_sum   'Ta8 Fe4 O24'
_cell_volume   404.78103508
_cell_formula_units_Z   4
loop_
 _symmetry_equiv_pos_site_id
 _symmetry_equiv_pos_as_xyz
  1  'x, y, z'
loop_
 _atom_site_type_symbol
 _atom_site_label
 _atom_site_symmetry_multiplicity
 _atom_site_fract_x
 _atom_site_fract_y
 _atom_site_fract_z
 _atom_site_occupancy
  Ta  Ta0  1  -0.00001914  0.67066234  0.16463572  1
  Ta  Ta1  1  -0.00001914  0.67066234  0.66463572  1
  Ta  Ta2  1  0.50001914  0.17066234  0.16463572  1
  Ta  Ta3  1  0.50001914  0.17066234  0.66463572  1
  Ta  Ta4  1  0.49998086  0.82933766  0.83536428  1
  Ta  Ta5  1  0.49998086  0.82933766  0.33536428  1
  Ta  Ta6  1  0.00001914  0.32933766  0.33536428  1
  Ta  Ta7  1  0.00001914  0.32933766  0.83536428  1
  Fe  Fe8  1  0.50000000  0.50000000  0.00000000  1
  Fe  Fe9  1  0.00000000  -0.00000000  0.50000000  1
  Fe  Fe10  1  0.50000000  0.50000000  0.50000000  1
  Fe  Fe11  1  0.00000000  -0.00000000  0.00000000  1
  O  O12  1  0.69147658  0.99998308  0.15422641  1
  O  O13  1  0.69147658  0.99998308  0.65422641  1
  O  O14  1  0.80852342  0.49998308  0.15422641  1
  O  O15  1  0.80852342  0.49998308  0.65422641  1
  O  O16  1  0.19147658  0.50001692  0.84577359  1
  O  O17  1  0.19147658  0.50001692  0.34577359  1
  O  O18  1  0.30852342  0.00001692  0.34577359  1
  O  O19  1  0.30852342  0.00001692  0.84577359  1
  O  O20  1  0.70307717  0.67055833  0.81317191  1
  O  O21  1  0.70307717  0.67055833  0.31317191  1
  O  O22  1  0.29697019  0.67054748  0.01628132  1
  O  O23  1  0.29697019  0.67054748  0.51628132  1
  O  O24  1  0.29692283  0.32944167  0.18682809  1
  O  O25  1  0.29692283  0.32944167  0.68682809  1
  O  O26  1  0.20307717  0.82944167  0.68682809  1
  O  O27  1  0.20307717  0.82944167  0.18682809  1
  O  O28  1  0.79697019  0.82945252  0.98371868  1
  O  O29  1  0.79697019  0.82945252  0.48371868  1
  O  O30  1  0.79692283  0.17055833  0.31317191  1
  O  O31  1  0.79692283  0.17055833  0.81317191  1
  O  O32  1  0.20302981  0.17054748  0.01628132  1
  O  O33  1  0.20302981  0.17054748  0.51628132  1
  O  O34  1  0.70302981  0.32945252  0.98371868  1
  O  O35  1  0.70302981  0.32945252  0.48371868  1
