# generated using pymatgen
data_Ca(LaTe2)2
_symmetry_space_group_name_H-M   'P 1'
_cell_length_a   8.40734864
_cell_length_b   8.40731722
_cell_length_c   8.40704541
_cell_angle_alpha   109.84342515
_cell_angle_beta   109.84274426
_cell_angle_gamma   108.72833216
_symmetry_Int_Tables_number   1
_chemical_formula_structural   Ca(LaTe2)2
_chemical_formula_sum   'Ca2 La4 Te8'
_cell_volume   457.39616406
_cell_formula_units_Z   2
loop_
 _symmetry_equiv_pos_site_id
 _symmetry_equiv_pos_as_xyz
  1  'x, y, z'
loop_
 _atom_site_type_symbol
 _atom_site_label
 _atom_site_symmetry_multiplicity
 _atom_site_fract_x
 _atom_site_fract_y
 _atom_site_fract_z
 _atom_site_occupancy
  Ca  Ca0  1  0.75001099  0.25001001  0.50001599  1
  Ca  Ca1  1  -0.00000104  0.00000430  0.00000143  1
  La  La2  1  0.24852675  0.62496902  0.12346466  1
  La  La3  1  0.37503338  0.49849237  0.62355825  1
  La  La4  1  0.50150507  0.12505923  0.87653626  1
  La  La5  1  0.87493648  0.75147439  0.37645293  1
  Te  Te6  1  0.26617388  0.01930670  0.39296967  1
  Te  Te7  1  0.48336085  0.37638760  0.25313425  1
  Te  Te8  1  0.76976409  0.51664697  0.89300639  1
  Te  Te9  1  0.62363268  0.87676156  0.10699966  1
  Te  Te10  1  0.62633105  0.87321705  0.60700822  1
  Te  Te11  1  0.12678714  0.73378440  0.75310577  1
  Te  Te12  1  0.98068566  0.37366220  0.24687620  1
  Te  Te13  1  0.12325202  0.23022420  0.74686833  1
