# generated using pymatgen
data_TlGeS2
_symmetry_space_group_name_H-M   'P 1'
_cell_length_a   6.67715424
_cell_length_b   9.02453480
_cell_length_c   14.18023727
_cell_angle_alpha   90.00000000
_cell_angle_beta   90.00000000
_cell_angle_gamma   90.00000000
_symmetry_Int_Tables_number   1
_chemical_formula_structural   TlGeS2
_chemical_formula_sum   'Tl8 Ge8 S16'
_cell_volume   854.47572666
_cell_formula_units_Z   8
loop_
 _symmetry_equiv_pos_site_id
 _symmetry_equiv_pos_as_xyz
  1  'x, y, z'
loop_
 _atom_site_type_symbol
 _atom_site_label
 _atom_site_symmetry_multiplicity
 _atom_site_fract_x
 _atom_site_fract_y
 _atom_site_fract_z
 _atom_site_occupancy
  Tl  Tl0  1  0.75000000  0.35067242  0.32141432  1
  Tl  Tl1  1  0.25000000  0.64932758  0.67858568  1
  Tl  Tl2  1  0.75000000  0.85067242  0.17858568  1
  Tl  Tl3  1  0.25000000  0.14932758  0.82141432  1
  Tl  Tl4  1  0.75000000  0.01919855  0.63307019  1
  Tl  Tl5  1  0.25000000  0.98080145  0.36692981  1
  Tl  Tl6  1  0.75000000  0.51919855  0.86692981  1
  Tl  Tl7  1  0.25000000  0.48080145  0.13307019  1
  Ge  Ge8  1  0.25000000  0.58569561  0.45646794  1
  Ge  Ge9  1  0.25000000  0.24916867  0.57156300  1
  Ge  Ge10  1  0.75000000  0.75083133  0.42843700  1
  Ge  Ge11  1  0.25000000  0.74916867  0.92843700  1
  Ge  Ge12  1  0.75000000  0.25083133  0.07156300  1
  Ge  Ge13  1  0.25000000  0.08569561  0.04353206  1
  Ge  Ge14  1  0.75000000  0.91430439  0.95646794  1
  Ge  Ge15  1  0.75000000  0.41430439  0.54353206  1
  S  S16  1  0.49618525  0.14844963  0.15474571  1
  S  S17  1  0.49618525  0.64844963  0.34525429  1
  S  S18  1  0.99618525  0.35155037  0.65474571  1
  S  S19  1  0.00381475  0.14844963  0.15474571  1
  S  S20  1  0.50381475  0.85155037  0.84525429  1
  S  S21  1  0.50381475  0.35155037  0.65474571  1
  S  S22  1  0.00381475  0.64844963  0.34525429  1
  S  S23  1  0.99618525  0.85155037  0.84525429  1
  S  S24  1  0.75000000  0.48952099  0.08334553  1
  S  S25  1  0.25000000  0.51047901  0.91665447  1
  S  S26  1  0.75000000  0.98952099  0.41665447  1
  S  S27  1  0.25000000  0.32775813  0.42251039  1
  S  S28  1  0.75000000  0.17224187  0.92251039  1
  S  S29  1  0.25000000  0.82775813  0.07748961  1
  S  S30  1  0.75000000  0.67224187  0.57748961  1
  S  S31  1  0.25000000  0.01047901  0.58334553  1
