# generated using pymatgen
data_Te3P2O11
_symmetry_space_group_name_H-M   'P 1'
_cell_length_a   7.35496419
_cell_length_b   9.88264197
_cell_length_c   12.42466138
_cell_angle_alpha   81.99138355
_cell_angle_beta   90.00000000
_cell_angle_gamma   90.00000000
_symmetry_Int_Tables_number   1
_chemical_formula_structural   Te3P2O11
_chemical_formula_sum   'Te12 P8 O44'
_cell_volume   894.29700735
_cell_formula_units_Z   4
loop_
 _symmetry_equiv_pos_site_id
 _symmetry_equiv_pos_as_xyz
  1  'x, y, z'
loop_
 _atom_site_type_symbol
 _atom_site_label
 _atom_site_symmetry_multiplicity
 _atom_site_fract_x
 _atom_site_fract_y
 _atom_site_fract_z
 _atom_site_occupancy
  Te  Te0  1  0.27383970  0.12464940  0.35943118  1
  Te  Te1  1  0.77383970  0.37535060  0.64056882  1
  Te  Te2  1  0.72616030  0.87535060  0.64056882  1
  Te  Te3  1  0.22616030  0.62464940  0.35943118  1
  Te  Te4  1  0.25011325  0.94020617  0.14858455  1
  Te  Te5  1  0.75011325  0.55979383  0.85141545  1
  Te  Te6  1  0.74988675  0.05979383  0.85141545  1
  Te  Te7  1  0.24988675  0.44020617  0.14858455  1
  Te  Te8  1  0.80044893  0.02685944  0.23733081  1
  Te  Te9  1  0.30044893  0.47314056  0.76266919  1
  Te  Te10  1  0.19955107  0.97314056  0.76266919  1
  Te  Te11  1  0.69955107  0.52685944  0.23733081  1
  P  P12  1  0.69096162  0.22965419  0.41372275  1
  P  P13  1  0.19096162  0.27034581  0.58627725  1
  P  P14  1  0.30903838  0.77034581  0.58627725  1
  P  P15  1  0.80903838  0.72965419  0.41372275  1
  P  P16  1  0.68424383  0.82198872  0.07053492  1
  P  P17  1  0.18424383  0.67801128  0.92946508  1
  P  P18  1  0.31575617  0.17801128  0.92946508  1
  P  P19  1  0.81575617  0.32198872  0.07053492  1
  O  O20  1  0.75237706  0.21076606  0.53104133  1
  O  O21  1  0.25237706  0.28923394  0.46895867  1
  O  O22  1  0.24762294  0.78923394  0.46895867  1
  O  O23  1  0.74762294  0.71076606  0.53104133  1
  O  O24  1  0.63448392  0.37743406  0.37606987  1
  O  O25  1  0.13448392  0.12256594  0.62393013  1
  O  O26  1  0.36551608  0.62256594  0.62393013  1
  O  O27  1  0.86551608  0.87743406  0.37606987  1
  O  O28  1  0.52969029  0.12691230  0.40614399  1
  O  O29  1  0.02969029  0.37308770  0.59385601  1
  O  O30  1  0.47030971  0.87308770  0.59385601  1
  O  O31  1  0.97030971  0.62691230  0.40614399  1
  O  O32  1  0.84035016  0.18483384  0.33821576  1
  O  O33  1  0.34035016  0.31516616  0.66178424  1
  O  O34  1  0.15964984  0.81516616  0.66178424  1
  O  O35  1  0.70551549  0.66586269  0.09327093  1
  O  O36  1  0.65964984  0.68483384  0.33821576  1
  O  O37  1  0.19165136  0.63834426  0.05210125  1
  O  O38  1  0.30834864  0.13834426  0.05210125  1
  O  O39  1  0.80834864  0.36165574  0.94789875  1
  O  O40  1  0.44509154  0.54708978  0.22908315  1
  O  O41  1  0.94509154  0.95291022  0.77091685  1
  O  O42  1  0.55490846  0.45291022  0.77091685  1
  O  O43  1  0.05490846  0.04708978  0.22908315  1
  O  O44  1  0.11175199  0.51256635  0.25616090  1
  O  O45  1  0.61175199  0.98743365  0.74383910  1
  O  O46  1  0.88824801  0.48743365  0.74383910  1
  O  O47  1  0.38824801  0.01256635  0.25616090  1
  O  O48  1  0.20021820  0.77558804  0.25604350  1
  O  O49  1  0.70021820  0.72441196  0.74395650  1
  O  O50  1  0.79978180  0.22441196  0.74395650  1
  O  O51  1  0.29978180  0.27558804  0.25604350  1
  O  O52  1  0.65585838  0.38779706  0.12746566  1
  O  O53  1  0.15585838  0.11220294  0.87253434  1
  O  O54  1  0.34414162  0.61220294  0.87253434  1
  O  O55  1  0.84414162  0.88779706  0.12746566  1
  O  O56  1  0.99167914  0.36822646  0.11900410  1
  O  O57  1  0.49167914  0.13177354  0.88099590  1
  O  O58  1  0.00832086  0.63177354  0.88099590  1
  O  O59  1  0.50832086  0.86822646  0.11900410  1
  O  O60  1  0.79448451  0.16586269  0.09327093  1
  O  O61  1  0.29448451  0.33413731  0.90672907  1
  O  O62  1  0.20551549  0.83413731  0.90672907  1
  O  O63  1  0.69165136  0.86165574  0.94789875  1
