# generated using pymatgen
data_Sr3UO6
_symmetry_space_group_name_H-M   'P 1'
_cell_length_a   6.01187075
_cell_length_b   6.24491972
_cell_length_c   8.62546066
_cell_angle_alpha   90.00000000
_cell_angle_beta   90.47273692
_cell_angle_gamma   90.00000000
_symmetry_Int_Tables_number   1
_chemical_formula_structural   Sr3UO6
_chemical_formula_sum   'Sr6 U2 O12'
_cell_volume   323.82025550
_cell_formula_units_Z   2
loop_
 _symmetry_equiv_pos_site_id
 _symmetry_equiv_pos_as_xyz
  1  'x, y, z'
loop_
 _atom_site_type_symbol
 _atom_site_label
 _atom_site_symmetry_multiplicity
 _atom_site_fract_x
 _atom_site_fract_y
 _atom_site_fract_z
 _atom_site_occupancy
  Sr  Sr0  1  0.25002613  0.01817894  0.75000258  1
  Sr  Sr1  1  0.74997387  0.51817894  0.24999742  1
  Sr  Sr2  1  0.23500384  0.56819627  0.50687689  1
  Sr  Sr3  1  0.76499616  0.06819627  0.49312311  1
  Sr  Sr4  1  0.73496342  0.96816210  0.00696032  1
  Sr  Sr5  1  0.26503658  0.46816210  0.99303968  1
  U  U6  1  0.24993508  0.01818518  0.25001046  1
  U  U7  1  0.75006492  0.51818518  0.74998954  1
  O  O8  1  0.42400273  0.74561550  0.17332698  1
  O  O9  1  0.57599727  0.24561550  0.82667302  1
  O  O10  1  0.96826374  0.84172246  0.29983682  1
  O  O11  1  0.03173626  0.34172246  0.70016318  1
  O  O12  1  0.86796310  0.58019870  0.97467249  1
  O  O13  1  0.13203690  0.08019870  0.02532751  1
  O  O14  1  0.92424524  0.79063033  0.67319808  1
  O  O15  1  0.07575476  0.29063033  0.32680192  1
  O  O16  1  0.63208872  0.45622924  0.52531407  1
  O  O17  1  0.36791128  0.95622924  0.47468593  1
  O  O18  1  0.53156401  0.19468128  0.20011830  1
  O  O19  1  0.46843599  0.69468128  0.79988170  1
