# generated using pymatgen
data_K2PtF6
_symmetry_space_group_name_H-M   'P 1'
_cell_length_a   5.75991883
_cell_length_b   5.75991845
_cell_length_c   4.56528553
_cell_angle_alpha   90.00000000
_cell_angle_beta   90.00000000
_cell_angle_gamma   120.00000210
_symmetry_Int_Tables_number   1
_chemical_formula_structural   K2PtF6
_chemical_formula_sum   'K2 Pt1 F6'
_cell_volume   131.16901761
_cell_formula_units_Z   1
loop_
 _symmetry_equiv_pos_site_id
 _symmetry_equiv_pos_as_xyz
  1  'x, y, z'
loop_
 _atom_site_type_symbol
 _atom_site_label
 _atom_site_symmetry_multiplicity
 _atom_site_fract_x
 _atom_site_fract_y
 _atom_site_fract_z
 _atom_site_occupancy
  K  K0  1  0.66666700  0.33333300  0.28468714  1
  K  K1  1  0.33333300  0.66666700  0.71531286  1
  Pt  Pt2  1  0.00000000  0.00000000  -0.00000000  1
  F  F3  1  0.83435087  0.16564913  0.77145977  1
  F  F4  1  0.83435087  0.66870175  0.77145977  1
  F  F5  1  0.33129825  0.16564913  0.77145977  1
  F  F6  1  0.16564913  0.83435087  0.22854023  1
  F  F7  1  0.16564913  0.33129825  0.22854023  1
  F  F8  1  0.66870175  0.83435087  0.22854023  1
