# generated using pymatgen
data_Zn(SbO3)2
_symmetry_space_group_name_H-M   'P 1'
_cell_length_a   4.67842960
_cell_length_b   4.67842960
_cell_length_c   9.30171104
_cell_angle_alpha   90.00000000
_cell_angle_beta   90.00000000
_cell_angle_gamma   90.00000000
_symmetry_Int_Tables_number   1
_chemical_formula_structural   Zn(SbO3)2
_chemical_formula_sum   'Zn2 Sb4 O12'
_cell_volume   203.59309349
_cell_formula_units_Z   2
loop_
 _symmetry_equiv_pos_site_id
 _symmetry_equiv_pos_as_xyz
  1  'x, y, z'
loop_
 _atom_site_type_symbol
 _atom_site_label
 _atom_site_symmetry_multiplicity
 _atom_site_fract_x
 _atom_site_fract_y
 _atom_site_fract_z
 _atom_site_occupancy
  Zn  Zn0  1  0.00000000  0.00000000  -0.00000000  1
  Zn  Zn1  1  0.50000000  0.50000000  0.50000000  1
  Sb  Sb2  1  0.50000000  0.50000000  0.83216947  1
  Sb  Sb3  1  0.00000000  0.00000000  0.33216947  1
  Sb  Sb4  1  0.50000000  0.50000000  0.16783053  1
  Sb  Sb5  1  0.00000000  0.00000000  0.66783053  1
  O  O6  1  0.69936670  0.69936670  0.67319389  1
  O  O7  1  0.30063330  0.30063330  0.67319389  1
  O  O8  1  0.69936670  0.69936670  0.32680611  1
  O  O9  1  0.19936670  0.80063330  0.17319389  1
  O  O10  1  0.80063330  0.19936670  0.17319389  1
  O  O11  1  0.80063330  0.19936670  0.82680611  1
  O  O12  1  0.31120045  0.31120045  -0.00000000  1
  O  O13  1  0.18879955  0.81120045  0.50000000  1
  O  O14  1  0.81120045  0.18879955  0.50000000  1
  O  O15  1  0.68879955  0.68879955  -0.00000000  1
  O  O16  1  0.30063330  0.30063330  0.32680611  1
  O  O17  1  0.19936670  0.80063330  0.82680611  1
