# generated using pymatgen
data_TbScO3
_symmetry_space_group_name_H-M   'P 1'
_cell_length_a   5.43955610
_cell_length_b   5.73025335
_cell_length_c   7.93211736
_cell_angle_alpha   90.00000000
_cell_angle_beta   90.00000000
_cell_angle_gamma   90.00000000
_symmetry_Int_Tables_number   1
_chemical_formula_structural   TbScO3
_chemical_formula_sum   'Tb4 Sc4 O12'
_cell_volume   247.24437228
_cell_formula_units_Z   4
loop_
 _symmetry_equiv_pos_site_id
 _symmetry_equiv_pos_as_xyz
  1  'x, y, z'
loop_
 _atom_site_type_symbol
 _atom_site_label
 _atom_site_symmetry_multiplicity
 _atom_site_fract_x
 _atom_site_fract_y
 _atom_site_fract_z
 _atom_site_occupancy
  Tb  Tb0  1  0.98009536  0.06229845  0.75000000  1
  Tb  Tb1  1  0.48009536  0.43770155  0.25000000  1
  Tb  Tb2  1  0.51990464  0.56229845  0.75000000  1
  Tb  Tb3  1  0.01990464  0.93770155  0.25000000  1
  Sc  Sc4  1  0.00000000  0.50000000  0.50000000  1
  Sc  Sc5  1  0.50000000  -0.00000000  0.50000000  1
  Sc  Sc6  1  0.50000000  -0.00000000  0.00000000  1
  Sc  Sc7  1  0.00000000  0.50000000  0.00000000  1
  O  O8  1  0.69169284  0.30542761  0.56729353  1
  O  O9  1  0.19169284  0.19457239  0.43270647  1
  O  O10  1  0.80830716  0.80542761  0.93270647  1
  O  O11  1  0.30830716  0.69457239  0.06729353  1
  O  O12  1  0.30830716  0.69457239  0.43270647  1
  O  O13  1  0.80830716  0.80542761  0.56729353  1
  O  O14  1  0.19169284  0.19457239  0.06729353  1
  O  O15  1  0.69169284  0.30542761  0.93270647  1
  O  O16  1  0.87146236  0.55491455  0.25000000  1
  O  O17  1  0.37146236  0.94508545  0.75000000  1
  O  O18  1  0.62853764  0.05491455  0.25000000  1
  O  O19  1  0.12853764  0.44508545  0.75000000  1
