# generated using pymatgen
data_SrUO4
_symmetry_space_group_name_H-M   'P 1'
_cell_length_a   6.59515279
_cell_length_b   6.59515200
_cell_length_c   6.59515293
_cell_angle_alpha   34.54717745
_cell_angle_beta   34.54719596
_cell_angle_gamma   34.54718194
_symmetry_Int_Tables_number   1
_chemical_formula_structural   SrUO4
_chemical_formula_sum   'Sr1 U1 O4'
_cell_volume   82.30568888
_cell_formula_units_Z   1
loop_
 _symmetry_equiv_pos_site_id
 _symmetry_equiv_pos_as_xyz
  1  'x, y, z'
loop_
 _atom_site_type_symbol
 _atom_site_label
 _atom_site_symmetry_multiplicity
 _atom_site_fract_x
 _atom_site_fract_y
 _atom_site_fract_z
 _atom_site_occupancy
  Sr  Sr0  1  0.50000000  0.50000000  0.50000000  1
  U  U1  1  0.00000000  -0.00000000  0.00000000  1
  O  O2  1  0.35948185  0.35948185  0.35948185  1
  O  O3  1  0.10617504  0.10617504  0.10617504  1
  O  O4  1  0.64051815  0.64051815  0.64051815  1
  O  O5  1  0.89382496  0.89382496  0.89382496  1
