# generated using pymatgen
data_Ba3(SbO3)2
_symmetry_space_group_name_H-M   'P 1'
_cell_length_a   6.19150769
_cell_length_b   9.84516855
_cell_length_c   12.20855871
_cell_angle_alpha   105.11075295
_cell_angle_beta   90.39150416
_cell_angle_gamma   107.98795792
_symmetry_Int_Tables_number   1
_chemical_formula_structural   Ba3(SbO3)2
_chemical_formula_sum   'Ba9 Sb6 O18'
_cell_volume   680.24365644
_cell_formula_units_Z   3
loop_
 _symmetry_equiv_pos_site_id
 _symmetry_equiv_pos_as_xyz
  1  'x, y, z'
loop_
 _atom_site_type_symbol
 _atom_site_label
 _atom_site_symmetry_multiplicity
 _atom_site_fract_x
 _atom_site_fract_y
 _atom_site_fract_z
 _atom_site_occupancy
  Ba  Ba0  1  0.61017256  0.21017368  0.05880822  1
  Ba  Ba1  1  0.21914223  0.39658099  0.70466653  1
  Ba  Ba2  1  0.38982122  0.78983451  0.94119719  1
  Ba  Ba3  1  0.78086151  0.60341967  0.29533113  1
  Ba  Ba4  1  0.51261877  0.03318298  0.70013218  1
  Ba  Ba5  1  0.48737795  0.96681861  0.29986662  1
  Ba  Ba6  1  0.85057351  0.72466998  0.71170992  1
  Ba  Ba7  1  0.14942222  0.27533127  0.28828542  1
  Ba  Ba8  1  0.00000282  0.00000156  0.50000257  1
  Sb  Sb9  1  0.76259427  0.50567606  0.91825361  1
  Sb  Sb10  1  0.23740413  0.49433067  0.08174495  1
  Sb  Sb11  1  0.04477340  0.09883023  0.87829274  1
  Sb  Sb12  1  0.95520921  0.90115875  0.12171739  1
  Sb  Sb13  1  0.68417280  0.33633188  0.50699442  1
  Sb  Sb14  1  0.31585161  0.66366100  0.49299911  1
  O  O15  1  0.43759063  0.16281880  0.52070032  1
  O  O16  1  0.56242519  0.83717935  0.47929214  1
  O  O17  1  0.61013702  0.32100934  0.34929685  1
  O  O18  1  0.38986972  0.67898042  0.65070221  1
  O  O19  1  0.93253365  0.25110320  0.48778206  1
  O  O20  1  0.06748240  0.74888895  0.51220757  1
  O  O21  1  0.62626612  0.29335862  0.84551343  1
  O  O22  1  0.37372663  0.70664841  0.15448375  1
  O  O23  1  0.56561557  0.58132334  0.84243952  1
  O  O24  1  0.43438470  0.41868832  0.15756336  1
  O  O25  1  0.01036384  0.56669209  0.82382948  1
  O  O26  1  0.79334606  0.04693782  0.15306905  1
  O  O27  1  0.20664932  0.95305590  0.84693421  1
  O  O28  1  0.26539208  0.03851315  0.13871937  1
  O  O29  1  0.73459444  0.96148470  0.86127584  1
  O  O30  1  0.97152365  0.88977757  0.27934604  1
  O  O31  1  0.02846897  0.11022521  0.72067323  1
  O  O32  1  0.98963280  0.43331397  0.17616758  1
