# generated using pymatgen
data_U(BO3)2
_symmetry_space_group_name_H-M   'P 1'
_cell_length_a   6.60405150
_cell_length_b   6.60405150
_cell_length_c   10.36673470
_cell_angle_alpha   59.76951096
_cell_angle_beta   59.76951096
_cell_angle_gamma   36.91111670
_symmetry_Int_Tables_number   1
_chemical_formula_structural   U(BO3)2
_chemical_formula_sum   'U2 B4 O12'
_cell_volume   230.13130787
_cell_formula_units_Z   2
loop_
 _symmetry_equiv_pos_site_id
 _symmetry_equiv_pos_as_xyz
  1  'x, y, z'
loop_
 _atom_site_type_symbol
 _atom_site_label
 _atom_site_symmetry_multiplicity
 _atom_site_fract_x
 _atom_site_fract_y
 _atom_site_fract_z
 _atom_site_occupancy
  U  U0  1  0.24279191  0.75720809  0.25000000  1
  U  U1  1  0.75720809  0.24279191  0.75000000  1
  B  B2  1  0.15019699  0.45290576  0.74823661  1
  B  B3  1  0.45290576  0.15019699  0.24823661  1
  B  B4  1  0.84980301  0.54709424  0.25176339  1
  B  B5  1  0.54709424  0.84980301  0.75176339  1
  O  O6  1  0.34040956  0.84361858  0.04648072  1
  O  O7  1  0.15638142  0.65959044  0.45351928  1
  O  O8  1  0.86177550  0.34097209  0.24598522  1
  O  O9  1  0.65902791  0.13822450  0.25401478  1
  O  O10  1  0.13822450  0.65902791  0.75401478  1
  O  O11  1  0.34097209  0.86177550  0.74598522  1
  O  O12  1  0.12002194  0.47739080  0.23682017  1
  O  O13  1  0.52260920  0.87997806  0.26317983  1
  O  O14  1  0.87997806  0.52260920  0.76317983  1
  O  O15  1  0.47739080  0.12002194  0.73682017  1
  O  O16  1  0.84361858  0.34040956  0.54648072  1
  O  O17  1  0.65959044  0.15638142  0.95351928  1
