# generated using pymatgen
data_V6O11
_symmetry_space_group_name_H-M   'P 1'
_cell_length_a   5.45854454
_cell_length_b   7.00388702
_cell_length_c   9.59437048
_cell_angle_alpha   89.95880367
_cell_angle_beta   100.45651499
_cell_angle_gamma   109.12871970
_symmetry_Int_Tables_number   1
_chemical_formula_structural   V6O11
_chemical_formula_sum   'V12 O22'
_cell_volume   340.11230076
_cell_formula_units_Z   2
loop_
 _symmetry_equiv_pos_site_id
 _symmetry_equiv_pos_as_xyz
  1  'x, y, z'
loop_
 _atom_site_type_symbol
 _atom_site_label
 _atom_site_symmetry_multiplicity
 _atom_site_fract_x
 _atom_site_fract_y
 _atom_site_fract_z
 _atom_site_occupancy
  V  V0  1  0.77092418  0.36348436  0.41495109  1
  V  V1  1  0.22907582  0.63651564  0.58504891  1
  V  V2  1  0.67906165  0.91654655  0.75504993  1
  V  V3  1  0.32093835  0.08345345  0.24495007  1
  V  V4  1  0.22467677  0.13562914  0.58161647  1
  V  V5  1  0.77532323  0.86437086  0.41838353  1
  V  V6  1  0.69217506  0.42660270  0.75623253  1
  V  V7  1  0.30782494  0.57339730  0.24376747  1
  V  V8  1  0.17724997  0.19799819  0.93255666  1
  V  V9  1  0.82275003  0.80200181  0.06744334  1
  V  V10  1  0.17982072  0.69809039  0.93628605  1
  V  V11  1  0.82017928  0.30190961  0.06371395  1
  O  O12  1  0.13074821  0.01959493  0.39061633  1
  O  O13  1  0.86925179  0.98040507  0.60938367  1
  O  O14  1  0.64164702  0.07627085  0.34838747  1
  O  O15  1  0.35835298  0.92372915  0.65161253  1
  O  O16  1  0.90086413  0.64404013  0.47192764  1
  O  O17  1  0.09913587  0.35595987  0.52807236  1
  O  O18  1  0.94592111  0.42317764  0.24643034  1
  O  O19  1  0.05407889  0.57682236  0.75356966  1
  O  O20  1  0.21006807  0.45698318  0.03203200  1
  O  O21  1  0.78993193  0.54301682  0.96796800  1
  O  O22  1  0.81339906  0.20061704  0.85505356  1
  O  O23  1  0.18660094  0.79938296  0.14494644  1
  O  O24  1  0.58965029  0.29939368  0.57410835  1
  O  O25  1  0.41034971  0.70060632  0.42589165  1
  O  O26  1  0.33537390  0.25836739  0.78692934  1
  O  O27  1  0.66462610  0.74163261  0.21307066  1
  O  O28  1  0.00807241  0.90329819  0.89066761  1
  O  O29  1  0.99192759  0.09670181  0.10933239  1
  O  O30  1  0.43730329  0.36559359  0.29643257  1
  O  O31  1  0.56269671  0.63440641  0.70356743  1
  O  O32  1  0.48239521  0.18087259  0.06635260  1
  O  O33  1  0.51760479  0.81912741  0.93364740  1
