# generated using pymatgen
data_K3Zn2F7
_symmetry_space_group_name_H-M   'P 1'
_cell_length_a   4.05084948
_cell_length_b   4.05085101
_cell_length_c   10.92626405
_cell_angle_alpha   100.68797761
_cell_angle_beta   100.68798059
_cell_angle_gamma   89.98870836
_symmetry_Int_Tables_number   1
_chemical_formula_structural   K3Zn2F7
_chemical_formula_sum   'K3 Zn2 F7'
_cell_volume   173.01779170
_cell_formula_units_Z   1
loop_
 _symmetry_equiv_pos_site_id
 _symmetry_equiv_pos_as_xyz
  1  'x, y, z'
loop_
 _atom_site_type_symbol
 _atom_site_label
 _atom_site_symmetry_multiplicity
 _atom_site_fract_x
 _atom_site_fract_y
 _atom_site_fract_z
 _atom_site_occupancy
  K  K0  1  0.31548033  0.31548025  0.63096685  1
  K  K1  1  0.68452167  0.68452175  0.36903715  1
  K  K2  1  0.49999900  0.49999900  0.99999700  1
  Zn  Zn3  1  0.09661480  0.09661480  0.19338090  1
  Zn  Zn4  1  0.90338520  0.90338520  0.80661810  1
  F  F5  1  0.99999800  0.99999800  0.99999600  1
  F  F6  1  0.40500046  0.90501287  0.80993890  1
  F  F7  1  0.90501283  0.40500048  0.80993896  1
  F  F8  1  0.59499954  0.09498713  0.19006010  1
  F  F9  1  0.09498717  0.59499952  0.19006004  1
  F  F10  1  0.19201052  0.19201056  0.38402124  1
  F  F11  1  0.80799248  0.80799244  0.61598376  1
