# generated using pymatgen
data_Mg(RhO2)2
_symmetry_space_group_name_H-M   'P 1'
_cell_length_a   6.04985358
_cell_length_b   6.04986094
_cell_length_c   6.04987654
_cell_angle_alpha   60.00008672
_cell_angle_beta   59.99994804
_cell_angle_gamma   59.99987740
_symmetry_Int_Tables_number   1
_chemical_formula_structural   Mg(RhO2)2
_chemical_formula_sum   'Mg2 Rh4 O8'
_cell_volume   156.57466173
_cell_formula_units_Z   2
loop_
 _symmetry_equiv_pos_site_id
 _symmetry_equiv_pos_as_xyz
  1  'x, y, z'
loop_
 _atom_site_type_symbol
 _atom_site_label
 _atom_site_symmetry_multiplicity
 _atom_site_fract_x
 _atom_site_fract_y
 _atom_site_fract_z
 _atom_site_occupancy
  Mg  Mg0  1  0.74999871  0.74999929  0.74999870  1
  Mg  Mg1  1  0.50000020  0.50000122  0.50000215  1
  Rh  Rh2  1  0.12499963  0.12500032  0.62499976  1
  Rh  Rh3  1  0.12499967  0.62499898  0.12500095  1
  Rh  Rh4  1  0.62499740  0.12500088  0.12500096  1
  Rh  Rh5  1  0.12500010  0.12500075  0.12500091  1
  O  O6  1  0.88504425  0.34487917  0.88503668  1
  O  O7  1  0.36496077  0.36496245  0.90511266  1
  O  O8  1  0.36495896  0.36496049  0.36496298  1
  O  O9  1  0.90511170  0.36496116  0.36496369  1
  O  O10  1  0.88504433  0.88504351  0.88503881  1
  O  O11  1  0.34487842  0.88504260  0.88503783  1
  O  O12  1  0.36496026  0.90511160  0.36496419  1
  O  O13  1  0.88504360  0.88503860  0.34487972  1
