# generated using pymatgen
data_Zn3S2O9
_symmetry_space_group_name_H-M   'P 1'
_cell_length_a   6.65013089
_cell_length_b   7.38889562
_cell_length_c   7.92773678
_cell_angle_alpha   62.19396333
_cell_angle_beta   90.00000000
_cell_angle_gamma   90.00000000
_symmetry_Int_Tables_number   1
_chemical_formula_structural   Zn3S2O9
_chemical_formula_sum   'Zn6 S4 O18'
_cell_volume   344.56599375
_cell_formula_units_Z   2
loop_
 _symmetry_equiv_pos_site_id
 _symmetry_equiv_pos_as_xyz
  1  'x, y, z'
loop_
 _atom_site_type_symbol
 _atom_site_label
 _atom_site_symmetry_multiplicity
 _atom_site_fract_x
 _atom_site_fract_y
 _atom_site_fract_z
 _atom_site_occupancy
  Zn  Zn0  1  0.50000000  0.00000000  -0.00000000  1
  Zn  Zn1  1  0.00000000  0.00000000  -0.00000000  1
  Zn  Zn2  1  0.25000000  0.37498085  0.74313717  1
  Zn  Zn3  1  0.75000000  0.62501915  0.25686283  1
  Zn  Zn4  1  0.25000000  0.16571856  0.22318534  1
  Zn  Zn5  1  0.75000000  0.83428144  0.77681466  1
  S  S6  1  0.25000000  0.55609393  0.28578795  1
  S  S7  1  0.75000000  0.44390607  0.71421205  1
  S  S8  1  0.25000000  0.84920280  0.70019512  1
  S  S9  1  0.75000000  0.15079720  0.29980488  1
  O  O10  1  0.25000000  0.13065197  0.99231298  1
  O  O11  1  0.75000000  0.86934803  0.00768702  1
  O  O12  1  0.92920803  0.31071823  0.75816826  1
  O  O13  1  0.42920803  0.68928177  0.24183174  1
  O  O14  1  0.07079197  0.68928177  0.24183174  1
  O  O15  1  0.57079197  0.31071823  0.75816826  1
  O  O16  1  0.92975656  0.10739054  0.21382374  1
  O  O17  1  0.42975656  0.89260946  0.78617626  1
  O  O18  1  0.07024344  0.89260946  0.78617626  1
  O  O19  1  0.57024344  0.10739054  0.21382374  1
  O  O20  1  0.75000000  0.54743524  0.83375339  1
  O  O21  1  0.25000000  0.45256476  0.16624661  1
  O  O22  1  0.75000000  0.59990350  0.51368223  1
  O  O23  1  0.25000000  0.40009650  0.48631777  1
  O  O24  1  0.75000000  0.02385788  0.50532698  1
  O  O25  1  0.25000000  0.97614212  0.49467302  1
  O  O26  1  0.25000000  0.63386704  0.74554544  1
  O  O27  1  0.75000000  0.36613296  0.25445456  1
