# generated using pymatgen
data_Ti(NO3)4
_symmetry_space_group_name_H-M   'P 1'
_cell_length_a   13.52700290
_cell_length_b   7.70340635
_cell_length_c   10.20757669
_cell_angle_alpha   55.32637552
_cell_angle_beta   90.00009618
_cell_angle_gamma   90.00011388
_symmetry_Int_Tables_number   1
_chemical_formula_structural   Ti(NO3)4
_chemical_formula_sum   'Ti4 N16 O48'
_cell_volume   874.76887112
_cell_formula_units_Z   4
loop_
 _symmetry_equiv_pos_site_id
 _symmetry_equiv_pos_as_xyz
  1  'x, y, z'
loop_
 _atom_site_type_symbol
 _atom_site_label
 _atom_site_symmetry_multiplicity
 _atom_site_fract_x
 _atom_site_fract_y
 _atom_site_fract_z
 _atom_site_occupancy
  Ti  Ti0  1  0.67160499  0.18027767  0.53918565  1
  Ti  Ti1  1  0.17160564  0.81972378  0.96081279  1
  Ti  Ti2  1  0.32839285  0.81972101  0.46081362  1
  Ti  Ti3  1  0.82839561  0.18027716  0.03918784  1
  N  N4  1  0.93394663  0.49108382  0.84219972  1
  N  N5  1  0.74424220  0.86551226  0.55893519  1
  N  N6  1  0.24424132  0.13449197  0.94106199  1
  N  N7  1  0.25575839  0.13448938  0.44106205  1
  N  N8  1  0.75575792  0.86551250  0.05893615  1
  N  N9  1  0.43394480  0.50891652  0.65780365  1
  N  N10  1  0.06605489  0.50891631  0.15780418  1
  N  N11  1  0.56605331  0.49108308  0.34219925  1
  N  N12  1  0.67541447  0.40121362  0.96992985  1
  N  N13  1  0.17541290  0.59878043  0.53007479  1
  N  N14  1  0.32458607  0.59878441  0.03007800  1
  N  N15  1  0.82458567  0.40121713  0.46992544  1
  N  N16  1  0.94824187  -0.00634401  0.26835969  1
  N  N17  1  0.44823702  0.00634278  0.23163705  1
  N  N18  1  0.05176271  0.00634467  0.73163547  1
  N  N19  1  0.55176032  -0.00634437  0.76835865  1
  O  O20  1  0.13307713  0.91925593  0.72982503  1
  O  O21  1  0.71802841  0.71879958  0.06747144  1
  O  O22  1  0.21803137  0.28120686  0.43252502  1
  O  O23  1  0.28196936  0.28120710  0.93252689  1
  O  O24  1  0.91439990  0.33634137  0.83151826  1
  O  O25  1  0.41439848  0.66365992  0.66848359  1
  O  O26  1  0.08559991  0.66366143  0.16848254  1
  O  O27  1  0.58559828  0.33633911  0.33151950  1
  O  O28  1  0.89407864  0.46323454  0.96968642  1
  O  O29  1  0.39407539  0.53676322  0.53031849  1
  O  O30  1  0.10592549  0.53676221  0.03032080  1
  O  O31  1  0.60592239  0.46323525  0.46968433  1
  O  O32  1  0.98204128  0.64265252  0.74820014  1
  O  O33  1  0.48204064  0.35735050  0.75180128  1
  O  O34  1  0.01795933  0.35734990  0.25180254  1
  O  O35  1  0.51795912  0.64265148  0.24819992  1
  O  O36  1  0.71719048  0.35500868  0.87788597  1
  O  O37  1  0.21718783  0.64498705  0.62211690  1
  O  O38  1  0.28281084  0.64499327  0.12211811  1
  O  O39  1  0.78280960  0.35501165  0.37788187  1
  O  O40  1  0.71813119  0.30449312  0.10691682  1
  O  O41  1  0.21812950  0.69550009  0.39308871  1
  O  O42  1  0.28187166  0.69550462  0.89309000  1
  O  O43  1  0.78186888  0.30449496  0.60691307  1
  O  O44  1  0.60732761  0.52057874  0.92950418  1
  O  O45  1  0.10732574  0.47941499  0.57049940  1
  O  O46  1  0.39267075  0.47941279  0.07050788  1
  O  O47  1  0.89267252  0.52058223  0.42950036  1
  O  O48  1  0.86692842  0.08074287  0.27017583  1
  O  O49  1  0.36692166  0.91925482  0.22982586  1
  O  O50  1  0.78197195  0.71879806  0.56747231  1
  O  O51  1  0.63307338  0.08074437  0.77017306  1
  O  O52  1  0.95941039  0.01695741  0.13228198  1
  O  O53  1  0.45940972  0.98304138  0.36771416  1
  O  O54  1  0.04058945  0.98304304  0.86771179  1
  O  O55  1  0.68354720  -0.00409933  0.44917418  1
  O  O56  1  0.00542870  0.90434369  0.37640958  1
  O  O57  1  0.50541998  0.09565853  0.12358083  1
  O  O58  1  -0.00541962  0.09566034  0.62357855  1
  O  O59  1  0.49457495  0.90434238  0.87641058  1
  O  O60  1  0.73967085  0.91354728  0.16095940  1
  O  O61  1  0.23966734  0.08645255  0.33904062  1
  O  O62  1  0.26033221  0.08645485  0.83904029  1
  O  O63  1  0.76032981  0.91354870  0.66095891  1
  O  O64  1  0.81645337  -0.00409844  0.94917640  1
  O  O65  1  0.31645358  0.00410065  0.55082216  1
  O  O66  1  0.18354469  0.00410298  0.05082096  1
  O  O67  1  0.54059068  0.01695465  0.63228309  1
