# generated using pymatgen
data_Mg5(HO3)2
_symmetry_space_group_name_H-M   'P 1'
_cell_length_a   3.00672552
_cell_length_b   3.00672545
_cell_length_c   14.53817299
_cell_angle_alpha   90.00034985
_cell_angle_beta   89.99965444
_cell_angle_gamma   119.99950061
_symmetry_Int_Tables_number   1
_chemical_formula_structural   Mg5(HO3)2
_chemical_formula_sum   'Mg5 H2 O6'
_cell_volume   113.82304680
_cell_formula_units_Z   1
loop_
 _symmetry_equiv_pos_site_id
 _symmetry_equiv_pos_as_xyz
  1  'x, y, z'
loop_
 _atom_site_type_symbol
 _atom_site_label
 _atom_site_symmetry_multiplicity
 _atom_site_fract_x
 _atom_site_fract_y
 _atom_site_fract_z
 _atom_site_occupancy
  Mg  Mg0  1  0.66666528  0.33333450  0.66690011  1
  Mg  Mg1  1  0.33333468  0.66666524  0.33309964  1
  Mg  Mg2  1  0.33333338  0.66666675  0.83390146  1
  Mg  Mg3  1  0.66666664  0.33333328  0.16609874  1
  Mg  Mg4  1  -0.00000003  -0.00000004  0.00000023  1
  H  H5  1  0.33333281  0.66666619  0.52769807  1
  H  H6  1  0.66666618  0.33333379  0.47230171  1
  O  O7  1  0.33333329  0.66666672  0.08309603  1
  O  O8  1  0.66666674  0.33333327  0.91690436  1
  O  O9  1  0.00000002  -0.00000002  0.24940008  1
  O  O10  1  0.66666777  0.33333228  0.40626671  1
  O  O11  1  0.33333228  0.66666703  0.59373281  1
  O  O12  1  -0.00000003  0.00000001  0.75060005  1
