# generated using pymatgen
data_Ca11Al14O32
_symmetry_space_group_name_H-M   'P 1'
_cell_length_a   10.39730071
_cell_length_b   10.39725787
_cell_length_c   11.95378566
_cell_angle_alpha   54.89487226
_cell_angle_beta   54.89474178
_cell_angle_gamma   70.46165328
_symmetry_Int_Tables_number   1
_chemical_formula_structural   Ca11Al14O32
_chemical_formula_sum   'Ca11 Al14 O32'
_cell_volume   864.86516940
_cell_formula_units_Z   1
loop_
 _symmetry_equiv_pos_site_id
 _symmetry_equiv_pos_as_xyz
  1  'x, y, z'
loop_
 _atom_site_type_symbol
 _atom_site_label
 _atom_site_symmetry_multiplicity
 _atom_site_fract_x
 _atom_site_fract_y
 _atom_site_fract_z
 _atom_site_occupancy
  Ca  Ca0  1  0.63452234  0.14168975  0.36347367  1
  Ca  Ca1  1  0.74697998  0.74842987  0.13721420  1
  Ca  Ca2  1  0.25157163  0.25301863  0.86278710  1
  Ca  Ca3  1  0.12013538  0.61159888  0.87985287  1
  Ca  Ca4  1  0.88316565  0.11683473  0.49999956  1
  Ca  Ca5  1  0.85831027  0.36547940  0.63652501  1
  Ca  Ca6  1  0.75051289  0.74979743  0.61198807  1
  Ca  Ca7  1  0.13647854  0.86352086  0.00000087  1
  Ca  Ca8  1  0.25020210  0.24948899  0.38801155  1
  Ca  Ca9  1  0.60976742  0.39023336  -0.00000140  1
  Ca  Ca10  1  0.38840195  0.87986576  0.12014711  1
  Al  Al11  1  0.87436021  0.12564082  -0.00000206  1
  Al  Al12  1  0.53434105  0.00072728  0.71533423  1
  Al  Al13  1  0.37651981  0.87462325  0.62241124  1
  Al  Al14  1  0.62161104  0.37838286  0.50000792  1
  Al  Al15  1  0.03359728  0.00033814  0.21573647  1
  Al  Al16  1  0.99966028  0.96640378  0.78426354  1
  Al  Al17  1  0.99927227  0.46565949  0.28466594  1
  Al  Al18  1  0.24954962  0.24864445  0.12685233  1
  Al  Al19  1  0.46549152  0.49911218  0.74860520  1
  Al  Al20  1  0.12535491  0.62347540  0.37759986  1
  Al  Al21  1  0.50654229  0.04069083  0.24047084  1
  Al  Al22  1  0.50088638  0.53450854  0.25139630  1
  Al  Al23  1  0.75135923  0.75044902  0.87314234  1
  Al  Al24  1  0.95930925  0.49345708  0.75952839  1
  O  O25  1  0.41240121  0.01703326  0.43107849  1
  O  O26  1  0.68795833  0.12196337  0.15549147  1
  O  O27  1  0.61367139  0.50965193  0.32852109  1
  O  O28  1  0.61220834  0.18594626  0.54655252  1
  O  O29  1  0.38300984  0.68262361  0.67319887  1
  O  O30  1  0.49035009  0.38632623  0.67147727  1
  O  O31  1  0.02046655  0.09003061  0.04412388  1
  O  O32  1  0.90924952  0.79643407  0.85835479  1
  O  O33  1  0.09569940  0.46666488  0.80723697  1
  O  O34  1  0.90996791  0.97953288  0.95587631  1
  O  O35  1  0.81405339  0.38778858  0.45344767  1
  O  O36  1  0.52169627  0.91263876  0.63160208  1
  O  O37  1  0.00594147  0.63265429  0.11564370  1
  O  O38  1  0.20356927  0.09075224  0.14164282  1
  O  O39  1  0.18847043  0.89869501  0.76190504  1
  O  O40  1  0.09217784  0.29351277  0.27148464  1
  O  O41  1  0.29775982  0.40301714  0.93826497  1
  O  O42  1  0.86711313  0.00384099  0.38079241  1
  O  O43  1  0.99616064  0.13288628  0.61920626  1
  O  O44  1  0.70648700  0.90782100  0.72851738  1
  O  O45  1  0.08736361  0.47830554  0.36839787  1
  O  O46  1  0.10130642  0.81153128  0.23809470  1
  O  O47  1  0.98297333  0.58760056  0.56891421  1
  O  O48  1  0.40350262  0.21183879  0.16082035  1
  O  O49  1  0.36734626  0.99405853  0.88435518  1
  O  O50  1  0.63249219  0.50381002  0.74789385  1
  O  O51  1  0.31740293  0.61698368  0.32679230  1
  O  O52  1  0.49619322  0.36750723  0.25210376  1
  O  O53  1  0.59697999  0.70223749  0.06174115  1
  O  O54  1  0.87803576  0.31203970  0.84450941  1
  O  O55  1  0.78815853  0.59649902  0.83918296  1
  O  O56  1  0.53333496  0.90430222  0.19276348  1
