# generated using pymatgen
data_KBiO2
_symmetry_space_group_name_H-M   'P 1'
_cell_length_a   5.56034222
_cell_length_b   5.56034241
_cell_length_c   6.62154470
_cell_angle_alpha   118.20681324
_cell_angle_beta   118.20680700
_cell_angle_gamma   90.34424058
_symmetry_Int_Tables_number   1
_chemical_formula_structural   KBiO2
_chemical_formula_sum   'K2 Bi2 O4'
_cell_volume   151.89041774
_cell_formula_units_Z   2
loop_
 _symmetry_equiv_pos_site_id
 _symmetry_equiv_pos_as_xyz
  1  'x, y, z'
loop_
 _atom_site_type_symbol
 _atom_site_label
 _atom_site_symmetry_multiplicity
 _atom_site_fract_x
 _atom_site_fract_y
 _atom_site_fract_z
 _atom_site_occupancy
  K  K0  1  0.37900044  0.62099956  0.75000000  1
  K  K1  1  0.62099956  0.37900044  0.25000000  1
  Bi  Bi2  1  0.14360990  0.85639010  0.25000000  1
  Bi  Bi3  1  0.85639010  0.14360990  0.75000000  1
  O  O4  1  0.09748961  0.46341342  0.22112301  1
  O  O5  1  0.53658658  0.90251039  0.27887699  1
  O  O6  1  0.46341342  0.09748961  0.72112301  1
  O  O7  1  0.90251039  0.53658658  0.77887699  1
