# generated using pymatgen
data_Tb2Se2O7
_symmetry_space_group_name_H-M   'P 1'
_cell_length_a   10.59637512
_cell_length_b   10.59637512
_cell_length_c   5.21773064
_cell_angle_alpha   90.00000000
_cell_angle_beta   90.00000000
_cell_angle_gamma   90.00000000
_symmetry_Int_Tables_number   1
_chemical_formula_structural   Tb2Se2O7
_chemical_formula_sum   'Tb8 Se8 O28'
_cell_volume   585.86331394
_cell_formula_units_Z   4
loop_
 _symmetry_equiv_pos_site_id
 _symmetry_equiv_pos_as_xyz
  1  'x, y, z'
loop_
 _atom_site_type_symbol
 _atom_site_label
 _atom_site_symmetry_multiplicity
 _atom_site_fract_x
 _atom_site_fract_y
 _atom_site_fract_z
 _atom_site_occupancy
  Tb  Tb0  1  0.12197393  0.87802607  0.75000000  1
  Tb  Tb1  1  0.37802607  0.37802607  0.25000000  1
  Tb  Tb2  1  0.62197393  0.62197393  0.25000000  1
  Tb  Tb3  1  0.87802607  0.12197393  0.75000000  1
  Tb  Tb4  1  0.37802607  0.62197393  0.75000000  1
  Tb  Tb5  1  0.12197393  0.12197393  0.25000000  1
  Tb  Tb6  1  0.87802607  0.87802607  0.25000000  1
  Tb  Tb7  1  0.62197393  0.37802607  0.75000000  1
  Se  Se8  1  0.62173209  0.12173209  0.21398745  1
  Se  Se9  1  0.37826791  0.87826791  0.21398745  1
  Se  Se10  1  0.37826791  0.12173209  0.71398745  1
  Se  Se11  1  0.62173209  0.87826791  0.71398745  1
  Se  Se12  1  0.12173209  0.62173209  0.28601255  1
  Se  Se13  1  0.12173209  0.37826791  0.78601255  1
  Se  Se14  1  0.87826791  0.62173209  0.78601255  1
  Se  Se15  1  0.87826791  0.37826791  0.28601255  1
  O  O16  1  0.75234787  0.92985105  0.87747733  1
  O  O17  1  0.24765213  0.07014895  0.87747733  1
  O  O18  1  0.57014895  0.25234787  0.37747733  1
  O  O19  1  0.42985105  0.74765213  0.37747733  1
  O  O20  1  0.92985105  0.75234787  0.62252267  1
  O  O21  1  0.25234787  0.57014895  0.12252267  1
  O  O22  1  0.74765213  0.42985105  0.12252267  1
  O  O23  1  0.07014895  0.24765213  0.62252267  1
  O  O24  1  0.74765213  0.57014895  0.62252267  1
  O  O25  1  0.25234787  0.42985105  0.62252267  1
  O  O26  1  0.92985105  0.24765213  0.12252267  1
  O  O27  1  0.07014895  0.75234787  0.12252267  1
  O  O28  1  0.57014895  0.74765213  0.87747733  1
  O  O29  1  0.24765213  0.92985105  0.37747733  1
  O  O30  1  0.75234787  0.07014895  0.37747733  1
  O  O31  1  0.42985105  0.25234787  0.87747733  1
  O  O32  1  -0.00000000  0.00000000  0.50000000  1
  O  O33  1  0.50000000  0.50000000  0.00000000  1
  O  O34  1  0.50000000  0.50000000  0.50000000  1
  O  O35  1  -0.00000000  0.00000000  0.00000000  1
  O  O36  1  0.81429940  0.31429940  0.55799408  1
  O  O37  1  0.81429940  0.68570060  0.05799408  1
  O  O38  1  0.18570060  0.31429940  0.05799408  1
  O  O39  1  0.18570060  0.68570060  0.55799408  1
  O  O40  1  0.68570060  0.81429940  0.44200592  1
  O  O41  1  0.31429940  0.18570060  0.44200592  1
  O  O42  1  0.31429940  0.81429940  0.94200592  1
  O  O43  1  0.68570060  0.18570060  0.94200592  1
