# generated using pymatgen
data_SrVF5
_symmetry_space_group_name_H-M   'P 1'
_cell_length_a   7.24434638
_cell_length_b   7.05891910
_cell_length_c   14.68691339
_cell_angle_alpha   85.28089244
_cell_angle_beta   90.00000000
_cell_angle_gamma   90.00000000
_symmetry_Int_Tables_number   1
_chemical_formula_structural   SrVF5
_chemical_formula_sum   'Sr8 V8 F40'
_cell_volume   748.50238590
_cell_formula_units_Z   8
loop_
 _symmetry_equiv_pos_site_id
 _symmetry_equiv_pos_as_xyz
  1  'x, y, z'
loop_
 _atom_site_type_symbol
 _atom_site_label
 _atom_site_symmetry_multiplicity
 _atom_site_fract_x
 _atom_site_fract_y
 _atom_site_fract_z
 _atom_site_occupancy
  Sr  Sr0  1  0.15654347  0.99771544  0.63823854  1
  Sr  Sr1  1  0.65654347  0.00228456  0.86176146  1
  Sr  Sr2  1  0.84345653  0.00228456  0.36176146  1
  Sr  Sr3  1  0.34345653  0.99771544  0.13823854  1
  Sr  Sr4  1  0.66045587  0.30742538  0.58443590  1
  Sr  Sr5  1  0.16045587  0.69257462  0.91556410  1
  Sr  Sr6  1  0.33954413  0.69257462  0.41556410  1
  Sr  Sr7  1  0.83954413  0.30742538  0.08443590  1
  V  V8  1  0.18452854  0.19012065  0.87448905  1
  V  V9  1  0.68452854  0.80987935  0.62551095  1
  V  V10  1  0.81547146  0.80987935  0.12551095  1
  V  V11  1  0.31547146  0.19012065  0.37448905  1
  V  V12  1  0.11918222  0.49271849  0.66339772  1
  V  V13  1  0.61918222  0.50728151  0.83660228  1
  V  V14  1  0.88081778  0.50728151  0.33660228  1
  V  V15  1  0.38081778  0.49271849  0.16339772  1
  F  F16  1  0.32536695  0.04269314  0.96506578  1
  F  F17  1  0.82536695  0.95730686  0.53493422  1
  F  F18  1  0.67463305  0.95730686  0.03493422  1
  F  F19  1  0.17463305  0.04269314  0.46506578  1
  F  F20  1  0.07941196  0.34830246  0.95930391  1
  F  F21  1  0.57941196  0.65169754  0.54069609  1
  F  F22  1  0.92058804  0.65169754  0.04069609  1
  F  F23  1  0.42058804  0.34830246  0.45930391  1
  F  F24  1  0.36530130  0.40242620  0.85158904  1
  F  F25  1  0.86530130  0.59757380  0.64841096  1
  F  F26  1  0.63469870  0.59757380  0.14841096  1
  F  F27  1  0.13469870  0.40242620  0.35158904  1
  F  F28  1  0.31292028  0.02865743  0.79371350  1
  F  F29  1  0.81292028  0.97134257  0.70628650  1
  F  F30  1  0.68707972  0.97134257  0.20628650  1
  F  F31  1  0.18707972  0.02865743  0.29371350  1
  F  F32  1  0.49590200  0.30205128  0.09447706  1
  F  F33  1  0.99590200  0.69794872  0.40552294  1
  F  F34  1  0.50409800  0.69794872  0.90552294  1
  F  F35  1  0.00409800  0.30205128  0.59447706  1
  F  F36  1  0.30473872  0.68683938  0.06847438  1
  F  F37  1  0.80473872  0.31316062  0.43152562  1
  F  F38  1  0.69526128  0.31316062  0.93152562  1
  F  F39  1  0.19526128  0.68683938  0.56847438  1
  F  F40  1  0.33974581  0.68674615  0.24416913  1
  F  F41  1  0.83974581  0.31325385  0.25583087  1
  F  F42  1  0.66025419  0.31325385  0.75583087  1
  F  F43  1  0.16025419  0.68674615  0.74416913  1
  F  F44  1  0.44733907  0.30384134  0.26998968  1
  F  F45  1  0.94733907  0.69615866  0.23001032  1
  F  F46  1  0.55266093  0.69615866  0.73001032  1
  F  F47  1  0.05266093  0.30384134  0.76998968  1
  F  F48  1  0.16187432  0.35422497  0.15078438  1
  F  F49  1  0.66187432  0.64577503  0.34921562  1
  F  F50  1  0.83812568  0.64577503  0.84921562  1
  F  F51  1  0.33812568  0.35422497  0.65078438  1
  F  F52  1  0.51105708  0.99673697  0.39300020  1
  F  F53  1  0.01105708  0.00326303  0.10699980  1
  F  F54  1  0.48894292  0.00326303  0.60699980  1
  F  F55  1  0.98894292  0.99673697  0.89300020  1
