# generated using pymatgen
data_Zn3(PO4)2
_symmetry_space_group_name_H-M   'P 1'
_cell_length_a   8.43896022
_cell_length_b   5.03709558
_cell_length_c   8.64274166
_cell_angle_alpha   60.14901837
_cell_angle_beta   90.00000000
_cell_angle_gamma   90.00000000
_symmetry_Int_Tables_number   1
_chemical_formula_structural   Zn3(PO4)2
_chemical_formula_sum   'Zn6 P4 O16'
_cell_volume   318.64086895
_cell_formula_units_Z   2
loop_
 _symmetry_equiv_pos_site_id
 _symmetry_equiv_pos_as_xyz
  1  'x, y, z'
loop_
 _atom_site_type_symbol
 _atom_site_label
 _atom_site_symmetry_multiplicity
 _atom_site_fract_x
 _atom_site_fract_y
 _atom_site_fract_z
 _atom_site_occupancy
  Zn  Zn0  1  0.86211114  0.04471502  0.37986199  1
  Zn  Zn1  1  0.36211114  0.95528498  0.12013801  1
  Zn  Zn2  1  0.13788886  0.95528498  0.62013801  1
  Zn  Zn3  1  0.63788886  0.04471502  0.87986199  1
  Zn  Zn4  1  0.50000000  0.00000000  0.50000000  1
  Zn  Zn5  1  -0.00000000  0.00000000  -0.00000000  1
  P  P6  1  0.19111187  0.33613426  0.19636573  1
  P  P7  1  0.69111187  0.66386574  0.30363427  1
  P  P8  1  0.80888813  0.66386574  0.80363427  1
  P  P9  1  0.30888813  0.33613426  0.69636573  1
  O  O10  1  0.35672484  0.18302275  0.25224082  1
  O  O11  1  0.85672484  0.81697725  0.24775918  1
  O  O12  1  0.64327516  0.81697725  0.74775918  1
  O  O13  1  0.14327516  0.18302275  0.75224082  1
  O  O14  1  0.08006436  0.19322355  0.35971585  1
  O  O15  1  0.58006436  0.80677645  0.14028415  1
  O  O16  1  0.91993564  0.80677645  0.64028415  1
  O  O17  1  0.41993564  0.19322355  0.85971585  1
  O  O18  1  0.19798397  0.68186591  0.12705423  1
  O  O19  1  0.69798397  0.31813409  0.37294577  1
  O  O20  1  0.36928321  0.27442304  0.55121540  1
  O  O21  1  0.86928321  0.72557696  0.94878460  1
  O  O22  1  0.63071679  0.72557696  0.44878460  1
  O  O23  1  0.13071679  0.27442304  0.05121540  1
  O  O24  1  0.30201603  0.68186591  0.62705423  1
  O  O25  1  0.80201603  0.31813409  0.87294577  1
