# generated using pymatgen
data_Sr5Mo2N7
_symmetry_space_group_name_H-M   'P 1'
_cell_length_a   6.46098136
_cell_length_b   9.26864479
_cell_length_c   9.32977331
_cell_angle_alpha   115.26434940
_cell_angle_beta   96.65521289
_cell_angle_gamma   89.37842842
_symmetry_Int_Tables_number   1
_chemical_formula_structural   Sr5Mo2N7
_chemical_formula_sum   'Sr10 Mo4 N14'
_cell_volume   501.39903287
_cell_formula_units_Z   2
loop_
 _symmetry_equiv_pos_site_id
 _symmetry_equiv_pos_as_xyz
  1  'x, y, z'
loop_
 _atom_site_type_symbol
 _atom_site_label
 _atom_site_symmetry_multiplicity
 _atom_site_fract_x
 _atom_site_fract_y
 _atom_site_fract_z
 _atom_site_occupancy
  Sr  Sr0  1  0.84716479  0.59064084  0.32529351  1
  Sr  Sr1  1  0.26296659  0.98856349  0.55959895  1
  Sr  Sr2  1  0.70598654  0.41558396  0.85180117  1
  Sr  Sr3  1  0.29401346  0.58441604  0.14819883  1
  Sr  Sr4  1  0.40412543  0.79110536  0.92335297  1
  Sr  Sr5  1  0.59587457  0.20889464  0.07664703  1
  Sr  Sr6  1  0.15283521  0.40935916  0.67470649  1
  Sr  Sr7  1  0.89697520  0.84527204  0.76169174  1
  Sr  Sr8  1  0.10302480  0.15472796  0.23830826  1
  Sr  Sr9  1  0.73703341  0.01143651  0.44040105  1
  Mo  Mo10  1  0.57842507  0.35617362  0.47473622  1
  Mo  Mo11  1  0.42157493  0.64382638  0.52526378  1
  Mo  Mo12  1  0.12001218  0.21515133  0.91352363  1
  Mo  Mo13  1  0.87998782  0.78484867  0.08647637  1
  N  N14  1  0.53225318  0.55168758  0.67636795  1
  N  N15  1  0.46774682  0.44831242  0.32363205  1
  N  N16  1  0.15279173  0.70112779  0.55165638  1
  N  N17  1  0.84720827  0.29887221  0.44834362  1
  N  N18  1  0.41132934  0.19172473  0.46451898  1
  N  N19  1  0.58867066  0.80827527  0.53548102  1
  N  N20  1  0.95155360  0.13627271  0.71723961  1
  N  N21  1  0.04844640  0.86372729  0.28276039  1
  N  N22  1  0.23042897  0.05099712  0.95853108  1
  N  N23  1  0.76957103  0.94900288  0.04146892  1
  N  N24  1  0.35004521  0.32710625  0.89920408  1
  N  N25  1  0.96719230  0.34640015  0.07750434  1
  N  N26  1  0.03280770  0.65359985  0.92249566  1
  N  N27  1  0.64995479  0.67289375  0.10079592  1
