# generated using pymatgen
data_PdSCl
_symmetry_space_group_name_H-M   'P 1'
_cell_length_a   7.80341346
_cell_length_b   9.39682600
_cell_length_c   11.99312538
_cell_angle_alpha   90.00000000
_cell_angle_beta   90.00000000
_cell_angle_gamma   109.95370230
_symmetry_Int_Tables_number   1
_chemical_formula_structural   PdSCl
_chemical_formula_sum   'Pd12 S12 Cl12'
_cell_volume   826.63075948
_cell_formula_units_Z   12
loop_
 _symmetry_equiv_pos_site_id
 _symmetry_equiv_pos_as_xyz
  1  'x, y, z'
loop_
 _atom_site_type_symbol
 _atom_site_label
 _atom_site_symmetry_multiplicity
 _atom_site_fract_x
 _atom_site_fract_y
 _atom_site_fract_z
 _atom_site_occupancy
  Pd  Pd0  1  0.88839287  0.89803337  0.37131473  1
  Pd  Pd1  1  0.11160713  0.10196663  0.87131473  1
  Pd  Pd2  1  0.11160713  0.10196663  0.62868527  1
  Pd  Pd3  1  0.88839287  0.89803337  0.12868527  1
  Pd  Pd4  1  0.58967396  0.55723168  0.37272167  1
  Pd  Pd5  1  0.41032604  0.44276832  0.87272167  1
  Pd  Pd6  1  0.41032604  0.44276832  0.62727833  1
  Pd  Pd7  1  0.58967396  0.55723168  0.12727833  1
  Pd  Pd8  1  0.14363555  0.79007393  0.25000000  1
  Pd  Pd9  1  0.85636445  0.20992607  0.75000000  1
  Pd  Pd10  1  0.84312796  0.44888947  0.25000000  1
  Pd  Pd11  1  0.15687204  0.55111053  0.75000000  1
  S  S12  1  0.03662164  0.60063706  0.12292473  1
  S  S13  1  0.14744066  0.31958841  0.53292377  1
  S  S14  1  0.85255934  0.68041159  0.03292377  1
  S  S15  1  0.96337836  0.39936294  0.62292473  1
  S  S16  1  0.85255934  0.68041159  0.46707623  1
  S  S17  1  0.03662164  0.60063706  0.37707527  1
  S  S18  1  0.96337836  0.39936294  0.87707527  1
  S  S19  1  0.58320335  0.79447979  0.33853993  1
  S  S20  1  0.41679665  0.20552021  0.83853993  1
  S  S21  1  0.41679665  0.20552021  0.66146007  1
  S  S22  1  0.58320335  0.79447979  0.16146007  1
  S  S23  1  0.14744066  0.31958841  0.96707623  1
  Cl  Cl24  1  0.63810286  0.32051705  0.39524178  1
  Cl  Cl25  1  0.63810286  0.32051705  0.10475822  1
  Cl  Cl26  1  0.36189714  0.67948295  0.60475822  1
  Cl  Cl27  1  0.33531108  0.45018597  0.25000000  1
  Cl  Cl28  1  0.66468892  0.54981403  0.75000000  1
  Cl  Cl29  1  0.78720519  0.02491917  0.89529076  1
  Cl  Cl30  1  0.09456512  0.89496131  0.75000000  1
  Cl  Cl31  1  0.21279481  0.97508083  0.10470924  1
  Cl  Cl32  1  0.78720519  0.02491917  0.60470924  1
  Cl  Cl33  1  0.90543488  0.10503869  0.25000000  1
  Cl  Cl34  1  0.36189714  0.67948295  0.89524178  1
  Cl  Cl35  1  0.21279481  0.97508083  0.39529076  1
