# generated using pymatgen
data_RbBO2
_symmetry_space_group_name_H-M   'P 1'
_cell_length_a   8.02591370
_cell_length_b   8.02591370
_cell_length_c   8.02591373
_cell_angle_alpha   110.24646571
_cell_angle_beta   110.24646571
_cell_angle_gamma   110.24647681
_symmetry_Int_Tables_number   1
_chemical_formula_structural   RbBO2
_chemical_formula_sum   'Rb6 B6 O12'
_cell_volume   386.13523950
_cell_formula_units_Z   6
loop_
 _symmetry_equiv_pos_site_id
 _symmetry_equiv_pos_as_xyz
  1  'x, y, z'
loop_
 _atom_site_type_symbol
 _atom_site_label
 _atom_site_symmetry_multiplicity
 _atom_site_fract_x
 _atom_site_fract_y
 _atom_site_fract_z
 _atom_site_occupancy
  Rb  Rb0  1  0.75000000  0.18822263  0.31177737  1
  Rb  Rb1  1  0.31177737  0.75000000  0.18822263  1
  Rb  Rb2  1  0.18822263  0.31177737  0.75000000  1
  Rb  Rb3  1  0.25000000  0.81177737  0.68822263  1
  Rb  Rb4  1  0.68822263  0.25000000  0.81177737  1
  Rb  Rb5  1  0.81177737  0.68822263  0.25000000  1
  B  B6  1  0.75000000  0.86006083  0.63993917  1
  B  B7  1  0.63993917  0.75000000  0.86006083  1
  B  B8  1  0.86006083  0.63993917  0.75000000  1
  B  B9  1  0.25000000  0.13993917  0.36006083  1
  B  B10  1  0.36006083  0.25000000  0.13993917  1
  B  B11  1  0.13993917  0.36006083  0.25000000  1
  O  O12  1  0.03996545  0.46003455  0.25000000  1
  O  O13  1  0.46003455  0.25000000  0.03996545  1
  O  O14  1  0.25000000  0.03996545  0.46003455  1
  O  O15  1  0.96003455  0.53996545  0.75000000  1
  O  O16  1  0.53996545  0.75000000  0.96003455  1
  O  O17  1  0.75000000  0.96003455  0.53996545  1
  O  O18  1  0.25000000  0.35492929  0.14507071  1
  O  O19  1  0.35492929  0.14507071  0.25000000  1
  O  O20  1  0.14507071  0.25000000  0.35492929  1
  O  O21  1  0.75000000  0.64507071  0.85492929  1
  O  O22  1  0.64507071  0.85492929  0.75000000  1
  O  O23  1  0.85492929  0.75000000  0.64507071  1
