# generated using pymatgen
data_Nd3NbO7
_symmetry_space_group_name_H-M   'P 1'
_cell_length_a   6.64801780
_cell_length_b   6.64801780
_cell_length_c   7.70319769
_cell_angle_alpha   90.00000000
_cell_angle_beta   90.00000000
_cell_angle_gamma   111.36528280
_symmetry_Int_Tables_number   1
_chemical_formula_structural   Nd3NbO7
_chemical_formula_sum   'Nd6 Nb2 O14'
_cell_volume   317.05466261
_cell_formula_units_Z   2
loop_
 _symmetry_equiv_pos_site_id
 _symmetry_equiv_pos_as_xyz
  1  'x, y, z'
loop_
 _atom_site_type_symbol
 _atom_site_label
 _atom_site_symmetry_multiplicity
 _atom_site_fract_x
 _atom_site_fract_y
 _atom_site_fract_z
 _atom_site_occupancy
  Nd  Nd0  1  0.92862226  0.47731075  0.75000000  1
  Nd  Nd1  1  0.07137774  0.52268925  0.25000000  1
  Nd  Nd2  1  0.00000000  0.00000000  0.50000000  1
  Nd  Nd3  1  0.00000000  0.00000000  -0.00000000  1
  Nd  Nd4  1  0.52268925  0.07137774  0.25000000  1
  Nd  Nd5  1  0.47731075  0.92862226  0.75000000  1
  Nb  Nb6  1  0.50000000  0.50000000  -0.00000000  1
  Nb  Nb7  1  0.50000000  0.50000000  0.50000000  1
  O  O8  1  0.57378582  0.57378582  0.75000000  1
  O  O9  1  0.42621418  0.42621418  0.25000000  1
  O  O10  1  0.84553565  0.10758601  0.75000000  1
  O  O11  1  0.15446435  0.89241399  0.25000000  1
  O  O12  1  0.10758601  0.84553565  0.75000000  1
  O  O13  1  0.89241399  0.15446435  0.25000000  1
  O  O14  1  0.43795581  0.18406675  0.96425104  1
  O  O15  1  0.56204419  0.81593325  0.46425104  1
  O  O16  1  0.18406675  0.43795581  0.96425104  1
  O  O17  1  0.81593325  0.56204419  0.46425104  1
  O  O18  1  0.43795581  0.18406675  0.53574896  1
  O  O19  1  0.56204419  0.81593325  0.03574896  1
  O  O20  1  0.81593325  0.56204419  0.03574896  1
  O  O21  1  0.18406675  0.43795581  0.53574896  1
