# generated using pymatgen
data_Tl2TeBr6
_symmetry_space_group_name_H-M   'P 1'
_cell_length_a   7.38095284
_cell_length_b   7.38095284
_cell_length_c   11.11989212
_cell_angle_alpha   90.00000000
_cell_angle_beta   90.00000000
_cell_angle_gamma   90.00000000
_symmetry_Int_Tables_number   1
_chemical_formula_structural   Tl2TeBr6
_chemical_formula_sum   'Tl4 Te2 Br12'
_cell_volume   605.79465173
_cell_formula_units_Z   2
loop_
 _symmetry_equiv_pos_site_id
 _symmetry_equiv_pos_as_xyz
  1  'x, y, z'
loop_
 _atom_site_type_symbol
 _atom_site_label
 _atom_site_symmetry_multiplicity
 _atom_site_fract_x
 _atom_site_fract_y
 _atom_site_fract_z
 _atom_site_occupancy
  Tl  Tl0  1  0.50000000  -0.00000000  0.75000000  1
  Tl  Tl1  1  -0.00000000  0.50000000  0.75000000  1
  Tl  Tl2  1  0.50000000  -0.00000000  0.25000000  1
  Tl  Tl3  1  -0.00000000  0.50000000  0.25000000  1
  Te  Te4  1  0.50000000  0.50000000  0.50000000  1
  Te  Te5  1  -0.00000000  -0.00000000  0.00000000  1
  Br  Br6  1  0.19237437  0.29882539  0.50000000  1
  Br  Br7  1  0.80762563  0.70117461  0.50000000  1
  Br  Br8  1  0.79882539  0.69237437  0.00000000  1
  Br  Br9  1  0.29882539  0.80762563  0.50000000  1
  Br  Br10  1  0.70117461  0.19237437  0.50000000  1
  Br  Br11  1  0.30762563  0.79882539  0.00000000  1
  Br  Br12  1  -0.00000000  -0.00000000  0.24508283  1
  Br  Br13  1  0.50000000  0.50000000  0.25491717  1
  Br  Br14  1  -0.00000000  -0.00000000  0.75491717  1
  Br  Br15  1  0.50000000  0.50000000  0.74508283  1
  Br  Br16  1  0.20117461  0.30762563  0.00000000  1
  Br  Br17  1  0.69237437  0.20117461  0.00000000  1
