# generated using pymatgen
data_CaCO3
_symmetry_space_group_name_H-M   'P 1'
_cell_length_a   6.35844783
_cell_length_b   6.35844725
_cell_length_c   6.35844589
_cell_angle_alpha   46.37140907
_cell_angle_beta   46.37142260
_cell_angle_gamma   46.37141314
_symmetry_Int_Tables_number   1
_chemical_formula_structural   CaCO3
_chemical_formula_sum   'Ca2 C2 O6'
_cell_volume   122.94950722
_cell_formula_units_Z   2
loop_
 _symmetry_equiv_pos_site_id
 _symmetry_equiv_pos_as_xyz
  1  'x, y, z'
loop_
 _atom_site_type_symbol
 _atom_site_label
 _atom_site_symmetry_multiplicity
 _atom_site_fract_x
 _atom_site_fract_y
 _atom_site_fract_z
 _atom_site_occupancy
  Ca  Ca0  1  0.50000000  0.50000000  0.50000000  1
  Ca  Ca1  1  -0.00000000  0.00000000  -0.00000000  1
  C  C2  1  0.75000000  0.75000000  0.75000000  1
  C  C3  1  0.25000000  0.25000000  0.25000000  1
  O  O4  1  0.75000000  0.49216771  0.00783229  1
  O  O5  1  0.00783229  0.75000000  0.49216771  1
  O  O6  1  0.50783229  0.99216771  0.25000000  1
  O  O7  1  0.25000000  0.50783229  0.99216771  1
  O  O8  1  0.99216771  0.25000000  0.50783229  1
  O  O9  1  0.49216771  0.00783229  0.75000000  1
