# generated using pymatgen
data_K2GaSb2
_symmetry_space_group_name_H-M   'P 1'
_cell_length_a   9.20969207
_cell_length_b   10.40780672
_cell_length_c   15.14599248
_cell_angle_alpha   90.00000000
_cell_angle_beta   90.00000000
_cell_angle_gamma   90.00000000
_symmetry_Int_Tables_number   1
_chemical_formula_structural   K2GaSb2
_chemical_formula_sum   'K16 Ga8 Sb16'
_cell_volume   1451.78419789
_cell_formula_units_Z   8
loop_
 _symmetry_equiv_pos_site_id
 _symmetry_equiv_pos_as_xyz
  1  'x, y, z'
loop_
 _atom_site_type_symbol
 _atom_site_label
 _atom_site_symmetry_multiplicity
 _atom_site_fract_x
 _atom_site_fract_y
 _atom_site_fract_z
 _atom_site_occupancy
  K  K0  1  0.77063392  0.02635301  0.51477479  1
  K  K1  1  0.72936608  0.47364699  0.01477479  1
  K  K2  1  0.22936608  0.52635301  0.48522521  1
  K  K3  1  0.27063392  0.97364699  0.98522521  1
  K  K4  1  0.27063392  0.52635301  0.98522521  1
  K  K5  1  0.77063392  0.47364699  0.51477479  1
  K  K6  1  0.72936608  0.02635301  0.01477479  1
  K  K7  1  0.22936608  0.97364699  0.48522521  1
  K  K8  1  0.41141248  0.53011553  0.73472017  1
  K  K9  1  0.91141248  0.46988447  0.76527983  1
  K  K10  1  0.58858752  0.03011553  0.26527983  1
  K  K11  1  0.91141248  0.03011553  0.76527983  1
  K  K12  1  0.58858752  0.46988447  0.26527983  1
  K  K13  1  0.08858752  0.53011553  0.23472017  1
  K  K14  1  0.41141248  0.96988447  0.73472017  1
  K  K15  1  0.08858752  0.96988447  0.23472017  1
  Ga  Ga16  1  0.58286314  0.75000000  0.40523474  1
  Ga  Ga17  1  0.27520674  0.25000000  0.32162393  1
  Ga  Ga18  1  0.22479326  0.25000000  0.82162393  1
  Ga  Ga19  1  0.72479326  0.75000000  0.67837607  1
  Ga  Ga20  1  0.08286314  0.25000000  0.09476526  1
  Ga  Ga21  1  0.91713686  0.75000000  0.90523474  1
  Ga  Ga22  1  0.41713686  0.25000000  0.59476526  1
  Ga  Ga23  1  0.77520674  0.75000000  0.17837607  1
  Sb  Sb24  1  0.84570178  0.75000000  0.34704707  1
  Sb  Sb25  1  0.00419904  0.25000000  0.93089408  1
  Sb  Sb26  1  0.49580096  0.25000000  0.43089408  1
  Sb  Sb27  1  0.99580096  0.75000000  0.06910592  1
  Sb  Sb28  1  0.50419904  0.75000000  0.56910592  1
  Sb  Sb29  1  0.34570178  0.25000000  0.15295293  1
  Sb  Sb30  1  0.15429822  0.25000000  0.65295293  1
  Sb  Sb31  1  0.65429822  0.75000000  0.84704707  1
  Sb  Sb32  1  0.50526094  0.75000000  0.12872796  1
  Sb  Sb33  1  0.00526094  0.25000000  0.37127204  1
  Sb  Sb34  1  0.49473906  0.25000000  0.87127204  1
  Sb  Sb35  1  0.99473906  0.75000000  0.62872796  1
  Sb  Sb36  1  0.36570149  0.75000000  0.29761897  1
  Sb  Sb37  1  0.86570149  0.25000000  0.20238103  1
  Sb  Sb38  1  0.63429851  0.25000000  0.70238103  1
  Sb  Sb39  1  0.13429851  0.75000000  0.79761897  1
