# generated using pymatgen
data_Ac2S3
_symmetry_space_group_name_H-M   'P 1'
_cell_length_a   14.99785071
_cell_length_b   14.99785071
_cell_length_c   14.99785071
_cell_angle_alpha   144.74213868
_cell_angle_beta   144.74213868
_cell_angle_gamma   50.71896322
_symmetry_Int_Tables_number   1
_chemical_formula_structural   Ac2S3
_chemical_formula_sum   'Ac16 S24'
_cell_volume   1118.40785201
_cell_formula_units_Z   8
loop_
 _symmetry_equiv_pos_site_id
 _symmetry_equiv_pos_as_xyz
  1  'x, y, z'
loop_
 _atom_site_type_symbol
 _atom_site_label
 _atom_site_symmetry_multiplicity
 _atom_site_fract_x
 _atom_site_fract_y
 _atom_site_fract_z
 _atom_site_occupancy
  Ac  Ac0  1  0.85444233  0.95202411  0.38304371  1
  Ac  Ac1  1  0.16446854  0.16446854  0.00000000  1
  Ac  Ac2  1  0.87500000  0.50479445  0.12979445  1
  Ac  Ac3  1  0.18101860  0.29797589  0.40241722  1
  Ac  Ac4  1  0.58553146  0.08553146  0.50000000  1
  Ac  Ac5  1  0.89555767  0.77860138  0.59758278  1
  Ac  Ac6  1  0.37500000  0.74520555  0.87020555  1
  Ac  Ac7  1  0.22139862  0.81898140  0.11695629  1
  Ac  Ac8  1  0.91446854  0.41446854  0.50000000  1
  Ac  Ac9  1  0.49520555  0.62500000  0.37020555  1
  Ac  Ac10  1  0.70202411  0.10444233  0.88304371  1
  Ac  Ac11  1  0.25479445  0.12500000  0.62979445  1
  Ac  Ac12  1  0.83553146  0.83553146  0.00000000  1
  Ac  Ac13  1  0.52860138  0.14555767  0.09758278  1
  Ac  Ac14  1  0.04797589  0.43101860  0.90241722  1
  Ac  Ac15  1  0.56898140  0.47139862  0.61695629  1
  S  S16  1  0.50632632  0.11281202  0.25282110  1
  S  S17  1  0.07138560  0.82710835  0.61021543  1
  S  S18  1  0.85998992  0.25350423  0.74717890  1
  S  S19  1  0.89001008  0.13718798  0.89351431  1
  S  S20  1  0.24367368  0.99649577  0.10648569  1
  S  S21  1  0.21689291  0.46117017  0.38978457  1
  S  S22  1  0.85111130  0.43522314  0.25280953  1
  S  S23  1  0.53310709  0.42289165  0.74427726  1
  S  S24  1  0.40169822  0.14888870  0.58411184  1
  S  S25  1  0.18241361  0.59830178  0.74719047  1
  S  S26  1  0.67861440  0.78882983  0.25572274  1
  S  S27  1  0.21117017  0.46689291  0.88978457  1
  S  S28  1  0.57710835  0.32138560  0.11021543  1
  S  S29  1  0.56477686  0.81758639  0.41588816  1
  S  S30  1  0.17289165  0.78310709  0.24427726  1
  S  S31  1  0.86281202  0.75632632  0.75282110  1
  S  S32  1  0.74649577  0.49367368  0.60648569  1
  S  S33  1  0.53882983  0.92861440  0.75572274  1
  S  S34  1  0.00350423  0.10998992  0.24717890  1
  S  S35  1  0.56758639  0.81477686  0.91588816  1
  S  S36  1  0.89888870  0.65169822  0.08411184  1
  S  S37  1  0.88718798  0.14001008  0.39351431  1
  S  S38  1  0.18522314  0.10111130  0.75280953  1
  S  S39  1  0.34830178  0.43241361  0.24719047  1
