# generated using pymatgen
data_Bi5NO10
_symmetry_space_group_name_H-M   'P 1'
_cell_length_a   23.15030025
_cell_length_b   5.55456574
_cell_length_c   8.66608568
_cell_angle_alpha   71.06435957
_cell_angle_beta   90.00000000
_cell_angle_gamma   90.00000000
_symmetry_Int_Tables_number   1
_chemical_formula_structural   Bi5NO10
_chemical_formula_sum   'Bi20 N4 O40'
_cell_volume   1054.06514379
_cell_formula_units_Z   4
loop_
 _symmetry_equiv_pos_site_id
 _symmetry_equiv_pos_as_xyz
  1  'x, y, z'
loop_
 _atom_site_type_symbol
 _atom_site_label
 _atom_site_symmetry_multiplicity
 _atom_site_fract_x
 _atom_site_fract_y
 _atom_site_fract_z
 _atom_site_occupancy
  Bi  Bi0  1  0.79971570  0.79632602  0.00203514  1
  Bi  Bi1  1  0.29971570  0.70367398  0.99796486  1
  Bi  Bi2  1  0.20028430  0.20367398  0.99796486  1
  Bi  Bi3  1  0.70028430  0.29632602  0.00203514  1
  Bi  Bi4  1  0.68748580  0.55425061  0.34972998  1
  Bi  Bi5  1  0.18748580  0.94574939  0.65027002  1
  Bi  Bi6  1  0.31251420  0.44574939  0.65027002  1
  Bi  Bi7  1  0.81251420  0.05425061  0.34972998  1
  Bi  Bi8  1  0.69045084  0.95827456  0.65439065  1
  Bi  Bi9  1  0.19045084  0.54172544  0.34560935  1
  Bi  Bi10  1  0.30954916  0.04172544  0.34560935  1
  Bi  Bi11  1  0.80954916  0.45827456  0.65439065  1
  Bi  Bi12  1  0.93996786  0.60107532  0.30369122  1
  Bi  Bi13  1  0.43996786  0.89892468  0.69630878  1
  Bi  Bi14  1  0.06003214  0.39892468  0.69630878  1
  Bi  Bi15  1  0.56003214  0.10107532  0.30369122  1
  Bi  Bi16  1  0.93855900  0.95699939  0.64061475  1
  Bi  Bi17  1  0.43855900  0.54300061  0.35938525  1
  Bi  Bi18  1  0.06144100  0.04300061  0.35938525  1
  Bi  Bi19  1  0.56144100  0.45699939  0.64061475  1
  N  N20  1  0.57322109  0.80934629  0.99904035  1
  N  N21  1  0.92677891  0.30934629  0.99904035  1
  N  N22  1  0.42677891  0.19065371  0.00095965  1
  N  N23  1  0.07322109  0.69065371  0.00095965  1
  O  O24  1  0.25545261  0.76603850  0.51570508  1
  O  O25  1  0.08406384  0.68202498  0.14592341  1
  O  O26  1  0.41593616  0.18202498  0.14592341  1
  O  O27  1  0.91593616  0.31797502  0.85407659  1
  O  O28  1  0.60981955  0.90020538  0.07496243  1
  O  O29  1  0.10981955  0.59979462  0.92503757  1
  O  O30  1  0.39018045  0.09979462  0.92503757  1
  O  O31  1  0.89018045  0.40020538  0.07496243  1
  O  O32  1  0.52711712  0.71528176  0.06698786  1
  O  O33  1  0.97288288  0.21528176  0.06698786  1
  O  O34  1  0.47288288  0.28471824  0.93301214  1
  O  O35  1  0.02711712  0.78471824  0.93301214  1
  O  O36  1  0.73574085  0.06143558  0.84052253  1
  O  O37  1  0.23574085  0.43856442  0.15947747  1
  O  O38  1  0.26425915  0.93856442  0.15947747  1
  O  O39  1  0.76425915  0.56143558  0.84052253  1
  O  O40  1  0.75545261  0.73396150  0.48429492  1
  O  O41  1  0.58406384  0.81797502  0.85407659  1
  O  O42  1  0.24454739  0.26603850  0.51570508  1
  O  O43  1  0.74454739  0.23396150  0.48429492  1
  O  O44  1  0.59899837  0.80040970  0.48878374  1
  O  O45  1  0.09899837  0.69959030  0.51121626  1
  O  O46  1  0.40100163  0.19959030  0.51121626  1
  O  O47  1  0.90100163  0.30040970  0.48878374  1
  O  O48  1  0.75358740  0.00289321  0.14941198  1
  O  O49  1  0.25358740  0.49710679  0.85058802  1
  O  O50  1  0.24641260  -0.00289321  0.85058802  1
  O  O51  1  0.74641260  0.50289321  0.14941198  1
  O  O52  1  0.97277896  0.80719330  0.46090767  1
  O  O53  1  0.35440453  0.67886873  0.39853230  1
  O  O54  1  0.14559547  0.17886873  0.39853230  1
  O  O55  1  0.64559547  0.32113127  0.60146770  1
  O  O56  1  0.64013033  0.27399261  0.24996400  1
  O  O57  1  0.14013033  0.22600739  0.75003600  1
  O  O58  1  0.35986967  0.72600739  0.75003600  1
  O  O59  1  0.85986967  0.77399261  0.24996400  1
  O  O60  1  0.52722104  0.30719330  0.46090767  1
  O  O61  1  0.02722104  0.19280670  0.53909233  1
  O  O62  1  0.47277896  0.69280670  0.53909233  1
  O  O63  1  0.85440453  0.82113127  0.60146770  1
