# generated using pymatgen
data_Ga3PO7
_symmetry_space_group_name_H-M   'P 1'
_cell_length_a   5.09145712
_cell_length_b   5.09145712
_cell_length_c   5.09145715
_cell_angle_alpha   101.98184081
_cell_angle_beta   101.98184081
_cell_angle_gamma   101.98183570
_symmetry_Int_Tables_number   1
_chemical_formula_structural   Ga3PO7
_chemical_formula_sum   'Ga3 P1 O7'
_cell_volume   121.88560945
_cell_formula_units_Z   1
loop_
 _symmetry_equiv_pos_site_id
 _symmetry_equiv_pos_as_xyz
  1  'x, y, z'
loop_
 _atom_site_type_symbol
 _atom_site_label
 _atom_site_symmetry_multiplicity
 _atom_site_fract_x
 _atom_site_fract_y
 _atom_site_fract_z
 _atom_site_occupancy
  Ga  Ga0  1  0.97347465  0.58375344  0.58375344  1
  Ga  Ga1  1  0.58375344  0.58375344  0.97347465  1
  Ga  Ga2  1  0.58375344  0.97347465  0.58375344  1
  P  P3  1  0.12391461  0.12391461  0.12391461  1
  O  O4  1  0.97072684  0.28998101  0.28998101  1
  O  O5  1  0.73499204  0.73499204  0.35576564  1
  O  O6  1  0.35576564  0.73499204  0.73499204  1
  O  O7  1  0.28998101  0.28998101  0.97072684  1
  O  O8  1  0.28998101  0.97072684  0.28998101  1
  O  O9  1  0.89020027  0.89020027  0.89020027  1
  O  O10  1  0.73499204  0.35576564  0.73499204  1
