# generated using pymatgen
data_La2S3
_symmetry_space_group_name_H-M   'P 1'
_cell_length_a   14.49094774
_cell_length_b   14.49093446
_cell_length_c   14.49085540
_cell_angle_alpha   144.74074988
_cell_angle_beta   144.74011576
_cell_angle_gamma   50.72169340
_symmetry_Int_Tables_number   1
_chemical_formula_structural   La2S3
_chemical_formula_sum   'La16 S24'
_cell_volume   1008.87211565
_cell_formula_units_Z   8
loop_
 _symmetry_equiv_pos_site_id
 _symmetry_equiv_pos_as_xyz
  1  'x, y, z'
loop_
 _atom_site_type_symbol
 _atom_site_label
 _atom_site_symmetry_multiplicity
 _atom_site_fract_x
 _atom_site_fract_y
 _atom_site_fract_z
 _atom_site_occupancy
  La  La0  1  0.16470248  0.16468768  -0.00001897  1
  La  La1  1  0.87501111  0.50456735  0.12954774  1
  La  La2  1  0.17962968  0.29782676  0.40038581  1
  La  La3  1  0.58530970  0.08525806  0.49997267  1
  La  La4  1  0.89740719  0.77921930  0.59957071  1
  La  La5  1  0.37500462  0.74546609  0.87045163  1
  La  La6  1  0.22075495  0.82041093  0.11822628  1
  La  La7  1  0.49543886  0.62497753  0.37044283  1
  La  La8  1  0.91470605  0.41469688  0.49999909  1
  La  La9  1  0.25453956  0.12498773  0.62954657  1
  La  La10  1  0.70220598  0.10251475  0.88178310  1
  La  La11  1  0.83529087  0.83529951  -0.00000293  1
  La  La12  1  0.52924504  0.14744133  0.09961905  1
  La  La13  1  0.85258213  0.95223753  0.38188618  1
  La  La14  1  0.57036380  0.47075608  0.61819322  1
  La  La15  1  0.04782059  0.42966288  0.90041673  1
  S  S16  1  0.07211441  0.82737494  0.61102701  1
  S  S17  1  0.86087864  0.25340119  0.74741755  1
  S  S18  1  0.88913118  0.13647680  0.89244648  1
  S  S19  1  0.50599068  0.11348540  0.25261168  1
  S  S20  1  0.24403595  0.99667210  0.10755616  1
  S  S21  1  0.67783383  0.78893068  0.25522704  1
  S  S22  1  0.21632203  0.46109099  0.38895840  1
  S  S23  1  0.53368832  0.42261920  0.74476982  1
  S  S24  1  0.40287148  0.15149889  0.58793207  1
  S  S25  1  0.18506730  0.59713678  0.74863877  1
  S  S26  1  0.21107926  0.46631213  0.88892997  1
  S  S27  1  0.84848667  0.43641548  0.25134048  1
  S  S28  1  0.57738192  0.32214220  0.11106237  1
  S  S29  1  0.56356087  0.81492324  0.41204817  1
  S  S30  1  0.00333943  0.11087010  0.24736635  1
  S  S31  1  0.86353141  0.75596431  0.75263590  1
  S  S32  1  0.74662428  0.49400683  0.60749188  1
  S  S33  1  0.53890123  0.92785223  0.75521992  1
  S  S34  1  0.17264737  0.78366069  0.24476661  1
  S  S35  1  0.56496238  0.81356482  0.91200620  1
  S  S36  1  0.90155632  0.65297941  0.08801391  1
  S  S37  1  0.88650975  0.13913615  0.39250948  1
  S  S38  1  0.34704241  0.43502206  0.24859754  1
  S  S39  1  0.18642928  0.09845100  0.75140852  1
