# generated using pymatgen
data_SrUO4
_symmetry_space_group_name_H-M   'P 1'
_cell_length_a   5.53083775
_cell_length_b   7.96977544
_cell_length_c   8.13358794
_cell_angle_alpha   90.00000000
_cell_angle_beta   90.00000000
_cell_angle_gamma   90.00000000
_symmetry_Int_Tables_number   1
_chemical_formula_structural   SrUO4
_chemical_formula_sum   'Sr4 U4 O16'
_cell_volume   358.52477316
_cell_formula_units_Z   4
loop_
 _symmetry_equiv_pos_site_id
 _symmetry_equiv_pos_as_xyz
  1  'x, y, z'
loop_
 _atom_site_type_symbol
 _atom_site_label
 _atom_site_symmetry_multiplicity
 _atom_site_fract_x
 _atom_site_fract_y
 _atom_site_fract_z
 _atom_site_occupancy
  Sr  Sr0  1  0.47868326  0.19699061  0.25000000  1
  Sr  Sr1  1  0.47868326  0.30300939  0.75000000  1
  Sr  Sr2  1  0.52131674  0.69699061  0.25000000  1
  Sr  Sr3  1  0.52131674  0.80300939  0.75000000  1
  U  U4  1  -0.00000000  -0.00000000  -0.00000000  1
  U  U5  1  -0.00000000  0.50000000  -0.00000000  1
  U  U6  1  -0.00000000  0.50000000  0.50000000  1
  U  U7  1  -0.00000000  -0.00000000  0.50000000  1
  O  O8  1  0.13408753  0.96641306  0.75000000  1
  O  O9  1  0.13408753  0.53358694  0.25000000  1
  O  O10  1  0.86591247  0.46641306  0.75000000  1
  O  O11  1  0.86591247  0.03358694  0.25000000  1
  O  O12  1  0.16958259  0.25000000  0.50000000  1
  O  O13  1  0.83041741  0.75000000  -0.00000000  1
  O  O14  1  0.83041741  0.75000000  0.50000000  1
  O  O15  1  0.16958259  0.25000000  -0.00000000  1
  O  O16  1  0.30230958  0.91910899  0.07931186  1
  O  O17  1  0.30230958  0.58089101  0.92068814  1
  O  O18  1  0.69769042  0.41910899  0.42068814  1
  O  O19  1  0.69769042  0.08089101  0.57931186  1
  O  O20  1  0.69769042  0.08089101  0.92068814  1
  O  O21  1  0.69769042  0.41910899  0.07931186  1
  O  O22  1  0.30230958  0.58089101  0.57931186  1
  O  O23  1  0.30230958  0.91910899  0.42068814  1
