# generated using pymatgen
data_Y3Al5O12
_symmetry_space_group_name_H-M   'P 1'
_cell_length_a   10.39509768
_cell_length_b   10.39509973
_cell_length_c   10.39510341
_cell_angle_alpha   109.47127601
_cell_angle_beta   109.47123427
_cell_angle_gamma   109.47124464
_symmetry_Int_Tables_number   1
_chemical_formula_structural   Y3Al5O12
_chemical_formula_sum   'Y12 Al20 O48'
_cell_volume   864.69641839
_cell_formula_units_Z   4
loop_
 _symmetry_equiv_pos_site_id
 _symmetry_equiv_pos_as_xyz
  1  'x, y, z'
loop_
 _atom_site_type_symbol
 _atom_site_label
 _atom_site_symmetry_multiplicity
 _atom_site_fract_x
 _atom_site_fract_y
 _atom_site_fract_z
 _atom_site_occupancy
  Y  Y0  1  0.87500154  0.75000118  0.62499933  1
  Y  Y1  1  0.87500067  0.62499971  0.25000148  1
  Y  Y2  1  0.62499803  0.87499992  0.74999862  1
  Y  Y3  1  0.25000003  0.87499917  0.62499960  1
  Y  Y4  1  0.75000105  0.62499949  0.87500059  1
  Y  Y5  1  0.62499807  0.24999721  0.87500006  1
  Y  Y6  1  0.12500010  0.24999955  0.37500001  1
  Y  Y7  1  0.12500103  0.37499919  0.75000044  1
  Y  Y8  1  0.37499947  0.12500012  0.24999846  1
  Y  Y9  1  0.74999989  0.12500124  0.37499995  1
  Y  Y10  1  0.25000037  0.37500062  0.12500090  1
  Y  Y11  1  0.37499943  0.75000080  0.12500138  1
  Al  Al12  1  0.12500086  0.75000008  0.87499849  1
  Al  Al13  1  0.87499976  0.24999945  0.12500007  1
  Al  Al14  1  0.74999991  0.37499976  0.62499981  1
  Al  Al15  1  0.12499991  0.87500004  0.25000127  1
  Al  Al16  1  0.25000057  0.12499867  0.87499897  1
  Al  Al17  1  0.37499978  0.62500165  0.75000005  1
  Al  Al18  1  0.37500057  0.24999816  0.62499954  1
  Al  Al19  1  0.87500079  0.12500183  0.75000004  1
  Al  Al20  1  0.62500034  0.37500041  0.25000054  1
  Al  Al21  1  0.74999952  0.87500061  0.12500087  1
  Al  Al22  1  0.24999964  0.62500073  0.37500074  1
  Al  Al23  1  0.62499804  0.75000038  0.37499772  1
  Al  Al24  1  0.49999883  -0.00000060  0.49999905  1
  Al  Al25  1  0.00000024  0.49999973  0.00000113  1
  Al  Al26  1  0.49999996  0.50000072  0.49999943  1
  Al  Al27  1  0.00000094  0.00000012  0.50000050  1
  Al  Al28  1  0.00000054  0.00000032  -0.00000028  1
  Al  Al29  1  0.00000062  0.50000053  0.50000002  1
  Al  Al30  1  0.49999960  0.49999887  0.00000055  1
  Al  Al31  1  0.49999941  0.00000044  -0.00000033  1
  O  O32  1  0.88193911  0.40164568  0.08121832  1
  O  O33  1  0.08121836  0.88193917  0.40164653  1
  O  O34  1  0.69927846  0.51970628  0.61805899  1
  O  O35  1  0.67957100  0.09835356  0.98029212  1
  O  O36  1  0.51970576  0.40164427  0.82042726  1
  O  O37  1  0.41878170  0.82042824  0.80072058  1
  O  O38  1  0.08121876  0.69927986  0.67957192  1
  O  O39  1  0.40164594  0.08121808  0.88193900  1
  O  O40  1  0.98029421  0.80072296  0.88193987  1
  O  O41  1  0.67957158  0.08121749  0.69927966  1
  O  O42  1  0.40164536  0.82042735  0.51970730  1
  O  O43  1  0.09835447  0.61806180  0.41878272  1
  O  O44  1  0.61806060  0.41878176  0.09835345  1
  O  O45  1  0.69927955  0.67957278  0.08121955  1
  O  O46  1  0.88193937  0.98029221  0.80072123  1
  O  O47  1  0.80072166  0.88194087  0.98029387  1
  O  O48  1  0.82042763  0.51970749  0.40164541  1
  O  O49  1  0.61806011  0.69927823  0.51970752  1
  O  O50  1  0.82042937  0.80072141  0.41878281  1
  O  O51  1  0.01970772  0.19927928  0.11806076  1
  O  O52  1  0.98029356  0.67957181  0.09835461  1
  O  O53  1  0.09835457  0.98029279  0.67957265  1
  O  O54  1  0.80072187  0.41878137  0.82042818  1
  O  O55  1  0.41878100  0.09835247  0.61806092  1
  O  O56  1  0.11806179  0.59835509  0.91878268  1
  O  O57  1  0.91878261  0.11806061  0.59835475  1
  O  O58  1  0.30072159  0.48029294  0.38193873  1
  O  O59  1  0.32042811  0.90164683  0.01970684  1
  O  O60  1  0.48029303  0.59835360  0.17957364  1
  O  O61  1  0.58121683  0.17957215  0.19927754  1
  O  O62  1  0.91878139  0.30072123  0.32042751  1
  O  O63  1  0.59835461  0.91878296  0.11806071  1
  O  O64  1  0.58121815  0.90164614  0.38194035  1
  O  O65  1  0.19927837  0.58121755  0.17957174  1
  O  O66  1  0.90164660  0.01970719  0.32042805  1
  O  O67  1  0.48029134  0.38193865  0.30072072  1
  O  O68  1  0.01970751  0.32042770  0.90164637  1
  O  O69  1  0.17957115  0.19927753  0.58121715  1
  O  O70  1  0.38193767  0.30071996  0.48029156  1
  O  O71  1  0.17957221  0.48029322  0.59835354  1
  O  O72  1  0.19928011  0.11806105  0.01970836  1
  O  O73  1  0.11806155  0.01970875  0.19927924  1
  O  O74  1  0.30072086  0.32042757  0.91878162  1
  O  O75  1  0.38193854  0.58121749  0.90164659  1
  O  O76  1  0.90164660  0.38193948  0.58121740  1
  O  O77  1  0.59835361  0.17957201  0.48029273  1
  O  O78  1  0.32042810  0.91878203  0.30072126  1
  O  O79  1  0.51970642  0.61806099  0.69927671  1
