# generated using pymatgen
data_TlSbO3
_symmetry_space_group_name_H-M   'P 1'
_cell_length_a   7.87291404
_cell_length_b   7.87291472
_cell_length_c   7.87291397
_cell_angle_alpha   39.59483374
_cell_angle_beta   39.59483301
_cell_angle_gamma   39.59483544
_symmetry_Int_Tables_number   1
_chemical_formula_structural   TlSbO3
_chemical_formula_sum   'Tl2 Sb2 O6'
_cell_volume   178.47189652
_cell_formula_units_Z   2
loop_
 _symmetry_equiv_pos_site_id
 _symmetry_equiv_pos_as_xyz
  1  'x, y, z'
loop_
 _atom_site_type_symbol
 _atom_site_label
 _atom_site_symmetry_multiplicity
 _atom_site_fract_x
 _atom_site_fract_y
 _atom_site_fract_z
 _atom_site_occupancy
  Tl  Tl0  1  0.62139489  0.62139489  0.62139489  1
  Tl  Tl1  1  0.37860511  0.37860511  0.37860511  1
  Sb  Sb2  1  0.83329742  0.83329742  0.83329742  1
  Sb  Sb3  1  0.16670258  0.16670258  0.16670258  1
  O  O4  1  0.83045798  0.44869454  0.06783882  1
  O  O5  1  0.44869454  0.06783882  0.83045798  1
  O  O6  1  0.06783882  0.83045798  0.44869454  1
  O  O7  1  0.16954202  0.55130546  0.93216118  1
  O  O8  1  0.93216118  0.16954202  0.55130546  1
  O  O9  1  0.55130546  0.93216118  0.16954202  1
