# generated using pymatgen
data_Rb2ZnI4
_symmetry_space_group_name_H-M   'P 1'
_cell_length_a   7.70699920
_cell_length_b   8.21033228
_cell_length_c   10.44155724
_cell_angle_alpha   90.00000000
_cell_angle_beta   109.71171733
_cell_angle_gamma   90.00000000
_symmetry_Int_Tables_number   1
_chemical_formula_structural   Rb2ZnI4
_chemical_formula_sum   'Rb4 Zn2 I8'
_cell_volume   621.99407426
_cell_formula_units_Z   2
loop_
 _symmetry_equiv_pos_site_id
 _symmetry_equiv_pos_as_xyz
  1  'x, y, z'
loop_
 _atom_site_type_symbol
 _atom_site_label
 _atom_site_symmetry_multiplicity
 _atom_site_fract_x
 _atom_site_fract_y
 _atom_site_fract_z
 _atom_site_occupancy
  Rb  Rb0  1  0.30496778  0.75000000  0.96163500  1
  Rb  Rb1  1  0.69503222  0.25000000  0.03836500  1
  Rb  Rb2  1  0.20896002  0.75000000  0.41664559  1
  Rb  Rb3  1  0.79103998  0.25000000  0.58335441  1
  Zn  Zn4  1  0.69926034  0.75000000  0.78638501  1
  Zn  Zn5  1  0.30073966  0.25000000  0.21361499  1
  I  I6  1  0.87040932  0.75000000  0.05131481  1
  I  I7  1  0.12959068  0.25000000  0.94868519  1
  I  I8  1  0.91966013  0.75000000  0.64324959  1
  I  I9  1  0.08033987  0.25000000  0.35675041  1
  I  I10  1  0.48079805  0.00309868  0.72337834  1
  I  I11  1  0.51920195  0.50309868  0.27662166  1
  I  I12  1  0.51920195  0.99690132  0.27662166  1
  I  I13  1  0.48079805  0.49690132  0.72337834  1
