# generated using pymatgen
data_SrAl4O7
_symmetry_space_group_name_H-M   'P 1'
_cell_length_a   7.93591749
_cell_length_b   7.93591749
_cell_length_c   5.54705843
_cell_angle_alpha   76.76847643
_cell_angle_beta   76.76847643
_cell_angle_gamma   69.38481999
_symmetry_Int_Tables_number   1
_chemical_formula_structural   SrAl4O7
_chemical_formula_sum   'Sr2 Al8 O14'
_cell_volume   314.05229399
_cell_formula_units_Z   2
loop_
 _symmetry_equiv_pos_site_id
 _symmetry_equiv_pos_as_xyz
  1  'x, y, z'
loop_
 _atom_site_type_symbol
 _atom_site_label
 _atom_site_symmetry_multiplicity
 _atom_site_fract_x
 _atom_site_fract_y
 _atom_site_fract_z
 _atom_site_occupancy
  Sr  Sr0  1  0.81046585  0.18953415  0.25000000  1
  Sr  Sr1  1  0.18953415  0.81046585  0.75000000  1
  Al  Al2  1  0.56172104  0.68148356  0.23461239  1
  Al  Al3  1  0.31851644  0.43827896  0.26538761  1
  Al  Al4  1  0.43827896  0.31851644  0.76538761  1
  Al  Al5  1  0.68148356  0.56172104  0.73461239  1
  Al  Al6  1  0.25521433  0.08194657  0.20534379  1
  Al  Al7  1  0.91805343  0.74478567  0.29465621  1
  Al  Al8  1  0.74478567  0.91805343  0.79465621  1
  Al  Al9  1  0.08194657  0.25521433  0.70534379  1
  O  O10  1  0.63572354  0.74500017  0.90315211  1
  O  O11  1  0.25499983  0.36427646  0.59684789  1
  O  O12  1  0.36427646  0.25499983  0.09684789  1
  O  O13  1  0.74500017  0.63572354  0.40315211  1
  O  O14  1  0.38416069  0.86631602  0.32867858  1
  O  O15  1  0.13368398  0.61583931  0.17132142  1
  O  O16  1  0.61583931  0.13368398  0.67132142  1
  O  O17  1  0.86631602  0.38416069  0.82867858  1
  O  O18  1  0.15686971  0.08131382  0.95441008  1
  O  O19  1  0.91868618  0.84313029  0.54558992  1
  O  O20  1  0.47523222  0.52476778  0.75000000  1
  O  O21  1  0.52476778  0.47523222  0.25000000  1
  O  O22  1  0.08131382  0.15686971  0.45441008  1
  O  O23  1  0.84313029  0.91868618  0.04558992  1
