# generated using pymatgen
data_RbGaCl4
_symmetry_space_group_name_H-M   'P 1'
_cell_length_a   7.09787715
_cell_length_b   9.36407008
_cell_length_c   11.19047991
_cell_angle_alpha   90.00000000
_cell_angle_beta   90.00000000
_cell_angle_gamma   90.00000000
_symmetry_Int_Tables_number   1
_chemical_formula_structural   RbGaCl4
_chemical_formula_sum   'Rb4 Ga4 Cl16'
_cell_volume   743.77546042
_cell_formula_units_Z   4
loop_
 _symmetry_equiv_pos_site_id
 _symmetry_equiv_pos_as_xyz
  1  'x, y, z'
loop_
 _atom_site_type_symbol
 _atom_site_label
 _atom_site_symmetry_multiplicity
 _atom_site_fract_x
 _atom_site_fract_y
 _atom_site_fract_z
 _atom_site_occupancy
  Rb  Rb0  1  0.75000000  0.82681112  0.68272286  1
  Rb  Rb1  1  0.25000000  0.17318888  0.31727714  1
  Rb  Rb2  1  0.25000000  0.32681112  0.81727714  1
  Rb  Rb3  1  0.75000000  0.67318888  0.18272286  1
  Ga  Ga4  1  0.25000000  0.81137845  0.93241376  1
  Ga  Ga5  1  0.75000000  0.18862155  0.06758624  1
  Ga  Ga6  1  0.75000000  0.31137845  0.56758624  1
  Ga  Ga7  1  0.25000000  0.68862155  0.43241376  1
  Cl  Cl8  1  0.25000000  0.92257354  0.10309027  1
  Cl  Cl9  1  0.75000000  0.07742646  0.89690973  1
  Cl  Cl10  1  0.75000000  0.42257354  0.39690973  1
  Cl  Cl11  1  0.25000000  0.57742646  0.60309027  1
  Cl  Cl12  1  0.25000000  0.95536251  0.77960520  1
  Cl  Cl13  1  0.75000000  0.04463749  0.22039480  1
  Cl  Cl14  1  0.75000000  0.45536251  0.72039480  1
  Cl  Cl15  1  0.25000000  0.54463749  0.27960520  1
  Cl  Cl16  1  0.49872652  0.82611453  0.42037387  1
  Cl  Cl17  1  0.99872652  0.17388547  0.57962613  1
  Cl  Cl18  1  0.50127348  0.32611453  0.07962613  1
  Cl  Cl19  1  0.00127348  0.67388547  0.92037387  1
  Cl  Cl20  1  0.50127348  0.17388547  0.57962613  1
  Cl  Cl21  1  0.00127348  0.82611453  0.42037387  1
  Cl  Cl22  1  0.49872652  0.67388547  0.92037387  1
  Cl  Cl23  1  0.99872652  0.32611453  0.07962613  1
