# generated using pymatgen
data_Rb4(BS)9
_symmetry_space_group_name_H-M   'P 1'
_cell_length_a   10.07944436
_cell_length_b   10.18966629
_cell_length_c   10.69465345
_cell_angle_alpha   91.64600699
_cell_angle_beta   104.69540896
_cell_angle_gamma   109.38725661
_symmetry_Int_Tables_number   1
_chemical_formula_structural   Rb4(BS)9
_chemical_formula_sum   'Rb8 B18 S18'
_cell_volume   994.52347455
_cell_formula_units_Z   2
loop_
 _symmetry_equiv_pos_site_id
 _symmetry_equiv_pos_as_xyz
  1  'x, y, z'
loop_
 _atom_site_type_symbol
 _atom_site_label
 _atom_site_symmetry_multiplicity
 _atom_site_fract_x
 _atom_site_fract_y
 _atom_site_fract_z
 _atom_site_occupancy
  Rb  Rb0  1  0.81858640  0.38121626  0.75240102  1
  Rb  Rb1  1  0.18141360  0.61878374  0.24759898  1
  Rb  Rb2  1  0.75222777  0.62194545  0.47157328  1
  Rb  Rb3  1  0.24777223  0.37805455  0.52842672  1
  Rb  Rb4  1  0.61528636  0.37536258  0.13031399  1
  Rb  Rb5  1  0.38471364  0.62463742  0.86968601  1
  Rb  Rb6  1  0.64628807  0.00718871  0.37425472  1
  Rb  Rb7  1  0.35371193  0.99281129  0.62574528  1
  B  B8  1  0.92568040  0.26059949  0.25410075  1
  B  B9  1  0.07431960  0.73940051  0.74589925  1
  B  B10  1  0.33243492  0.23767110  0.85567239  1
  B  B11  1  0.66756508  0.76232890  0.14432761  1
  B  B12  1  0.36546557  0.18140549  0.31401516  1
  B  B13  1  0.63453443  0.81859451  0.68598484  1
  B  B14  1  0.99072910  0.04085071  0.14926248  1
  B  B15  1  0.00927090  0.95914929  0.85073752  1
  B  B16  1  0.06198537  0.13672302  0.91641018  1
  B  B17  1  0.93801463  0.86327698  0.08358982  1
  B  B18  1  0.16860034  0.03339196  0.98162840  1
  B  B19  1  0.83139966  0.96660804  0.01837160  1
  B  B20  1  0.12750514  0.97516798  0.12748343  1
  B  B21  1  0.87249486  0.02483202  0.87251657  1
  B  B22  1  0.13269392  0.14423404  0.08809581  1
  B  B23  1  0.86730608  0.85576596  0.91190419  1
  B  B24  1  0.95062164  0.14177890  0.02185551  1
  B  B25  1  0.04937836  0.85822110  0.97814449  1
  S  S26  1  0.02538885  0.89256921  0.69438173  1
  S  S27  1  0.97461115  0.10743079  0.30561827  1
  S  S28  1  0.48309674  0.74020061  0.54853241  1
  S  S29  1  0.51690326  0.25979939  0.45146759  1
  S  S30  1  0.52279831  0.65845480  0.20261776  1
  S  S31  1  0.47720169  0.34154520  0.79738224  1
  S  S32  1  0.09619905  0.62567486  0.63284350  1
  S  S33  1  0.90380095  0.37432514  0.36715650  1
  S  S34  1  0.16037150  0.27589138  0.82989591  1
  S  S35  1  0.83962850  0.72410862  0.17010409  1
  S  S36  1  0.34838402  0.08966068  0.94564514  1
  S  S37  1  0.65161598  0.91033932  0.05435486  1
  S  S38  1  0.27993315  0.98737729  0.27441671  1
  S  S39  1  0.72006685  0.01262271  0.72558329  1
  S  S40  1  0.28570158  0.28752273  0.20238534  1
  S  S41  1  0.71429842  0.71247727  0.79761466  1
  S  S42  1  0.90638579  0.29162893  0.08065138  1
  S  S43  1  0.09361421  0.70837107  0.91934862  1
