# generated using pymatgen
data_Mg2SnO4
_symmetry_space_group_name_H-M   'P 1'
_cell_length_a   6.10925008
_cell_length_b   6.10925026
_cell_length_c   6.04408527
_cell_angle_alpha   60.35222875
_cell_angle_beta   60.35222204
_cell_angle_gamma   61.23304911
_symmetry_Int_Tables_number   1
_chemical_formula_structural   Mg2SnO4
_chemical_formula_sum   'Mg4 Sn2 O8'
_cell_volume   161.81208558
_cell_formula_units_Z   2
loop_
 _symmetry_equiv_pos_site_id
 _symmetry_equiv_pos_as_xyz
  1  'x, y, z'
loop_
 _atom_site_type_symbol
 _atom_site_label
 _atom_site_symmetry_multiplicity
 _atom_site_fract_x
 _atom_site_fract_y
 _atom_site_fract_z
 _atom_site_occupancy
  Mg  Mg0  1  0.01318595  0.01318595  0.98681405  1
  Mg  Mg1  1  0.23681405  0.23681405  0.26318595  1
  Mg  Mg2  1  0.62500000  0.62500000  0.12500000  1
  Mg  Mg3  1  0.62500000  0.62500000  0.62500000  1
  Sn  Sn4  1  0.12500000  0.62500000  0.62500000  1
  Sn  Sn5  1  0.62500000  0.12500000  0.62500000  1
  O  O6  1  0.37844217  0.37844217  0.38780922  1
  O  O7  1  0.37929166  0.84255847  0.38907594  1
  O  O8  1  0.37844217  0.37844217  0.85530745  1
  O  O9  1  0.84255847  0.37929166  0.38907594  1
  O  O10  1  0.40744153  0.87070834  0.86092406  1
  O  O11  1  0.87070834  0.40744153  0.86092406  1
  O  O12  1  0.87155783  0.87155783  0.39469255  1
  O  O13  1  0.87155783  0.87155783  0.86219078  1
