# generated using pymatgen
data_Pr4Se3O4
_symmetry_space_group_name_H-M   'P 1'
_cell_length_a   4.05750082
_cell_length_b   6.84593046
_cell_length_c   8.51813853
_cell_angle_alpha   90.00000000
_cell_angle_beta   90.00000000
_cell_angle_gamma   107.23814694
_symmetry_Int_Tables_number   1
_chemical_formula_structural   Pr4Se3O4
_chemical_formula_sum   'Pr4 Se3 O4'
_cell_volume   225.98318606
_cell_formula_units_Z   1
loop_
 _symmetry_equiv_pos_site_id
 _symmetry_equiv_pos_as_xyz
  1  'x, y, z'
loop_
 _atom_site_type_symbol
 _atom_site_label
 _atom_site_symmetry_multiplicity
 _atom_site_fract_x
 _atom_site_fract_y
 _atom_site_fract_z
 _atom_site_occupancy
  Pr  Pr0  1  0.00129211  0.00258322  -0.00000000  1
  Pr  Pr1  1  0.01697870  0.03395941  0.50000000  1
  Pr  Pr2  1  0.68435857  0.36871515  0.23744245  1
  Pr  Pr3  1  0.68435857  0.36871515  0.76255755  1
  Se  Se4  1  0.35573212  0.71146425  0.35276152  1
  Se  Se5  1  0.35573212  0.71146425  0.64723848  1
  Se  Se6  1  0.31453341  0.62906881  -0.00000000  1
  O  O7  1  0.08877664  0.17755029  0.24413930  1
  O  O8  1  0.08877664  0.17755029  0.75586070  1
  O  O9  1  0.58909979  0.17819859  -0.00000000  1
  O  O10  1  0.61504231  0.23008561  0.50000000  1
