# generated using pymatgen
data_Sc(IO3)3
_symmetry_space_group_name_H-M   'P 1'
_cell_length_a   7.35836566
_cell_length_b   7.35836556
_cell_length_c   7.35836558
_cell_angle_alpha   83.07470831
_cell_angle_beta   83.07471216
_cell_angle_gamma   83.07471148
_symmetry_Int_Tables_number   1
_chemical_formula_structural   Sc(IO3)3
_chemical_formula_sum   'Sc2 I6 O18'
_cell_volume   390.35075767
_cell_formula_units_Z   2
loop_
 _symmetry_equiv_pos_site_id
 _symmetry_equiv_pos_as_xyz
  1  'x, y, z'
loop_
 _atom_site_type_symbol
 _atom_site_label
 _atom_site_symmetry_multiplicity
 _atom_site_fract_x
 _atom_site_fract_y
 _atom_site_fract_z
 _atom_site_occupancy
  Sc  Sc0  1  0.82399178  0.82399178  0.82399178  1
  Sc  Sc1  1  0.17600822  0.17600822  0.17600822  1
  I  I2  1  0.87050571  0.28436360  0.58386866  1
  I  I3  1  0.58386866  0.87050571  0.28436360  1
  I  I4  1  0.28436360  0.58386866  0.87050571  1
  I  I5  1  0.12949429  0.71563640  0.41613134  1
  I  I6  1  0.41613134  0.12949429  0.71563640  1
  I  I7  1  0.71563640  0.41613134  0.12949429  1
  O  O8  1  0.72323728  0.21231053  0.43021227  1
  O  O9  1  0.43021227  0.72323728  0.21231053  1
  O  O10  1  0.21231053  0.43021227  0.72323728  1
  O  O11  1  0.27676272  0.78768947  0.56978773  1
  O  O12  1  0.56978773  0.27676272  0.78768947  1
  O  O13  1  0.78768947  0.56978773  0.27676272  1
  O  O14  1  0.08058644  0.29008773  0.42436775  1
  O  O15  1  0.42436775  0.08058644  0.29008773  1
  O  O16  1  0.93349460  0.28805734  0.06236646  1
  O  O17  1  0.28805734  0.06236646  0.93349460  1
  O  O18  1  0.06236646  0.93349460  0.28805734  1
  O  O19  1  0.06650540  0.71194266  0.93763354  1
  O  O20  1  0.71194266  0.93763354  0.06650540  1
  O  O21  1  0.93763354  0.06650540  0.71194266  1
  O  O22  1  0.70991227  0.57563225  0.91941356  1
  O  O23  1  0.57563225  0.91941356  0.70991227  1
  O  O24  1  0.91941356  0.70991227  0.57563225  1
  O  O25  1  0.29008773  0.42436775  0.08058644  1
