# generated using pymatgen
data_Te(HO)6
_symmetry_space_group_name_H-M   'P 1'
_cell_length_a   9.24972815
_cell_length_b   6.41436801
_cell_length_c   8.24616287
_cell_angle_alpha   80.07115651
_cell_angle_beta   90.00000000
_cell_angle_gamma   90.00000000
_symmetry_Int_Tables_number   1
_chemical_formula_structural   Te(HO)6
_chemical_formula_sum   'Te4 H24 O24'
_cell_volume   481.92667682
_cell_formula_units_Z   4
loop_
 _symmetry_equiv_pos_site_id
 _symmetry_equiv_pos_as_xyz
  1  'x, y, z'
loop_
 _atom_site_type_symbol
 _atom_site_label
 _atom_site_symmetry_multiplicity
 _atom_site_fract_x
 _atom_site_fract_y
 _atom_site_fract_z
 _atom_site_occupancy
  Te  Te0  1  0.50000000  0.50000000  0.00000000  1
  Te  Te1  1  -0.00000000  0.50000000  0.50000000  1
  Te  Te2  1  0.50000000  -0.00000000  0.50000000  1
  Te  Te3  1  -0.00000000  -0.00000000  0.00000000  1
  H  H4  1  0.83298341  0.71132435  0.30109590  1
  H  H5  1  0.33298341  0.28867565  0.19890410  1
  H  H6  1  0.16701659  0.28867565  0.69890410  1
  H  H7  1  0.66701659  0.71132435  0.80109590  1
  H  H8  1  0.46261720  0.31119633  0.76147158  1
  H  H9  1  0.96261720  0.68880367  0.73852842  1
  H  H10  1  0.70364746  0.24421217  0.01219663  1
  H  H11  1  0.20364746  0.75578783  0.48780337  1
  H  H12  1  0.29635254  0.75578783  0.98780337  1
  H  H13  1  0.79635254  0.24421217  0.51219663  1
  H  H14  1  0.59409769  0.35473173  0.37045062  1
  H  H15  1  0.09409769  0.64526827  0.12954938  1
  H  H16  1  0.40590231  0.64526827  0.62954938  1
  H  H17  1  0.90590231  0.35473173  0.87045062  1
  H  H18  1  0.56969213  0.04257323  0.20290595  1
  H  H19  1  0.06969213  0.95742677  0.29709405  1
  H  H20  1  0.43030787  0.95742677  0.79709405  1
  H  H21  1  0.93030787  0.04257323  0.70290595  1
  H  H22  1  0.78309842  0.76635347  0.02903762  1
  H  H23  1  0.28309842  0.23364653  0.47096238  1
  H  H24  1  0.21690158  0.23364653  0.97096238  1
  H  H25  1  0.71690158  0.76635347  0.52903762  1
  H  H26  1  0.53738280  0.68880367  0.23852842  1
  H  H27  1  0.03738280  0.31119633  0.26147158  1
  O  O28  1  0.67433244  0.64473713  0.91921002  1
  O  O29  1  0.17433244  0.35526287  0.58078998  1
  O  O30  1  0.32566756  0.35526287  0.08078998  1
  O  O31  1  0.82566756  0.64473713  0.41921002  1
  O  O32  1  0.05000541  0.45874142  0.28254654  1
  O  O33  1  0.55000541  0.54125858  0.21745346  1
  O  O34  1  0.59953824  0.23416863  0.04578586  1
  O  O35  1  0.09953824  0.76583137  0.45421414  1
  O  O36  1  0.40046176  0.76583137  0.95421414  1
  O  O37  1  0.90046176  0.23416863  0.54578586  1
  O  O38  1  0.87335812  0.24058495  0.96092429  1
  O  O39  1  0.37335812  0.75941505  0.53907571  1
  O  O40  1  0.12664188  0.75941505  0.03907571  1
  O  O41  1  0.62664188  0.24058495  0.46092429  1
  O  O42  1  0.54679749  0.92129676  0.29221304  1
  O  O43  1  0.04679749  0.07870324  0.20778696  1
  O  O44  1  0.45320251  0.07870324  0.70778696  1
  O  O45  1  0.95320251  0.92129676  0.79221304  1
  O  O46  1  0.65690480  0.83473879  0.60590638  1
  O  O47  1  0.15690480  0.16526121  0.89409362  1
  O  O48  1  0.34309520  0.16526121  0.39409362  1
  O  O49  1  0.84309520  0.83473879  0.10590638  1
  O  O50  1  0.94999459  0.54125858  0.71745346  1
  O  O51  1  0.44999459  0.45874142  0.78254654  1
