# generated using pymatgen
data_Sr(LaS2)2
_symmetry_space_group_name_H-M   'P 1'
_cell_length_a   7.63022455
_cell_length_b   7.63022427
_cell_length_c   7.63022481
_cell_angle_alpha   109.35652723
_cell_angle_beta   109.70086003
_cell_angle_gamma   109.35651262
_symmetry_Int_Tables_number   1
_chemical_formula_structural   Sr(LaS2)2
_chemical_formula_sum   'Sr2 La4 S8'
_cell_volume   341.96752418
_cell_formula_units_Z   2
loop_
 _symmetry_equiv_pos_site_id
 _symmetry_equiv_pos_as_xyz
  1  'x, y, z'
loop_
 _atom_site_type_symbol
 _atom_site_label
 _atom_site_symmetry_multiplicity
 _atom_site_fract_x
 _atom_site_fract_y
 _atom_site_fract_z
 _atom_site_occupancy
  Sr  Sr0  1  0.12500000  0.75000000  0.87500000  1
  Sr  Sr1  1  0.37500000  0.25000000  0.62500000  1
  La  La2  1  0.25000000  0.62944273  0.37944273  1
  La  La3  1  0.62055727  0.37055727  0.25000000  1
  La  La4  1  0.75000000  0.87055727  0.12055727  1
  La  La5  1  0.87944273  0.12944273  0.75000000  1
  S  S6  1  0.99196282  0.85030284  0.49288007  1
  S  S7  1  0.14165998  0.14969716  0.14257622  1
  S  S8  1  0.35834002  0.50091724  0.00803718  1
  S  S9  1  0.50803718  0.00091724  0.85834002  1
  S  S10  1  0.64257622  0.64969716  0.64165998  1
  S  S11  1  0.50711993  0.99908276  0.35742378  1
  S  S12  1  0.85742378  0.49908276  0.00711993  1
  S  S13  1  0.99288007  0.35030284  0.49196282  1
