# generated using pymatgen
data_CsSn2Cl5
_symmetry_space_group_name_H-M   'P 1'
_cell_length_a   8.18612555
_cell_length_b   8.18633201
_cell_length_c   9.57036601
_cell_angle_alpha   115.31716283
_cell_angle_beta   115.32046685
_cell_angle_gamma   90.00000547
_symmetry_Int_Tables_number   1
_chemical_formula_structural   CsSn2Cl5
_chemical_formula_sum   'Cs2 Sn4 Cl10'
_cell_volume   510.76042701
_cell_formula_units_Z   2
loop_
 _symmetry_equiv_pos_site_id
 _symmetry_equiv_pos_as_xyz
  1  'x, y, z'
loop_
 _atom_site_type_symbol
 _atom_site_label
 _atom_site_symmetry_multiplicity
 _atom_site_fract_x
 _atom_site_fract_y
 _atom_site_fract_z
 _atom_site_occupancy
  Cs  Cs0  1  0.25000411  0.25000000  0.50000000  1
  Cs  Cs1  1  0.74999589  0.75000000  0.50000000  1
  Sn  Sn2  1  0.68286439  0.18285632  0.00001942  1
  Sn  Sn3  1  0.81715603  0.68285632  0.00001942  1
  Sn  Sn4  1  0.18284397  0.31714368  -0.00001942  1
  Sn  Sn5  1  0.31713561  0.81714368  -0.00001942  1
  Cl  Cl6  1  0.95702585  0.45705299  0.24588864  1
  Cl  Cl7  1  0.71116113  0.21111770  0.75406950  1
  Cl  Cl8  1  0.04297415  0.54294701  0.75411136  1
  Cl  Cl9  1  0.21113821  0.04294701  0.75411136  1
  Cl  Cl10  1  0.54290837  0.71111770  0.75406950  1
  Cl  Cl11  1  0.78886179  0.95705299  0.24588864  1
  Cl  Cl12  1  0.50000000  0.50000000  0.00000000  1
  Cl  Cl13  1  0.00000000  0.00000000  0.00000000  1
  Cl  Cl14  1  0.28883887  0.78888230  0.24593050  1
  Cl  Cl15  1  0.45709163  0.28888230  0.24593050  1
