# generated using pymatgen
data_CsAs4F13
_symmetry_space_group_name_H-M   'P 1'
_cell_length_a   6.71909808
_cell_length_b   7.44536805
_cell_length_c   7.44536694
_cell_angle_alpha   78.25210466
_cell_angle_beta   63.17757556
_cell_angle_gamma   63.17758191
_symmetry_Int_Tables_number   1
_chemical_formula_structural   CsAs4F13
_chemical_formula_sum   'Cs1 As4 F13'
_cell_volume   296.62752186
_cell_formula_units_Z   1
loop_
 _symmetry_equiv_pos_site_id
 _symmetry_equiv_pos_as_xyz
  1  'x, y, z'
loop_
 _atom_site_type_symbol
 _atom_site_label
 _atom_site_symmetry_multiplicity
 _atom_site_fract_x
 _atom_site_fract_y
 _atom_site_fract_z
 _atom_site_occupancy
  Cs  Cs0  1  0.00000000  -0.00000000  0.00000000  1
  As  As1  1  0.20934112  0.29232966  0.31856244  1
  As  As2  1  0.47209644  0.31856244  0.70767034  1
  As  As3  1  0.49832822  0.68143756  0.29232966  1
  As  As4  1  0.82023422  0.70767034  0.68143756  1
  F  F5  1  0.00234345  0.27135657  0.56617837  1
  F  F6  1  0.43147818  0.56617837  0.72864343  1
  F  F7  1  0.72630097  0.43382163  0.27135657  1
  F  F8  1  0.83987839  0.72864343  0.43382163  1
  F  F9  1  0.47142021  0.12498767  0.35753785  1
  F  F10  1  0.25000000  0.50000000  0.50000000  1
  F  F11  1  0.52657726  0.91570446  0.75742084  1
  F  F12  1  0.71600190  0.75742084  0.08429554  1
  F  F13  1  0.55771827  0.24257916  0.91570446  1
  F  F14  1  0.19970256  0.08429554  0.24257916  1
  F  F15  1  0.95394573  0.87501233  0.64246215  1
  F  F16  1  0.40359213  0.64246215  0.12498767  1
  F  F17  1  0.17104294  0.35753785  0.87501233  1
