# generated using pymatgen
data_KTaS5
_symmetry_space_group_name_H-M   'P 1'
_cell_length_a   6.46616086
_cell_length_b   15.31189848
_cell_length_c   15.66288973
_cell_angle_alpha   59.53350470
_cell_angle_beta   90.00000000
_cell_angle_gamma   90.00000000
_symmetry_Int_Tables_number   1
_chemical_formula_structural   KTaS5
_chemical_formula_sum   'K8 Ta8 S40'
_cell_volume   1336.64881971
_cell_formula_units_Z   8
loop_
 _symmetry_equiv_pos_site_id
 _symmetry_equiv_pos_as_xyz
  1  'x, y, z'
loop_
 _atom_site_type_symbol
 _atom_site_label
 _atom_site_symmetry_multiplicity
 _atom_site_fract_x
 _atom_site_fract_y
 _atom_site_fract_z
 _atom_site_occupancy
  K  K0  1  0.63926755  0.15178901  0.43183923  1
  K  K1  1  0.13926755  0.84821099  0.06816077  1
  K  K2  1  0.36073245  0.84821099  0.56816077  1
  K  K3  1  0.86073245  0.15178901  0.93183923  1
  K  K4  1  0.14286785  0.35077413  0.58534875  1
  K  K5  1  0.64286785  0.64922587  0.91465125  1
  K  K6  1  0.85713215  0.64922587  0.41465125  1
  K  K7  1  0.35713215  0.35077413  0.08534875  1
  Ta  Ta8  1  0.05606674  0.46403195  0.24399783  1
  Ta  Ta9  1  0.55606674  0.53596805  0.25600217  1
  Ta  Ta10  1  0.94393326  0.53596805  0.75600217  1
  Ta  Ta11  1  0.44393326  0.46403195  0.74399783  1
  Ta  Ta12  1  0.91904772  0.03497068  0.70859856  1
  Ta  Ta13  1  0.41904772  0.96502932  0.79140144  1
  Ta  Ta14  1  0.08095228  0.96502932  0.29140144  1
  Ta  Ta15  1  0.58095228  0.03497068  0.20859856  1
  S  S16  1  0.20621469  0.29490755  0.31075165  1
  S  S17  1  0.70621469  0.70509245  0.18924835  1
  S  S18  1  0.79378531  0.70509245  0.68924835  1
  S  S19  1  0.29378531  0.29490755  0.81075165  1
  S  S20  1  0.08409035  0.05420511  0.55468173  1
  S  S21  1  0.58409035  0.94579489  0.94531827  1
  S  S22  1  0.91590965  0.94579489  0.44531827  1
  S  S23  1  0.41590965  0.05420511  0.05468173  1
  S  S24  1  0.89466933  0.44477861  0.10827057  1
  S  S25  1  0.39466933  0.55522139  0.39172943  1
  S  S26  1  0.10533067  0.55522139  0.89172943  1
  S  S27  1  0.60533067  0.44477861  0.60827057  1
  S  S28  1  0.76174024  0.20363232  0.60557368  1
  S  S29  1  0.26174024  0.79636768  0.89442632  1
  S  S30  1  0.23825976  0.79636768  0.39442632  1
  S  S31  1  0.73825976  0.20363232  0.10557368  1
  S  S32  1  0.24682623  0.11167107  0.12617145  1
  S  S33  1  0.74682623  0.88832893  0.37382855  1
  S  S34  1  0.75317377  0.88832893  0.87382855  1
  S  S35  1  0.25317377  0.11167107  0.62617145  1
  S  S36  1  0.86543598  0.95879275  0.16325535  1
  S  S37  1  0.36543598  0.04120725  0.33674465  1
  S  S38  1  0.13456402  0.04120725  0.83674465  1
  S  S39  1  0.63456402  0.95879275  0.66325535  1
  S  S40  1  0.66052738  0.45794396  0.87749447  1
  S  S41  1  0.16052738  0.54205604  0.62250553  1
  S  S42  1  0.33947262  0.54205604  0.12250553  1
  S  S43  1  0.83947262  0.45794396  0.37749447  1
  S  S44  1  0.27889754  0.61063531  0.76458206  1
  S  S45  1  0.77889754  0.38936469  0.73541794  1
  S  S46  1  0.72110246  0.38936469  0.23541794  1
  S  S47  1  0.22110246  0.61063531  0.26458206  1
  S  S48  1  0.35317110  0.87414496  0.25138334  1
  S  S49  1  0.85317110  0.12585504  0.24861666  1
  S  S50  1  0.64682890  0.12585504  0.74861666  1
  S  S51  1  0.14682890  0.87414496  0.75138334  1
  S  S52  1  0.17188241  0.37442122  0.87393750  1
  S  S53  1  0.67188241  0.62557878  0.62606250  1
  S  S54  1  0.82811759  0.62557878  0.12606250  1
  S  S55  1  0.32811759  0.37442122  0.37393750  1
