# generated using pymatgen
data_Sr2H5Rh
_symmetry_space_group_name_H-M   'P 1'
_cell_length_a   5.41124060
_cell_length_b   5.41124037
_cell_length_c   5.33673447
_cell_angle_alpha   60.45442530
_cell_angle_beta   60.45442214
_cell_angle_gamma   59.09114100
_symmetry_Int_Tables_number   1
_chemical_formula_structural   Sr2H5Rh
_chemical_formula_sum   'Sr2 H5 Rh1'
_cell_volume   110.45662396
_cell_formula_units_Z   1
loop_
 _symmetry_equiv_pos_site_id
 _symmetry_equiv_pos_as_xyz
  1  'x, y, z'
loop_
 _atom_site_type_symbol
 _atom_site_label
 _atom_site_symmetry_multiplicity
 _atom_site_fract_x
 _atom_site_fract_y
 _atom_site_fract_z
 _atom_site_occupancy
  Sr  Sr0  1  0.25063037  0.25063037  0.24936963  1
  Sr  Sr1  1  0.75063037  0.75063037  0.74936963  1
  H  H2  1  0.22721940  0.78424678  0.21575322  1
  H  H3  1  0.78424678  0.22721940  0.21575322  1
  H  H4  1  0.22721940  0.78424678  0.77278060  1
  H  H5  1  0.78424678  0.22721940  0.77278060  1
  H  H6  1  0.76050324  0.76050324  0.23949676  1
  Rh  Rh7  1  0.99230565  0.99230565  0.00769435  1
