# generated using pymatgen
data_Mo2P3O13
_symmetry_space_group_name_H-M   'P 1'
_cell_length_a   6.32529175
_cell_length_b   7.49940926
_cell_length_c   11.37155278
_cell_angle_alpha   77.01570224
_cell_angle_beta   86.66612807
_cell_angle_gamma   78.56302278
_symmetry_Int_Tables_number   1
_chemical_formula_structural   Mo2P3O13
_chemical_formula_sum   'Mo4 P6 O26'
_cell_volume   515.13891620
_cell_formula_units_Z   2
loop_
 _symmetry_equiv_pos_site_id
 _symmetry_equiv_pos_as_xyz
  1  'x, y, z'
loop_
 _atom_site_type_symbol
 _atom_site_label
 _atom_site_symmetry_multiplicity
 _atom_site_fract_x
 _atom_site_fract_y
 _atom_site_fract_z
 _atom_site_occupancy
  Mo  Mo0  1  0.19829456  0.20939913  0.09270344  1
  Mo  Mo1  1  0.75227763  0.80336866  0.40511152  1
  Mo  Mo2  1  0.80170544  0.79060087  0.90729656  1
  Mo  Mo3  1  0.24772237  0.19663134  0.59488848  1
  P  P4  1  0.27351241  0.94092494  0.88409876  1
  P  P5  1  0.74247323  0.20854907  0.67023152  1
  P  P6  1  0.25752677  0.79145093  0.32976848  1
  P  P7  1  0.72648759  0.05907506  0.11590124  1
  P  P8  1  0.88646191  0.54003396  0.68190751  1
  P  P9  1  0.11353809  0.45996604  0.31809249  1
  O  O10  1  0.81766108  0.61790478  0.02780910  1
  O  O11  1  0.49173790  0.81228072  0.87873434  1
  O  O12  1  0.11133475  0.45647595  0.65001419  1
  O  O13  1  0.23590710  0.10444153  0.77578479  1
  O  O14  1  0.89658461  0.18067353  0.10599297  1
  O  O15  1  0.86957811  0.64376241  0.78248301  1
  O  O16  1  0.50826210  0.18771928  0.12126566  1
  O  O17  1  0.26297416  0.01496895  0.99944729  1
  O  O18  1  0.24618981  0.96556544  0.23598855  1
  O  O19  1  0.13042189  0.35623759  0.21751699  1
  O  O20  1  0.32202039  0.98197320  0.57361377  1
  O  O21  1  0.76045593  0.66384881  0.57328471  1
  O  O22  1  0.75381019  0.03443456  0.76401145  1
  O  O23  1  0.93061808  0.20069858  0.58048754  1
  O  O24  1  0.73702584  0.98503105  0.00055271  1
  O  O25  1  0.18233892  0.38209522  0.97219090  1
  O  O26  1  0.10341539  0.81932647  0.89400703  1
  O  O27  1  0.23954407  0.33615119  0.42671529  1
  O  O28  1  0.06938192  0.79930142  0.41951246  1
  O  O29  1  0.52874821  0.26654730  0.60429112  1
  O  O30  1  0.47125179  0.73345270  0.39570888  1
  O  O31  1  0.88866525  0.54352405  0.34998581  1
  O  O32  1  0.67797961  0.01802680  0.42638623  1
  O  O33  1  0.75636454  0.37583129  0.73365723  1
  O  O34  1  0.24363546  0.62416871  0.26634277  1
  O  O35  1  0.76409290  0.89555847  0.22421521  1
