# generated using pymatgen
data_Nd4Se3N2
_symmetry_space_group_name_H-M   'P 1'
_cell_length_a   6.47317052
_cell_length_b   8.32277541
_cell_length_c   8.32277535
_cell_angle_alpha   75.66487114
_cell_angle_beta   89.84770416
_cell_angle_gamma   89.84771175
_symmetry_Int_Tables_number   1
_chemical_formula_structural   Nd4Se3N2
_chemical_formula_sum   'Nd8 Se6 N4'
_cell_volume   434.42399470
_cell_formula_units_Z   2
loop_
 _symmetry_equiv_pos_site_id
 _symmetry_equiv_pos_as_xyz
  1  'x, y, z'
loop_
 _atom_site_type_symbol
 _atom_site_label
 _atom_site_symmetry_multiplicity
 _atom_site_fract_x
 _atom_site_fract_y
 _atom_site_fract_z
 _atom_site_occupancy
  Nd  Nd0  1  0.97016878  0.55703897  0.18979453  1
  Nd  Nd1  1  0.52983122  0.81020547  0.44296103  1
  Nd  Nd2  1  0.02983122  0.44296103  0.81020547  1
  Nd  Nd3  1  0.47016878  0.18979453  0.55703897  1
  Nd  Nd4  1  0.92818351  0.91448300  0.75546634  1
  Nd  Nd5  1  0.57181649  0.24453366  0.08551700  1
  Nd  Nd6  1  0.07181649  0.08551700  0.24453366  1
  Nd  Nd7  1  0.42818351  0.75546634  0.91448300  1
  Se  Se8  1  0.75000000  0.90370805  0.09629195  1
  Se  Se9  1  0.25000000  0.09629195  0.90370805  1
  Se  Se10  1  0.96468163  0.25362605  0.51603453  1
  Se  Se11  1  0.53531837  0.48396547  0.74637395  1
  Se  Se12  1  0.03531837  0.74637395  0.48396547  1
  Se  Se13  1  0.46468163  0.51603453  0.25362605  1
  N  N14  1  0.91495050  0.32944078  0.08193067  1
  N  N15  1  0.58504950  0.91806933  0.67055922  1
  N  N16  1  0.08504950  0.67055922  0.91806933  1
  N  N17  1  0.41495050  0.08193067  0.32944078  1
