# generated using pymatgen
data_RbInSe2
_symmetry_space_group_name_H-M   'P 1'
_cell_length_a   8.22775471
_cell_length_b   8.22775471
_cell_length_c   16.37401025
_cell_angle_alpha   82.76158886
_cell_angle_beta   82.76158886
_cell_angle_gamma   89.97288758
_symmetry_Int_Tables_number   1
_chemical_formula_structural   RbInSe2
_chemical_formula_sum   'Rb8 In8 Se16'
_cell_volume   1090.72318098
_cell_formula_units_Z   8
loop_
 _symmetry_equiv_pos_site_id
 _symmetry_equiv_pos_as_xyz
  1  'x, y, z'
loop_
 _atom_site_type_symbol
 _atom_site_label
 _atom_site_symmetry_multiplicity
 _atom_site_fract_x
 _atom_site_fract_y
 _atom_site_fract_z
 _atom_site_occupancy
  Rb  Rb0  1  0.84763251  0.22216836  0.61004545  1
  Rb  Rb1  1  0.22130125  0.34624468  0.11455865  1
  Rb  Rb2  1  0.34624468  0.22130125  0.61455865  1
  Rb  Rb3  1  0.77869875  0.65375532  0.88544135  1
  Rb  Rb4  1  0.22216836  0.84763251  0.11004545  1
  Rb  Rb5  1  0.15236749  0.77783164  0.38995455  1
  Rb  Rb6  1  0.77783164  0.15236749  0.88995455  1
  Rb  Rb7  1  0.65375532  0.77869875  0.38544135  1
  In  In8  1  0.70984659  0.08696795  0.16063750  1
  In  In9  1  0.91303205  0.29015341  0.33936250  1
  In  In10  1  0.29015341  0.91303205  0.83936250  1
  In  In11  1  0.08696795  0.70984659  0.66063750  1
  In  In12  1  0.41652678  0.29027778  0.33904143  1
  In  In13  1  0.70972222  0.58347322  0.16095857  1
  In  In14  1  0.58347322  0.70972222  0.66095857  1
  In  In15  1  0.29027778  0.41652678  0.83904143  1
  Se  Se16  1  0.57483796  0.42516204  0.75000000  1
  Se  Se17  1  0.42516204  0.57483796  0.25000000  1
  Se  Se18  1  0.05081023  0.94918977  0.75000000  1
  Se  Se19  1  0.94918977  0.05081023  0.25000000  1
  Se  Se20  1  0.05064379  0.42563033  0.74999358  1
  Se  Se21  1  0.57436967  0.94935621  0.75000642  1
  Se  Se22  1  0.94935621  0.57436967  0.25000642  1
  Se  Se23  1  0.42563033  0.05064379  0.24999358  1
  Se  Se24  1  0.85936527  0.73463774  0.56296680  1
  Se  Se25  1  0.26536226  0.14063473  0.93703320  1
  Se  Se26  1  0.14063473  0.26536226  0.43703320  1
  Se  Se27  1  0.63944663  0.26556435  0.43825614  1
  Se  Se28  1  0.26556435  0.63944663  0.93825614  1
  Se  Se29  1  0.36055337  0.73443565  0.56174386  1
  Se  Se30  1  0.73443565  0.36055337  0.06174386  1
  Se  Se31  1  0.73463774  0.85936527  0.06296680  1
