# generated using pymatgen
data_Ta2CoO6
_symmetry_space_group_name_H-M   'P 1'
_cell_length_a   4.74771145
_cell_length_b   10.20853925
_cell_length_c   9.48579022
_cell_angle_alpha   62.74433569
_cell_angle_beta   89.98470257
_cell_angle_gamma   89.96450123
_symmetry_Int_Tables_number   1
_chemical_formula_structural   Ta2CoO6
_chemical_formula_sum   'Ta8 Co4 O24'
_cell_volume   408.70445451
_cell_formula_units_Z   4
loop_
 _symmetry_equiv_pos_site_id
 _symmetry_equiv_pos_as_xyz
  1  'x, y, z'
loop_
 _atom_site_type_symbol
 _atom_site_label
 _atom_site_symmetry_multiplicity
 _atom_site_fract_x
 _atom_site_fract_y
 _atom_site_fract_z
 _atom_site_occupancy
  Ta  Ta0  1  0.49638477  0.17028258  0.16533309  1
  Ta  Ta1  1  0.49473452  0.16813143  0.66578237  1
  Ta  Ta2  1  0.00412244  0.67066208  0.16471719  1
  Ta  Ta3  1  0.00481995  0.66771238  0.66576610  1
  Ta  Ta4  1  0.50361092  0.82971605  0.83467185  1
  Ta  Ta5  1  0.50526951  0.83186481  0.33421983  1
  Ta  Ta6  1  0.99518777  0.33229309  0.33422681  1
  Ta  Ta7  1  -0.00411913  0.32933791  0.83527857  1
  Co  Co8  1  0.49999721  0.49999740  0.00000144  1
  Co  Co9  1  0.00002272  -0.00000021  0.49999622  1
  Co  Co10  1  0.50002103  0.50000070  0.50000319  1
  Co  Co11  1  -0.00000692  -0.00000181  0.00000438  1
  O  O12  1  0.18949809  0.49859900  0.84528147  1
  O  O13  1  0.19194331  0.50047685  0.34526667  1
  O  O14  1  0.81049338  0.50140042  0.15471507  1
  O  O15  1  0.80804066  0.49952377  0.65473366  1
  O  O16  1  0.30879725  0.00078198  0.34532374  1
  O  O17  1  0.31159397  -0.00112503  0.84602580  1
  O  O18  1  0.68840149  0.00112599  0.15397462  1
  O  O19  1  0.69119254  -0.00078434  0.65467584  1
  O  O20  1  0.19193774  0.16753011  0.01619979  1
  O  O21  1  0.20237918  0.17532256  0.51359823  1
  O  O22  1  0.79140090  0.17541927  0.30902063  1
  O  O23  1  0.78974487  0.17548674  0.81078178  1
  O  O24  1  0.30930109  0.66755764  0.01705765  1
  O  O25  1  0.29781689  0.67548255  0.51385060  1
  O  O26  1  0.71156271  0.67514440  0.81205207  1
  O  O27  1  0.70902645  0.67516927  0.30958161  1
  O  O28  1  0.80804685  0.83247275  0.98380654  1
  O  O29  1  0.79763379  0.82467837  0.48639401  1
  O  O30  1  0.20859910  0.82458309  0.69097795  1
  O  O31  1  0.21024752  0.82451288  0.18922283  1
  O  O32  1  0.69069312  0.33244180  0.98294007  1
  O  O33  1  0.70219530  0.32451385  0.48615408  1
  O  O34  1  0.28843877  0.32485878  0.18794480  1
  O  O35  1  0.29097123  0.32482891  0.69041945  1
