# generated using pymatgen
data_Rb4SnS4
_symmetry_space_group_name_H-M   'P 1'
_cell_length_a   13.54395197
_cell_length_b   13.54395197
_cell_length_c   13.54395197
_cell_angle_alpha   90.00000000
_cell_angle_beta   90.00000000
_cell_angle_gamma   90.00000000
_symmetry_Int_Tables_number   1
_chemical_formula_structural   Rb4SnS4
_chemical_formula_sum   'Rb32 Sn8 S32'
_cell_volume   2484.48406142
_cell_formula_units_Z   8
loop_
 _symmetry_equiv_pos_site_id
 _symmetry_equiv_pos_as_xyz
  1  'x, y, z'
loop_
 _atom_site_type_symbol
 _atom_site_label
 _atom_site_symmetry_multiplicity
 _atom_site_fract_x
 _atom_site_fract_y
 _atom_site_fract_z
 _atom_site_occupancy
  Rb  Rb0  1  0.91554419  0.86356063  0.65235692  1
  Rb  Rb1  1  0.91554419  0.13643937  0.34764308  1
  Rb  Rb2  1  0.86356063  0.65235692  0.91554419  1
  Rb  Rb3  1  0.13643937  0.65235692  0.08445581  1
  Rb  Rb4  1  0.65235692  0.91554419  0.86356063  1
  Rb  Rb5  1  0.34764308  0.08445581  0.86356063  1
  Rb  Rb6  1  0.58445581  0.84764308  0.36356063  1
  Rb  Rb7  1  0.58445581  0.15235692  0.63643937  1
  Rb  Rb8  1  0.41554419  0.84764308  0.63643937  1
  Rb  Rb9  1  0.15235692  0.63643937  0.58445581  1
  Rb  Rb10  1  0.63643937  0.41554419  0.84764308  1
  Rb  Rb11  1  0.63643937  0.58445581  0.15235692  1
  Rb  Rb12  1  0.84764308  0.36356063  0.58445581  1
  Rb  Rb13  1  0.36356063  0.58445581  0.84764308  1
  Rb  Rb14  1  0.84764308  0.63643937  0.41554419  1
  Rb  Rb15  1  0.15235692  0.36356063  0.41554419  1
  Rb  Rb16  1  0.36356063  0.41554419  0.15235692  1
  Rb  Rb17  1  0.34764308  0.91554419  0.13643937  1
  Rb  Rb18  1  0.65235692  0.08445581  0.13643937  1
  Rb  Rb19  1  0.86356063  0.34764308  0.08445581  1
  Rb  Rb20  1  0.13643937  0.34764308  0.91554419  1
  Rb  Rb21  1  0.08445581  0.13643937  0.65235692  1
  Rb  Rb22  1  0.08445581  0.86356063  0.34764308  1
  Rb  Rb23  1  0.41554419  0.15235692  0.36356063  1
  Rb  Rb24  1  0.15377482  0.15377482  0.15377482  1
  Rb  Rb25  1  0.34622518  0.65377482  0.34622518  1
  Rb  Rb26  1  0.65377482  0.34622518  0.34622518  1
  Rb  Rb27  1  0.34622518  0.34622518  0.65377482  1
  Rb  Rb28  1  0.15377482  0.84622518  0.84622518  1
  Rb  Rb29  1  0.84622518  0.84622518  0.15377482  1
  Rb  Rb30  1  0.84622518  0.15377482  0.84622518  1
  Rb  Rb31  1  0.65377482  0.65377482  0.65377482  1
  Sn  Sn32  1  0.75000000  -0.00000000  0.50000000  1
  Sn  Sn33  1  0.50000000  0.75000000  -0.00000000  1
  Sn  Sn34  1  0.50000000  0.25000000  -0.00000000  1
  Sn  Sn35  1  0.00000000  0.50000000  0.25000000  1
  Sn  Sn36  1  0.00000000  0.50000000  0.75000000  1
  Sn  Sn37  1  0.25000000  -0.00000000  0.50000000  1
  Sn  Sn38  1  0.50000000  0.50000000  0.50000000  1
  Sn  Sn39  1  0.00000000  -0.00000000  -0.00000000  1
  S  S40  1  0.65341427  0.90178879  0.61175675  1
  S  S41  1  0.65341427  0.09821121  0.38824325  1
  S  S42  1  0.90178879  0.61175675  0.65341427  1
  S  S43  1  0.09821121  0.61175675  0.34658573  1
  S  S44  1  0.61175675  0.65341427  0.90178879  1
  S  S45  1  0.38824325  0.34658573  0.90178879  1
  S  S46  1  0.84658573  0.88824325  0.40178879  1
  S  S47  1  0.84658573  0.11175675  0.59821121  1
  S  S48  1  0.15341427  0.88824325  0.59821121  1
  S  S49  1  0.11175675  0.59821121  0.84658573  1
  S  S50  1  0.59821121  0.15341427  0.88824325  1
  S  S51  1  0.59821121  0.84658573  0.11175675  1
  S  S52  1  0.88824325  0.40178879  0.84658573  1
  S  S53  1  0.40178879  0.84658573  0.88824325  1
  S  S54  1  0.88824325  0.59821121  0.15341427  1
  S  S55  1  0.11175675  0.40178879  0.15341427  1
  S  S56  1  0.40178879  0.15341427  0.11175675  1
  S  S57  1  0.38824325  0.65341427  0.09821121  1
  S  S58  1  0.61175675  0.34658573  0.09821121  1
  S  S59  1  0.90178879  0.38824325  0.34658573  1
  S  S60  1  0.09821121  0.38824325  0.65341427  1
  S  S61  1  0.34658573  0.09821121  0.61175675  1
  S  S62  1  0.34658573  0.90178879  0.38824325  1
  S  S63  1  0.15341427  0.11175675  0.40178879  1
  S  S64  1  0.89785103  0.89785103  0.89785103  1
  S  S65  1  0.60214897  0.39785103  0.60214897  1
  S  S66  1  0.39785103  0.60214897  0.60214897  1
  S  S67  1  0.60214897  0.60214897  0.39785103  1
  S  S68  1  0.89785103  0.10214897  0.10214897  1
  S  S69  1  0.10214897  0.10214897  0.89785103  1
  S  S70  1  0.10214897  0.89785103  0.10214897  1
  S  S71  1  0.39785103  0.39785103  0.39785103  1
