# generated using pymatgen
data_V2Te2O9
_symmetry_space_group_name_H-M   'P 1'
_cell_length_a   9.53030103
_cell_length_b   7.20759695
_cell_length_c   10.03826489
_cell_angle_alpha   85.75066800
_cell_angle_beta   90.00000000
_cell_angle_gamma   90.00000000
_symmetry_Int_Tables_number   1
_chemical_formula_structural   V2Te2O9
_chemical_formula_sum   'V8 Te8 O36'
_cell_volume   687.63862771
_cell_formula_units_Z   4
loop_
 _symmetry_equiv_pos_site_id
 _symmetry_equiv_pos_as_xyz
  1  'x, y, z'
loop_
 _atom_site_type_symbol
 _atom_site_label
 _atom_site_symmetry_multiplicity
 _atom_site_fract_x
 _atom_site_fract_y
 _atom_site_fract_z
 _atom_site_occupancy
  V  V0  1  0.74874522  0.00189238  0.03836567  1
  V  V1  1  0.24874522  0.99810762  0.46163433  1
  V  V2  1  0.25125478  0.99810762  0.96163433  1
  V  V3  1  0.75125478  0.00189238  0.53836567  1
  V  V4  1  0.53533966  0.29140950  0.23650135  1
  V  V5  1  0.03533966  0.70859050  0.26349865  1
  V  V6  1  0.46466034  0.70859050  0.76349865  1
  V  V7  1  0.96466034  0.29140950  0.73650135  1
  Te  Te8  1  0.77747157  0.54450356  0.05873392  1
  Te  Te9  1  0.27747157  0.45549644  0.44126608  1
  Te  Te10  1  0.22252843  0.45549644  0.94126608  1
  Te  Te11  1  0.72252843  0.54450356  0.55873392  1
  Te  Te12  1  0.51932923  0.85914576  0.28616008  1
  Te  Te13  1  0.01932923  0.14085424  0.21383992  1
  Te  Te14  1  0.48067077  0.14085424  0.71383992  1
  Te  Te15  1  0.98067077  0.85914576  0.78616008  1
  O  O16  1  0.45405520  0.34956009  0.09997521  1
  O  O17  1  0.95405520  0.65043991  0.40002479  1
  O  O18  1  0.54594480  0.65043991  0.90002479  1
  O  O19  1  0.04594480  0.34956009  0.59997521  1
  O  O20  1  0.95719732  0.55582241  0.14105046  1
  O  O21  1  0.45719732  0.44417759  0.35894954  1
  O  O22  1  0.04280268  0.44417759  0.85894954  1
  O  O23  1  0.54280268  0.55582241  0.64105046  1
  O  O24  1  0.63474705  0.07411846  0.92604465  1
  O  O25  1  0.13474705  0.92588154  0.57395535  1
  O  O26  1  0.36525295  0.92588154  0.07395535  1
  O  O27  1  0.86525295  0.07411846  0.42604465  1
  O  O28  1  0.85763452  0.19445931  0.04785980  1
  O  O29  1  0.35763452  0.80554069  0.45214020  1
  O  O30  1  0.14236548  0.80554069  0.95214020  1
  O  O31  1  0.64236548  0.19445931  0.54785980  1
  O  O32  1  0.86206164  0.06050772  0.69358346  1
  O  O33  1  0.36206164  0.93949228  0.80641654  1
  O  O34  1  0.13793836  0.93949228  0.30641654  1
  O  O35  1  0.63793836  0.06050772  0.19358346  1
  O  O36  1  0.84777650  0.82887845  0.92837500  1
  O  O37  1  0.34777650  0.17112155  0.57162500  1
  O  O38  1  0.15222350  0.17112155  0.07162500  1
  O  O39  1  0.65222350  0.82887845  0.42837500  1
  O  O40  1  0.06149819  0.09163924  0.82736730  1
  O  O41  1  0.56149819  0.90836076  0.67263270  1
  O  O42  1  0.70201112  0.40795491  0.21904222  1
  O  O43  1  0.43850181  0.09163924  0.32736730  1
  O  O44  1  0.80466257  0.75659018  0.62566291  1
  O  O45  1  0.30466257  0.24340982  0.87433709  1
  O  O46  1  0.19533743  0.24340982  0.37433709  1
  O  O47  1  0.69533743  0.75659018  0.12566291  1
  O  O48  1  0.79798888  0.40795491  0.71904222  1
  O  O49  1  0.29798888  0.59204509  0.78095778  1
  O  O50  1  0.20201112  0.59204509  0.28095778  1
  O  O51  1  0.93850181  0.90836076  0.17263270  1
