# generated using pymatgen
data_Sr3Ga4O9
_symmetry_space_group_name_H-M   'P 1'
_cell_length_a   6.76482409
_cell_length_b   8.04902285
_cell_length_c   9.73890731
_cell_angle_alpha   85.14454451
_cell_angle_beta   72.61379072
_cell_angle_gamma   74.33283182
_symmetry_Int_Tables_number   1
_chemical_formula_structural   Sr3Ga4O9
_chemical_formula_sum   'Sr6 Ga8 O18'
_cell_volume   487.25188187
_cell_formula_units_Z   2
loop_
 _symmetry_equiv_pos_site_id
 _symmetry_equiv_pos_as_xyz
  1  'x, y, z'
loop_
 _atom_site_type_symbol
 _atom_site_label
 _atom_site_symmetry_multiplicity
 _atom_site_fract_x
 _atom_site_fract_y
 _atom_site_fract_z
 _atom_site_occupancy
  Sr  Sr0  1  0.81399264  0.43184811  0.32311635  1
  Sr  Sr1  1  0.18600736  0.56815189  0.67688365  1
  Sr  Sr2  1  0.68760405  0.78460957  0.03934676  1
  Sr  Sr3  1  0.31239595  0.21539043  0.96065324  1
  Sr  Sr4  1  0.05878682  0.05167919  0.68833764  1
  Sr  Sr5  1  0.94121318  0.94832081  0.31166236  1
  Ga  Ga6  1  0.25115422  0.74995942  0.94314774  1
  Ga  Ga7  1  0.74884578  0.25004058  0.05685226  1
  Ga  Ga8  1  0.66514808  0.44793064  0.76667605  1
  Ga  Ga9  1  0.33485192  0.55206936  0.23332395  1
  Ga  Ga10  1  0.39013662  0.17066664  0.30010449  1
  Ga  Ga11  1  0.60986338  0.82933336  0.69989551  1
  Ga  Ga12  1  0.56076886  0.19470100  0.58066666  1
  Ga  Ga13  1  0.43923114  0.80529900  0.41933334  1
  O  O14  1  0.58923677  0.19951668  0.38519781  1
  O  O15  1  0.41076323  0.80048332  0.61480219  1
  O  O16  1  0.78443257  0.25837195  0.86160152  1
  O  O17  1  0.21556743  0.74162805  0.13839848  1
  O  O18  1  0.56303019  0.10232110  0.11462704  1
  O  O19  1  0.43696981  0.89767890  0.88537296  1
  O  O20  1  0.69833483  0.36426976  0.58751783  1
  O  O21  1  0.30166517  0.63573024  0.41248217  1
  O  O22  1  0.24206757  0.01553130  0.39893574  1
  O  O23  1  0.75793243  0.98446870  0.60106426  1
  O  O24  1  0.70855441  0.75796751  0.29726055  1
  O  O25  1  0.29144559  0.24203249  0.70273945  1
  O  O26  1  0.98030252  0.18342124  0.12490904  1
  O  O27  1  0.01969748  0.81657876  0.87509096  1
  O  O28  1  0.37739989  0.52191067  0.87133628  1
  O  O29  1  0.62260011  0.47808933  0.12866372  1
  O  O30  1  0.79473315  0.62634387  0.73724505  1
  O  O31  1  0.20526685  0.37365613  0.26275495  1
