# generated using pymatgen
data_Gd2B4O9
_symmetry_space_group_name_H-M   'P 1'
_cell_length_a   6.18453960
_cell_length_b   6.45949821
_cell_length_c   7.50911235
_cell_angle_alpha   102.33199779
_cell_angle_beta   97.13857088
_cell_angle_gamma   102.57359116
_symmetry_Int_Tables_number   1
_chemical_formula_structural   Gd2B4O9
_chemical_formula_sum   'Gd4 B8 O18'
_cell_volume   281.40719874
_cell_formula_units_Z   2
loop_
 _symmetry_equiv_pos_site_id
 _symmetry_equiv_pos_as_xyz
  1  'x, y, z'
loop_
 _atom_site_type_symbol
 _atom_site_label
 _atom_site_symmetry_multiplicity
 _atom_site_fract_x
 _atom_site_fract_y
 _atom_site_fract_z
 _atom_site_occupancy
  Gd  Gd0  1  0.45321109  0.90838667  0.71610065  1
  Gd  Gd1  1  0.54678891  0.09161333  0.28389935  1
  Gd  Gd2  1  0.11291053  0.32186489  0.64038269  1
  Gd  Gd3  1  0.88708947  0.67813511  0.35961731  1
  B  B4  1  0.99507296  0.14766852  0.18768439  1
  B  B5  1  0.00492704  0.85233148  0.81231561  1
  B  B6  1  0.37388351  0.64309058  0.34770935  1
  B  B7  1  0.62611649  0.35690942  0.65229065  1
  B  B8  1  0.26897590  0.66536073  0.01874098  1
  B  B9  1  0.73102410  0.33463927  0.98125902  1
  B  B10  1  0.33799590  0.32042650  0.07350822  1
  B  B11  1  0.66200410  0.67957350  0.92649178  1
  O  O12  1  0.57774877  0.81606773  0.44310589  1
  O  O13  1  0.23826546  0.73584216  0.20969239  1
  O  O14  1  0.77858763  0.40668734  0.52502584  1
  O  O15  1  0.22141237  0.59331266  0.47497416  1
  O  O16  1  0.76173454  0.26415784  0.79030761  1
  O  O17  1  0.86110683  0.28152349  0.13991842  1
  O  O18  1  0.54119319  0.53637253  0.74876821  1
  O  O19  1  0.45880681  0.46362747  0.25123179  1
  O  O20  1  0.77383653  0.56988903  0.03929416  1
  O  O21  1  0.22616347  0.43011097  0.96070584  1
  O  O22  1  0.81343366  0.86553313  0.88126552  1
  O  O23  1  0.18656634  0.13446687  0.11873448  1
  O  O24  1  0.06606182  0.95218376  0.67711748  1
  O  O25  1  0.93393818  0.04781624  0.32288252  1
  O  O26  1  0.49525334  0.21417810  0.98177402  1
  O  O27  1  0.50474666  0.78582190  0.01822598  1
  O  O28  1  0.13889317  0.71847651  0.86008158  1
  O  O29  1  0.42225123  0.18393227  0.55689411  1
