# generated using pymatgen
data_Er2MoO6
_symmetry_space_group_name_H-M   'P 1'
_cell_length_a   9.78160877
_cell_length_b   9.78160877
_cell_length_c   5.29020804
_cell_angle_alpha   74.77627483
_cell_angle_beta   74.77627483
_cell_angle_gamma   67.79762024
_symmetry_Int_Tables_number   1
_chemical_formula_structural   Er2MoO6
_chemical_formula_sum   'Er8 Mo4 O24'
_cell_volume   444.56665252
_cell_formula_units_Z   4
loop_
 _symmetry_equiv_pos_site_id
 _symmetry_equiv_pos_as_xyz
  1  'x, y, z'
loop_
 _atom_site_type_symbol
 _atom_site_label
 _atom_site_symmetry_multiplicity
 _atom_site_fract_x
 _atom_site_fract_y
 _atom_site_fract_z
 _atom_site_occupancy
  Er  Er0  1  0.21685709  0.44971414  0.87777601  1
  Er  Er1  1  0.44971414  0.21685709  0.37777601  1
  Er  Er2  1  0.78314291  0.55028586  0.12222399  1
  Er  Er3  1  0.55028586  0.78314291  0.62222399  1
  Er  Er4  1  0.86301526  0.13698474  0.25000000  1
  Er  Er5  1  0.13698474  0.86301526  0.75000000  1
  Er  Er6  1  0.39311883  0.60688117  0.25000000  1
  Er  Er7  1  0.60688117  0.39311883  0.75000000  1
  Mo  Mo8  1  0.98484363  0.70515815  0.43741800  1
  Mo  Mo9  1  0.29484185  0.01515637  0.06258200  1
  Mo  Mo10  1  0.01515637  0.29484185  0.56258200  1
  Mo  Mo11  1  0.70515815  0.98484363  0.93741800  1
  O  O12  1  0.42796729  0.38934623  0.57944994  1
  O  O13  1  0.61065377  0.57203271  0.92055006  1
  O  O14  1  0.57203271  0.61065377  0.42055006  1
  O  O15  1  0.38934623  0.42796729  0.07944994  1
  O  O16  1  0.19396579  0.66299857  0.58222858  1
  O  O17  1  0.33700143  0.80603421  0.91777142  1
  O  O18  1  0.80603421  0.33700143  0.41777142  1
  O  O19  1  0.66299857  0.19396579  0.08222858  1
  O  O20  1  0.11445332  0.67401047  0.12810065  1
  O  O21  1  0.32598953  0.88554668  0.37189935  1
  O  O22  1  0.88554668  0.32598953  0.87189935  1
  O  O23  1  0.67401047  0.11445332  0.62810065  1
  O  O24  1  0.71200746  0.81416839  0.86077054  1
  O  O25  1  0.18583161  0.28799254  0.63922946  1
  O  O26  1  0.28799254  0.18583161  0.13922946  1
  O  O27  1  0.81416839  0.71200746  0.36077054  1
  O  O28  1  0.88972399  0.95084316  0.98567603  1
  O  O29  1  0.04915684  0.11027601  0.51432397  1
  O  O30  1  0.97561621  0.56750002  0.74283185  1
  O  O31  1  0.95084316  0.88972399  0.48567603  1
  O  O32  1  0.56750002  0.97561621  0.24283185  1
  O  O33  1  0.02438379  0.43249998  0.25716815  1
  O  O34  1  0.43249998  0.02438379  0.75716815  1
  O  O35  1  0.11027601  0.04915684  0.01432397  1
