# generated using pymatgen
data_Sm2Se3
_symmetry_space_group_name_H-M   'P 1'
_cell_length_a   14.64689101
_cell_length_b   14.64680144
_cell_length_c   14.64684314
_cell_angle_alpha   144.88789659
_cell_angle_beta   144.88836682
_cell_angle_gamma   50.50088894
_symmetry_Int_Tables_number   1
_chemical_formula_structural   Sm2Se3
_chemical_formula_sum   'Sm16 Se24'
_cell_volume   1034.29897744
_cell_formula_units_Z   8
loop_
 _symmetry_equiv_pos_site_id
 _symmetry_equiv_pos_as_xyz
  1  'x, y, z'
loop_
 _atom_site_type_symbol
 _atom_site_label
 _atom_site_symmetry_multiplicity
 _atom_site_fract_x
 _atom_site_fract_y
 _atom_site_fract_z
 _atom_site_occupancy
  Sm  Sm0  1  0.84612940  0.95172664  0.37645125  1
  Sm  Sm1  1  0.57528187  0.46967805  0.62355489  1
  Sm  Sm2  1  0.16614297  0.16614231  -0.00000513  1
  Sm  Sm3  1  0.87499699  0.50643325  0.13148043  1
  Sm  Sm4  1  0.17476927  0.29826786  0.39451096  1
  Sm  Sm5  1  0.58386597  0.08386731  0.50000082  1
  Sm  Sm6  1  0.90375729  0.78025661  0.60548289  1
  Sm  Sm7  1  0.37496392  0.74351767  0.86853443  1
  Sm  Sm8  1  0.21974359  0.82522434  0.12349251  1
  Sm  Sm9  1  0.91612910  0.41613433  0.50000014  1
  Sm  Sm10  1  0.49356728  0.62504793  0.36856410  1
  Sm  Sm11  1  0.25648018  0.12500590  0.63143751  1
  Sm  Sm12  1  0.70172454  0.09624471  0.87649998  1
  Sm  Sm13  1  0.83385472  0.83385553  0.00000129  1
  Sm  Sm14  1  0.53032039  0.15387584  0.10560230  1
  Sm  Sm15  1  0.04827491  0.42472429  0.89440396  1
  Se  Se16  1  0.50602933  0.11532988  0.25369018  1
  Se  Se17  1  0.07375081  0.82731677  0.61085134  1
  Se  Se18  1  0.86162912  0.25234168  0.74629487  1
  Se  Se19  1  0.88844470  0.13470347  0.89069161  1
  Se  Se20  1  0.24401966  0.99774706  0.10930022  1
  Se  Se21  1  0.67616678  0.78695721  0.25341230  1
  Se  Se22  1  0.21646833  0.46288233  0.38915014  1
  Se  Se23  1  0.84169425  0.43763895  0.24594454  1
  Se  Se24  1  0.53353897  0.42274780  0.74657782  1
  Se  Se25  1  0.40424823  0.15830824  0.59594617  1
  Se  Se26  1  0.19169956  0.59575384  0.75405944  1
  Se  Se27  1  0.21303613  0.46646233  0.88920599  1
  Se  Se28  1  0.57725100  0.32383165  0.11078983  1
  Se  Se29  1  0.00224446  0.11155682  0.24626664  1
  Se  Se30  1  0.56235940  0.80830594  0.40405081  1
  Se  Se31  1  0.17268640  0.78353975  0.24642405  1
  Se  Se32  1  0.86528569  0.75598446  0.75373328  1
  Se  Se33  1  0.74765044  0.49396806  0.60929043  1
  Se  Se34  1  0.53709423  0.92626307  0.75356972  1
  Se  Se35  1  0.55812339  0.81219560  0.90406289  1
  Se  Se36  1  0.90817603  0.65406828  0.09598378  1
  Se  Se37  1  0.34594251  0.44187883  0.25408114  1
  Se  Se38  1  0.88466773  0.13835531  0.39069502  1
  Se  Se39  1  0.18779049  0.09186310  0.74591445  1
