# generated using pymatgen
data_Sr3MoN4
_symmetry_space_group_name_H-M   'P 1'
_cell_length_a   9.72407102
_cell_length_b   10.49525027
_cell_length_c   11.56657774
_cell_angle_alpha   90.00000000
_cell_angle_beta   90.00000000
_cell_angle_gamma   90.00000000
_symmetry_Int_Tables_number   1
_chemical_formula_structural   Sr3MoN4
_chemical_formula_sum   'Sr24 Mo8 N32'
_cell_volume   1180.44512353
_cell_formula_units_Z   8
loop_
 _symmetry_equiv_pos_site_id
 _symmetry_equiv_pos_as_xyz
  1  'x, y, z'
loop_
 _atom_site_type_symbol
 _atom_site_label
 _atom_site_symmetry_multiplicity
 _atom_site_fract_x
 _atom_site_fract_y
 _atom_site_fract_z
 _atom_site_occupancy
  Sr  Sr0  1  0.97300109  0.12540313  0.39645145  1
  Sr  Sr1  1  0.47300109  0.87459687  0.10354855  1
  Sr  Sr2  1  0.52699891  0.62540313  0.60354855  1
  Sr  Sr3  1  0.02699891  0.37459687  0.89645145  1
  Sr  Sr4  1  0.02699891  0.87459687  0.60354855  1
  Sr  Sr5  1  0.52699891  0.12540313  0.89645145  1
  Sr  Sr6  1  0.47300109  0.37459687  0.39645145  1
  Sr  Sr7  1  0.97300109  0.62540313  0.10354855  1
  Sr  Sr8  1  0.63350665  0.02689925  0.35509201  1
  Sr  Sr9  1  0.13350665  0.97310075  0.14490799  1
  Sr  Sr10  1  0.86649335  0.52689925  0.64490799  1
  Sr  Sr11  1  0.36649335  0.47310075  0.85509201  1
  Sr  Sr12  1  0.36649335  0.97310075  0.64490799  1
  Sr  Sr13  1  0.86649335  0.02689925  0.85509201  1
  Sr  Sr14  1  0.13350665  0.47310075  0.35509201  1
  Sr  Sr15  1  0.63350665  0.52689925  0.14490799  1
  Sr  Sr16  1  0.30578678  0.28745269  0.11562349  1
  Sr  Sr17  1  0.80578678  0.21254731  0.11562349  1
  Sr  Sr18  1  0.19421322  0.28745269  0.61562349  1
  Sr  Sr19  1  0.69421322  0.71254731  0.88437651  1
  Sr  Sr20  1  0.69421322  0.21254731  0.61562349  1
  Sr  Sr21  1  0.19421322  0.78745269  0.88437651  1
  Sr  Sr22  1  0.80578678  0.71254731  0.38437651  1
  Sr  Sr23  1  0.30578678  0.78745269  0.38437651  1
  Mo  Mo24  1  0.30926723  0.10028655  0.38768993  1
  Mo  Mo25  1  0.80926723  0.89971345  0.11231007  1
  Mo  Mo26  1  0.19073277  0.60028655  0.61231007  1
  Mo  Mo27  1  0.69073277  0.39971345  0.88768993  1
  Mo  Mo28  1  0.69073277  0.89971345  0.61231007  1
  Mo  Mo29  1  0.19073277  0.10028655  0.88768993  1
  Mo  Mo30  1  0.80926723  0.39971345  0.38768993  1
  Mo  Mo31  1  0.30926723  0.60028655  0.11231007  1
  N  N32  1  0.44167912  0.15792029  0.49247662  1
  N  N33  1  0.94167912  0.84207971  0.00752338  1
  N  N34  1  0.05832088  0.65792029  0.50752338  1
  N  N35  1  0.55832088  0.34207971  0.99247662  1
  N  N36  1  0.55832088  0.84207971  0.50752338  1
  N  N37  1  0.05832088  0.15792029  0.99247662  1
  N  N38  1  0.94167912  0.34207971  0.49247662  1
  N  N39  1  0.44167912  0.65792029  0.00752338  1
  N  N40  1  0.38795201  0.99645747  0.27632886  1
  N  N41  1  0.88795201  0.00354253  0.22367114  1
  N  N42  1  0.11204799  0.49645747  0.72367114  1
  N  N43  1  0.61204799  0.50354253  0.77632886  1
  N  N44  1  0.61204799  0.00354253  0.72367114  1
  N  N45  1  0.11204799  0.99645747  0.77632886  1
  N  N46  1  0.88795201  0.50354253  0.27632886  1
  N  N47  1  0.18751575  0.49594151  0.03059617  1
  N  N48  1  0.21426074  0.23632772  0.32155847  1
  N  N49  1  0.71426074  0.76367228  0.17844153  1
  N  N50  1  0.28573926  0.73632772  0.67844153  1
  N  N51  1  0.78573926  0.26367228  0.82155847  1
  N  N52  1  0.78573926  0.76367228  0.67844153  1
  N  N53  1  0.28573926  0.23632772  0.82155847  1
  N  N54  1  0.71426074  0.26367228  0.32155847  1
  N  N55  1  0.21426074  0.73632772  0.17844153  1
  N  N56  1  0.18751575  0.99594151  0.46940383  1
  N  N57  1  0.68751575  0.00405849  0.03059617  1
  N  N58  1  0.31248425  0.49594151  0.53059617  1
  N  N59  1  0.81248425  0.50405849  0.96940383  1
  N  N60  1  0.81248425  0.00405849  0.53059617  1
  N  N61  1  0.31248425  0.99594151  0.96940383  1
  N  N62  1  0.68751575  0.50405849  0.46940383  1
  N  N63  1  0.38795201  0.49645747  0.22367114  1
