# generated using pymatgen
data_ScCuO2
_symmetry_space_group_name_H-M   'P 1'
_cell_length_a   3.22138292
_cell_length_b   3.22138236
_cell_length_c   11.38010347
_cell_angle_alpha   90.00000000
_cell_angle_beta   90.00000000
_cell_angle_gamma   119.99999545
_symmetry_Int_Tables_number   1
_chemical_formula_structural   ScCuO2
_chemical_formula_sum   'Sc2 Cu2 O4'
_cell_volume   102.27311665
_cell_formula_units_Z   2
loop_
 _symmetry_equiv_pos_site_id
 _symmetry_equiv_pos_as_xyz
  1  'x, y, z'
loop_
 _atom_site_type_symbol
 _atom_site_label
 _atom_site_symmetry_multiplicity
 _atom_site_fract_x
 _atom_site_fract_y
 _atom_site_fract_z
 _atom_site_occupancy
  Sc  Sc0  1  -0.00000000  0.00000000  -0.00000000  1
  Sc  Sc1  1  -0.00000000  0.00000000  0.50000000  1
  Cu  Cu2  1  0.66666700  0.33333300  0.75000000  1
  Cu  Cu3  1  0.33333300  0.66666700  0.25000000  1
  O  O4  1  0.33333300  0.66666700  0.41033669  1
  O  O5  1  0.66666700  0.33333300  0.91033669  1
  O  O6  1  0.33333300  0.66666700  0.08966331  1
  O  O7  1  0.66666700  0.33333300  0.58966331  1
