# generated using pymatgen
data_Na5P3O10
_symmetry_space_group_name_H-M   'P 1'
_cell_length_a   8.35578877
_cell_length_b   8.35578877
_cell_length_c   11.12311314
_cell_angle_alpha   87.28032724
_cell_angle_beta   87.28032724
_cell_angle_gamma   36.07755959
_symmetry_Int_Tables_number   1
_chemical_formula_structural   Na5P3O10
_chemical_formula_sum   'Na10 P6 O20'
_cell_volume   456.75839249
_cell_formula_units_Z   2
loop_
 _symmetry_equiv_pos_site_id
 _symmetry_equiv_pos_as_xyz
  1  'x, y, z'
loop_
 _atom_site_type_symbol
 _atom_site_label
 _atom_site_symmetry_multiplicity
 _atom_site_fract_x
 _atom_site_fract_y
 _atom_site_fract_z
 _atom_site_occupancy
  Na  Na0  1  0.30090690  0.77771657  0.03936988  1
  Na  Na1  1  0.77771657  0.30090690  0.53936988  1
  Na  Na2  1  0.69909310  0.22228343  0.96063012  1
  Na  Na3  1  0.10828958  0.57454282  0.20842503  1
  Na  Na4  1  0.42545718  0.89171042  0.29157497  1
  Na  Na5  1  0.89171042  0.42545718  0.79157497  1
  Na  Na6  1  0.00000000  0.50000000  0.50000000  1
  Na  Na7  1  0.50000000  0.00000000  -0.00000000  1
  Na  Na8  1  0.57454282  0.10828958  0.70842503  1
  Na  Na9  1  0.22228343  0.69909310  0.46063012  1
  P  P10  1  0.04828799  0.65680056  0.90132439  1
  P  P11  1  0.34319944  0.95171201  0.59867561  1
  P  P12  1  0.95171201  0.34319944  0.09867561  1
  P  P13  1  0.65680056  0.04828799  0.40132439  1
  P  P14  1  0.30243927  0.69756073  0.75000000  1
  P  P15  1  0.69756073  0.30243927  0.25000000  1
  O  O16  1  0.72706349  0.83242981  0.35100782  1
  O  O17  1  0.96781333  0.79157609  0.02019926  1
  O  O18  1  0.20842391  0.03218667  0.47980074  1
  O  O19  1  0.03218667  0.20842391  0.97980074  1
  O  O20  1  0.79157609  0.96781333  0.52019926  1
  O  O21  1  0.83242981  0.72706349  0.85100782  1
  O  O22  1  0.50815278  0.41340682  0.15226310  1
  O  O23  1  0.58659318  0.49184722  0.34773690  1
  O  O24  1  0.49184722  0.58659318  0.84773690  1
  O  O25  1  0.41340682  0.50815278  0.65226310  1
  O  O26  1  0.83301353  0.03436482  0.30752313  1
  O  O27  1  0.96563518  0.16698647  0.19247687  1
  O  O28  1  0.16698647  0.96563518  0.69247687  1
  O  O29  1  0.03436482  0.83301353  0.80752313  1
  O  O30  1  0.16757019  0.27293651  0.14899218  1
  O  O31  1  0.66389935  0.63699687  0.10670697  1
  O  O32  1  0.63699687  0.66389935  0.60670697  1
  O  O33  1  0.33610065  0.36300313  0.89329303  1
  O  O34  1  0.36300313  0.33610065  0.39329303  1
  O  O35  1  0.27293651  0.16757019  0.64899218  1
