# generated using pymatgen
data_Ba2B4Se13
_symmetry_space_group_name_H-M   'P 1'
_cell_length_a   11.81838439
_cell_length_b   12.90016094
_cell_length_c   13.08331471
_cell_angle_alpha   76.42207521
_cell_angle_beta   90.00000000
_cell_angle_gamma   90.00000000
_symmetry_Int_Tables_number   1
_chemical_formula_structural   Ba2B4Se13
_chemical_formula_sum   'Ba8 B16 Se52'
_cell_volume   1938.92189050
_cell_formula_units_Z   4
loop_
 _symmetry_equiv_pos_site_id
 _symmetry_equiv_pos_as_xyz
  1  'x, y, z'
loop_
 _atom_site_type_symbol
 _atom_site_label
 _atom_site_symmetry_multiplicity
 _atom_site_fract_x
 _atom_site_fract_y
 _atom_site_fract_z
 _atom_site_occupancy
  Ba  Ba0  1  0.08753017  0.63736478  0.61012862  1
  Ba  Ba1  1  0.58753017  0.36263522  0.88987138  1
  Ba  Ba2  1  0.91246983  0.36263522  0.38987138  1
  Ba  Ba3  1  0.41246983  0.63736478  0.11012862  1
  Ba  Ba4  1  0.09744637  0.10390227  0.78381922  1
  Ba  Ba5  1  0.59744637  0.89609773  0.71618078  1
  Ba  Ba6  1  0.90255363  0.89609773  0.21618078  1
  Ba  Ba7  1  0.40255363  0.10390227  0.28381922  1
  B  B8  1  0.22399051  0.97062392  0.59091025  1
  B  B9  1  0.72399051  0.02937608  0.90908975  1
  B  B10  1  0.77600949  0.02937608  0.40908975  1
  B  B11  1  0.27600949  0.97062392  0.09091025  1
  B  B12  1  0.22919324  0.76352319  0.79781807  1
  B  B13  1  0.72919324  0.23647681  0.70218193  1
  B  B14  1  0.77080676  0.23647681  0.20218193  1
  B  B15  1  0.27080676  0.76352319  0.29781807  1
  B  B16  1  0.22549186  0.51609061  0.90232799  1
  B  B17  1  0.72549186  0.48390939  0.59767201  1
  B  B18  1  0.77450814  0.48390939  0.09767201  1
  B  B19  1  0.27450814  0.51609061  0.40232799  1
  B  B20  1  0.27991666  0.21725150  0.98341969  1
  B  B21  1  0.77991666  0.78274850  0.51658031  1
  B  B22  1  0.72008334  0.78274850  0.01658031  1
  B  B23  1  0.22008334  0.21725150  0.48341969  1
  Se  Se24  1  0.34705404  0.03931383  0.66656498  1
  Se  Se25  1  0.84705404  0.96068617  0.83343502  1
  Se  Se26  1  0.65294596  0.96068617  0.33343502  1
  Se  Se27  1  0.15294596  0.03931383  0.16656498  1
  Se  Se28  1  0.31687842  0.89846331  0.49405715  1
  Se  Se29  1  0.81687842  0.10153669  0.00594285  1
  Se  Se30  1  0.68312158  0.10153669  0.50594285  1
  Se  Se31  1  0.18312158  0.89846331  0.99405715  1
  Se  Se32  1  0.12320364  0.86799247  0.69800373  1
  Se  Se33  1  0.62320364  0.13200753  0.80199627  1
  Se  Se34  1  0.87679636  0.13200753  0.30199627  1
  Se  Se35  1  0.37679636  0.86799247  0.19800373  1
  Se  Se36  1  0.32529410  0.83437449  0.89409785  1
  Se  Se37  1  0.82529410  0.16562551  0.60590215  1
  Se  Se38  1  0.67470590  0.16562551  0.10590215  1
  Se  Se39  1  0.17470590  0.83437449  0.39409785  1
  Se  Se40  1  0.35485295  0.70317467  0.71621152  1
  Se  Se41  1  0.85485295  0.29682533  0.78378848  1
  Se  Se42  1  0.64514705  0.29682533  0.28378848  1
  Se  Se43  1  0.14514705  0.70317467  0.21621152  1
  Se  Se44  1  0.11949095  0.64560733  0.87404322  1
  Se  Se45  1  0.61949095  0.35439267  0.62595678  1
  Se  Se46  1  0.88050905  0.35439267  0.12595678  1
  Se  Se47  1  0.38050905  0.64560733  0.37404322  1
  Se  Se48  1  0.38923940  0.55904664  0.86541734  1
  Se  Se49  1  0.88923940  0.44095336  0.63458266  1
  Se  Se50  1  0.61076060  0.44095336  0.13458266  1
  Se  Se51  1  0.11076060  0.55904664  0.36541734  1
  Se  Se52  1  0.22522333  0.45570136  0.06089624  1
  Se  Se53  1  0.72522333  0.54429864  0.43910376  1
  Se  Se54  1  0.77477667  0.54429864  0.93910376  1
  Se  Se55  1  0.27477667  0.45570136  0.56089624  1
  Se  Se56  1  0.15307191  0.41863239  0.81794244  1
  Se  Se57  1  0.65307191  0.58136761  0.68205756  1
  Se  Se58  1  0.84692809  0.58136761  0.18205756  1
  Se  Se59  1  0.34692809  0.41863239  0.31794244  1
  Se  Se60  1  0.29292947  0.28235393  0.82522048  1
  Se  Se61  1  0.79292947  0.71764607  0.67477952  1
  Se  Se62  1  0.70707053  0.71764607  0.17477952  1
  Se  Se63  1  0.20707053  0.28235393  0.32522048  1
  Se  Se64  1  0.35670582  0.31181723  0.06981317  1
  Se  Se65  1  0.85670582  0.68818277  0.43018683  1
  Se  Se66  1  0.64329418  0.68818277  0.93018683  1
  Se  Se67  1  0.14329418  0.31181723  0.56981317  1
  Se  Se68  1  0.38577407  0.08749584  0.01489293  1
  Se  Se69  1  0.88577407  0.91250416  0.48510707  1
  Se  Se70  1  0.61422593  0.91250416  0.98510707  1
  Se  Se71  1  0.11422593  0.08749584  0.51489293  1
  Se  Se72  1  0.11416207  0.18474589  0.02038076  1
  Se  Se73  1  0.61416207  0.81525411  0.47961924  1
  Se  Se74  1  0.88583793  0.81525411  0.97961924  1
  Se  Se75  1  0.38583793  0.18474589  0.52038076  1
