# generated using pymatgen
data_SrTm2O4
_symmetry_space_group_name_H-M   'P 1'
_cell_length_a   3.34610249
_cell_length_b   9.97145227
_cell_length_c   11.74718298
_cell_angle_alpha   90.00000000
_cell_angle_beta   90.00000000
_cell_angle_gamma   90.00000000
_symmetry_Int_Tables_number   1
_chemical_formula_structural   SrTm2O4
_chemical_formula_sum   'Sr4 Tm8 O16'
_cell_volume   391.95064863
_cell_formula_units_Z   4
loop_
 _symmetry_equiv_pos_site_id
 _symmetry_equiv_pos_as_xyz
  1  'x, y, z'
loop_
 _atom_site_type_symbol
 _atom_site_label
 _atom_site_symmetry_multiplicity
 _atom_site_fract_x
 _atom_site_fract_y
 _atom_site_fract_z
 _atom_site_occupancy
  Sr  Sr0  1  0.75000000  0.25352310  0.84963369  1
  Sr  Sr1  1  0.25000000  0.74647690  0.15036631  1
  Sr  Sr2  1  0.75000000  0.75352310  0.65036631  1
  Sr  Sr3  1  0.25000000  0.24647690  0.34963369  1
  Tm  Tm4  1  0.25000000  0.57822566  0.89063250  1
  Tm  Tm5  1  0.75000000  0.42177434  0.10936750  1
  Tm  Tm6  1  0.25000000  0.07822566  0.60936750  1
  Tm  Tm7  1  0.75000000  0.92177434  0.39063250  1
  Tm  Tm8  1  0.75000000  0.92558540  0.88796537  1
  Tm  Tm9  1  0.25000000  0.07441460  0.11203463  1
  Tm  Tm10  1  0.75000000  0.42558540  0.61203463  1
  Tm  Tm11  1  0.25000000  0.57441460  0.38796537  1
  O  O12  1  0.25000000  0.57476142  0.57618830  1
  O  O13  1  0.75000000  0.42523858  0.42381170  1
  O  O14  1  0.25000000  0.07476142  0.92381170  1
  O  O15  1  0.75000000  0.92523858  0.07618830  1
  O  O16  1  0.25000000  0.48238428  0.21655882  1
  O  O17  1  0.75000000  0.51761572  0.78344118  1
  O  O18  1  0.25000000  0.98238428  0.28344118  1
  O  O19  1  0.75000000  0.01761572  0.71655882  1
  O  O20  1  0.25000000  0.87735577  0.52005867  1
  O  O21  1  0.75000000  0.12264423  0.47994133  1
  O  O22  1  0.25000000  0.37735577  0.97994133  1
  O  O23  1  0.75000000  0.62264423  0.02005867  1
  O  O24  1  0.75000000  0.70992854  0.32972974  1
  O  O25  1  0.25000000  0.29007146  0.67027026  1
  O  O26  1  0.75000000  0.20992854  0.17027026  1
  O  O27  1  0.25000000  0.79007146  0.82972974  1
