# generated using pymatgen
data_SmScO3
_symmetry_space_group_name_H-M   'P 1'
_cell_length_a   5.52626673
_cell_length_b   5.78431658
_cell_length_c   7.97599084
_cell_angle_alpha   90.00000000
_cell_angle_beta   90.00000000
_cell_angle_gamma   90.00000000
_symmetry_Int_Tables_number   1
_chemical_formula_structural   SmScO3
_chemical_formula_sum   'Sm4 Sc4 O12'
_cell_volume   254.95794114
_cell_formula_units_Z   4
loop_
 _symmetry_equiv_pos_site_id
 _symmetry_equiv_pos_as_xyz
  1  'x, y, z'
loop_
 _atom_site_type_symbol
 _atom_site_label
 _atom_site_symmetry_multiplicity
 _atom_site_fract_x
 _atom_site_fract_y
 _atom_site_fract_z
 _atom_site_occupancy
  Sm  Sm0  1  0.01735493  0.94037724  0.25000000  1
  Sm  Sm1  1  0.51735493  0.55962276  0.75000000  1
  Sm  Sm2  1  0.48264507  0.44037724  0.25000000  1
  Sm  Sm3  1  0.98264507  0.05962276  0.75000000  1
  Sc  Sc4  1  0.00000000  0.50000000  0.00000000  1
  Sc  Sc5  1  0.50000000  -0.00000000  -0.00000000  1
  Sc  Sc6  1  0.50000000  -0.00000000  0.50000000  1
  Sc  Sc7  1  0.00000000  0.50000000  0.50000000  1
  O  O8  1  0.88206952  0.54721112  0.25000000  1
  O  O9  1  0.38206952  0.95278888  0.75000000  1
  O  O10  1  0.61793048  0.04721112  0.25000000  1
  O  O11  1  0.11793048  0.45278888  0.75000000  1
  O  O12  1  0.69479673  0.30298091  0.93818140  1
  O  O13  1  0.19479673  0.19701909  0.06181860  1
  O  O14  1  0.80520327  0.80298091  0.56181860  1
  O  O15  1  0.30520327  0.69701909  0.43818140  1
  O  O16  1  0.30520327  0.69701909  0.06181860  1
  O  O17  1  0.80520327  0.80298091  0.93818140  1
  O  O18  1  0.19479673  0.19701909  0.43818140  1
  O  O19  1  0.69479673  0.30298091  0.56181860  1
