# generated using pymatgen
data_Y2MoO6
_symmetry_space_group_name_H-M   'P 1'
_cell_length_a   9.86943753
_cell_length_b   9.86943753
_cell_length_c   5.35095806
_cell_angle_alpha   74.80927266
_cell_angle_beta   74.80927266
_cell_angle_gamma   67.93322353
_symmetry_Int_Tables_number   1
_chemical_formula_structural   Y2MoO6
_chemical_formula_sum   'Y8 Mo4 O24'
_cell_volume   458.29147947
_cell_formula_units_Z   4
loop_
 _symmetry_equiv_pos_site_id
 _symmetry_equiv_pos_as_xyz
  1  'x, y, z'
loop_
 _atom_site_type_symbol
 _atom_site_label
 _atom_site_symmetry_multiplicity
 _atom_site_fract_x
 _atom_site_fract_y
 _atom_site_fract_z
 _atom_site_occupancy
  Y  Y0  1  0.60737592  0.39262408  0.25000000  1
  Y  Y1  1  0.39262408  0.60737592  0.75000000  1
  Y  Y2  1  0.13584875  0.86415125  0.25000000  1
  Y  Y3  1  0.86415125  0.13584875  0.75000000  1
  Y  Y4  1  0.78442655  0.55182140  0.62074462  1
  Y  Y5  1  0.44817860  0.21557345  0.87925538  1
  Y  Y6  1  0.55182140  0.78442655  0.12074462  1
  Y  Y7  1  0.21557345  0.44817860  0.37925538  1
  Mo  Mo8  1  0.70487919  0.98644671  0.43950360  1
  Mo  Mo9  1  0.01355329  0.29512081  0.06049640  1
  Mo  Mo10  1  0.29512081  0.01355329  0.56049640  1
  Mo  Mo11  1  0.98644671  0.70487919  0.93950360  1
  O  O12  1  0.42684307  0.38970227  0.07833422  1
  O  O13  1  0.61029773  0.57315693  0.42166578  1
  O  O14  1  0.57315693  0.61029773  0.92166578  1
  O  O15  1  0.38970227  0.42684307  0.57833422  1
  O  O16  1  0.19225050  0.66342857  0.08307187  1
  O  O17  1  0.33657143  0.80774950  0.41692813  1
  O  O18  1  0.80774950  0.33657143  0.91692813  1
  O  O19  1  0.66342857  0.19225050  0.58307187  1
  O  O20  1  0.11391087  0.67383672  0.63306029  1
  O  O21  1  0.32616328  0.88608913  0.86693971  1
  O  O22  1  0.88608913  0.32616328  0.36693971  1
  O  O23  1  0.67383672  0.11391087  0.13306029  1
  O  O24  1  0.71234117  0.81679830  0.36424639  1
  O  O25  1  0.18320170  0.28765883  0.13575361  1
  O  O26  1  0.28765883  0.18320170  0.63575361  1
  O  O27  1  0.81679830  0.71234117  0.86424639  1
  O  O28  1  0.88836577  0.95152927  0.48623375  1
  O  O29  1  0.04847073  0.11163423  0.01376625  1
  O  O30  1  0.97566108  0.56829548  0.24161905  1
  O  O31  1  0.95152927  0.88836577  0.98623375  1
  O  O32  1  0.56829548  0.97566108  0.74161905  1
  O  O33  1  0.02433892  0.43170452  0.75838095  1
  O  O34  1  0.43170452  0.02433892  0.25838095  1
  O  O35  1  0.11163423  0.04847073  0.51376625  1
