# generated using pymatgen
data_Rb6Te2O9
_symmetry_space_group_name_H-M   'P 1'
_cell_length_a   8.74646058
_cell_length_b   8.74646058
_cell_length_c   11.02718899
_cell_angle_alpha   67.85999528
_cell_angle_beta   67.85999528
_cell_angle_gamma   92.85068128
_symmetry_Int_Tables_number   1
_chemical_formula_structural   Rb6Te2O9
_chemical_formula_sum   'Rb12 Te4 O18'
_cell_volume   705.45986636
_cell_formula_units_Z   2
loop_
 _symmetry_equiv_pos_site_id
 _symmetry_equiv_pos_as_xyz
  1  'x, y, z'
loop_
 _atom_site_type_symbol
 _atom_site_label
 _atom_site_symmetry_multiplicity
 _atom_site_fract_x
 _atom_site_fract_y
 _atom_site_fract_z
 _atom_site_occupancy
  Rb  Rb0  1  0.49811417  0.69801721  0.02481689  1
  Rb  Rb1  1  0.30198279  0.50188583  0.47518311  1
  Rb  Rb2  1  0.50188583  0.30198279  0.97518311  1
  Rb  Rb3  1  0.69801721  0.49811417  0.52481689  1
  Rb  Rb4  1  0.99994297  0.70528499  0.02940072  1
  Rb  Rb5  1  0.29471501  0.00005703  0.47059928  1
  Rb  Rb6  1  0.00005703  0.29471501  0.97059928  1
  Rb  Rb7  1  0.70528499  0.99994297  0.52940072  1
  Rb  Rb8  1  0.09611525  0.31983301  0.26260358  1
  Rb  Rb9  1  0.68016699  0.90388475  0.23739642  1
  Rb  Rb10  1  0.90388475  0.68016699  0.73739642  1
  Rb  Rb11  1  0.31983301  0.09611525  0.76260358  1
  Te  Te12  1  0.37401169  0.62598831  0.75000000  1
  Te  Te13  1  0.62598831  0.37401169  0.25000000  1
  Te  Te14  1  0.14582428  0.85417572  0.25000000  1
  Te  Te15  1  0.85417572  0.14582428  0.75000000  1
  O  O16  1  0.09291123  0.63222444  0.28555236  1
  O  O17  1  0.36777556  0.90708877  0.21444764  1
  O  O18  1  0.90708877  0.36777556  0.71444764  1
  O  O19  1  0.63222444  0.09291123  0.78555236  1
  O  O20  1  0.88499718  0.01186928  0.90814528  1
  O  O21  1  0.98813072  0.11500282  0.59185472  1
  O  O22  1  0.11500282  0.98813072  0.09185472  1
  O  O23  1  0.01186928  0.88499718  0.40814528  1
  O  O24  1  0.66812579  0.58344522  0.25590639  1
  O  O25  1  0.41655478  0.33187421  0.24409361  1
  O  O26  1  0.33187421  0.41655478  0.74409361  1
  O  O27  1  0.58344522  0.66812579  0.75590639  1
  O  O28  1  0.52037839  0.26266478  0.45843634  1
  O  O29  1  0.73733522  0.47962161  0.04156366  1
  O  O30  1  0.47962161  0.73733522  0.54156366  1
  O  O31  1  0.26266478  0.52037839  0.95843634  1
  O  O32  1  0.22492645  0.77507355  0.75000000  1
  O  O33  1  0.77507355  0.22492645  0.25000000  1
