# generated using pymatgen
data_Ta2Te2O9
_symmetry_space_group_name_H-M   'P 1'
_cell_length_a   7.54363828
_cell_length_b   7.14625741
_cell_length_c   14.73283662
_cell_angle_alpha   77.22765391
_cell_angle_beta   90.00000000
_cell_angle_gamma   90.00000000
_symmetry_Int_Tables_number   1
_chemical_formula_structural   Ta2Te2O9
_chemical_formula_sum   'Ta8 Te8 O36'
_cell_volume   774.57698978
_cell_formula_units_Z   4
loop_
 _symmetry_equiv_pos_site_id
 _symmetry_equiv_pos_as_xyz
  1  'x, y, z'
loop_
 _atom_site_type_symbol
 _atom_site_label
 _atom_site_symmetry_multiplicity
 _atom_site_fract_x
 _atom_site_fract_y
 _atom_site_fract_z
 _atom_site_occupancy
  Ta  Ta0  1  0.50395310  0.36729637  0.90111711  1
  Ta  Ta1  1  0.00395310  0.63270363  0.59888289  1
  Ta  Ta2  1  0.49604690  0.63270363  0.09888289  1
  Ta  Ta3  1  0.99604690  0.36729637  0.40111711  1
  Ta  Ta4  1  0.70082333  0.05532176  0.56721578  1
  Ta  Ta5  1  0.20082333  0.94467824  0.93278422  1
  Ta  Ta6  1  0.29917667  0.94467824  0.43278422  1
  Ta  Ta7  1  0.79917667  0.05532176  0.06721578  1
  Te  Te8  1  0.56105626  0.46261177  0.66609918  1
  Te  Te9  1  0.06105626  0.53738823  0.83390082  1
  Te  Te10  1  0.43894374  0.53738823  0.33390082  1
  Te  Te11  1  0.93894374  0.46261177  0.16609918  1
  Te  Te12  1  0.63688003  0.87173276  0.81592279  1
  Te  Te13  1  0.13688003  0.12826724  0.68407721  1
  Te  Te14  1  0.36311997  0.12826724  0.18407721  1
  Te  Te15  1  0.86311997  0.87173276  0.31592279  1
  O  O16  1  0.84317552  0.60226238  0.33219184  1
  O  O17  1  0.34317552  0.39773762  0.16780816  1
  O  O18  1  0.15682448  0.39773762  0.66780816  1
  O  O19  1  0.65682448  0.60226238  0.83219184  1
  O  O20  1  0.90182760  0.11585423  0.64738015  1
  O  O21  1  0.40182760  0.88414577  0.85261985  1
  O  O22  1  0.09817240  0.88414577  0.35261985  1
  O  O23  1  0.59817240  0.11585423  0.14738015  1
  O  O24  1  0.50000000  0.50000000  0.00000000  1
  O  O25  1  0.00000000  0.50000000  0.50000000  1
  O  O26  1  0.59132994  0.90529120  0.68861998  1
  O  O27  1  0.09132994  0.09470880  0.81138002  1
  O  O28  1  0.40867006  0.09470880  0.31138002  1
  O  O29  1  0.90867006  0.90529120  0.18861998  1
  O  O30  1  0.69782109  0.20970238  0.95558656  1
  O  O31  1  0.19782109  0.79029762  0.54441344  1
  O  O32  1  0.30217891  0.79029762  0.04441344  1
  O  O33  1  0.80217891  0.20970238  0.45558656  1
  O  O34  1  0.30617804  0.51817785  0.82873907  1
  O  O35  1  0.80617804  0.48182215  0.67126093  1
  O  O36  1  0.00000000  -0.00000000  0.00000000  1
  O  O37  1  0.50000000  -0.00000000  0.50000000  1
  O  O38  1  0.93707395  0.28597191  0.08967086  1
  O  O39  1  0.43707395  0.71402809  0.41032914  1
  O  O40  1  0.06292605  0.71402809  0.91032914  1
  O  O41  1  0.56292605  0.28597191  0.58967086  1
  O  O42  1  0.66923534  0.82718137  0.05214023  1
  O  O43  1  0.16923534  0.17281863  0.44785977  1
  O  O44  1  0.33076466  0.17281863  0.94785977  1
  O  O45  1  0.83076466  0.82718137  0.55214023  1
  O  O46  1  0.95250702  0.27700719  0.27931744  1
  O  O47  1  0.45250702  0.72299281  0.22068256  1
  O  O48  1  0.04749298  0.72299281  0.72068256  1
  O  O49  1  0.54749298  0.27700719  0.77931744  1
  O  O50  1  0.19382196  0.51817785  0.32873907  1
  O  O51  1  0.69382196  0.48182215  0.17126093  1
