# generated using pymatgen
data_Rb3NbS4
_symmetry_space_group_name_H-M   'P 1'
_cell_length_a   9.65318335
_cell_length_b   9.77799585
_cell_length_c   11.13389160
_cell_angle_alpha   90.00000000
_cell_angle_beta   90.00000000
_cell_angle_gamma   90.00000000
_symmetry_Int_Tables_number   1
_chemical_formula_structural   Rb3NbS4
_chemical_formula_sum   'Rb12 Nb4 S16'
_cell_volume   1050.91451977
_cell_formula_units_Z   4
loop_
 _symmetry_equiv_pos_site_id
 _symmetry_equiv_pos_as_xyz
  1  'x, y, z'
loop_
 _atom_site_type_symbol
 _atom_site_label
 _atom_site_symmetry_multiplicity
 _atom_site_fract_x
 _atom_site_fract_y
 _atom_site_fract_z
 _atom_site_occupancy
  Rb  Rb0  1  0.05428668  0.28935341  0.54300592  1
  Rb  Rb1  1  0.86000240  0.92092636  0.75000000  1
  Rb  Rb2  1  0.13999760  0.07907364  0.25000000  1
  Rb  Rb3  1  0.63999760  0.42092636  0.25000000  1
  Rb  Rb4  1  0.94571332  0.71064659  0.45699408  1
  Rb  Rb5  1  0.44571332  0.78935341  0.04300592  1
  Rb  Rb6  1  0.55428668  0.21064659  0.54300592  1
  Rb  Rb7  1  0.05428668  0.28935341  0.95699408  1
  Rb  Rb8  1  0.94571332  0.71064659  0.04300592  1
  Rb  Rb9  1  0.55428668  0.21064659  0.95699408  1
  Rb  Rb10  1  0.44571332  0.78935341  0.45699408  1
  Rb  Rb11  1  0.36000240  0.57907364  0.75000000  1
  Nb  Nb12  1  0.28230704  0.01358011  0.75000000  1
  Nb  Nb13  1  0.78230704  0.48641989  0.75000000  1
  Nb  Nb14  1  0.21769296  0.51358011  0.25000000  1
  Nb  Nb15  1  0.71769296  0.98641989  0.25000000  1
  S  S16  1  0.30314759  0.24679740  0.75000000  1
  S  S17  1  0.80314759  0.25320260  0.75000000  1
  S  S18  1  0.19685241  0.74679740  0.25000000  1
  S  S19  1  0.69685241  0.75320260  0.25000000  1
  S  S20  1  -0.00026149  0.58140031  0.75000000  1
  S  S21  1  0.49973851  0.91859969  0.75000000  1
  S  S22  1  0.50026149  0.08140031  0.25000000  1
  S  S23  1  0.00026149  0.41859969  0.25000000  1
  S  S24  1  0.83356395  0.05060581  0.08016768  1
  S  S25  1  0.33356395  0.44939419  0.41983232  1
  S  S26  1  0.66643605  0.55060581  0.91983232  1
  S  S27  1  0.16643605  0.94939419  0.58016768  1
  S  S28  1  0.16643605  0.94939419  0.91983232  1
  S  S29  1  0.83356395  0.05060581  0.41983232  1
  S  S30  1  0.33356395  0.44939419  0.08016768  1
  S  S31  1  0.66643605  0.55060581  0.58016768  1
