# generated using pymatgen
data_YPS4
_symmetry_space_group_name_H-M   'P 1'
_cell_length_a   12.19167946
_cell_length_b   12.19167649
_cell_length_c   12.19172033
_cell_angle_alpha   127.78521163
_cell_angle_beta   127.78503651
_cell_angle_gamma   76.97302697
_symmetry_Int_Tables_number   1
_chemical_formula_structural   YPS4
_chemical_formula_sum   'Y8 P8 S32'
_cell_volume   1098.73511456
_cell_formula_units_Z   8
loop_
 _symmetry_equiv_pos_site_id
 _symmetry_equiv_pos_as_xyz
  1  'x, y, z'
loop_
 _atom_site_type_symbol
 _atom_site_label
 _atom_site_symmetry_multiplicity
 _atom_site_fract_x
 _atom_site_fract_y
 _atom_site_fract_z
 _atom_site_occupancy
  Y  Y0  1  0.49999778  0.50000608  0.00000190  1
  Y  Y1  1  0.25000153  0.74999328  0.49999740  1
  Y  Y2  1  0.75000661  0.24999916  0.50000321  1
  Y  Y3  1  -0.00000617  0.00000073  -0.00000296  1
  Y  Y4  1  0.24999919  0.25000324  0.00000032  1
  Y  Y5  1  -0.00000175  0.50000313  0.49999938  1
  Y  Y6  1  0.50000005  -0.00000307  0.49999892  1
  Y  Y7  1  0.75000038  0.74999610  -0.00000143  1
  P  P8  1  0.62499763  0.91314944  0.78814672  1
  P  P9  1  0.62500652  0.41316692  0.28815904  1
  P  P10  1  0.16314900  0.37500145  0.28815408  1
  P  P11  1  0.08683761  0.87499192  0.71183651  1
  P  P12  1  0.12500905  0.33685561  0.71185258  1
  P  P13  1  0.12499995  0.83683975  0.21184318  1
  P  P14  1  0.58684571  0.87499467  0.21184690  1
  P  P15  1  0.66315687  0.37500317  0.78816385  1
  S  S16  1  0.98484024  0.71001357  0.45146269  1
  S  S17  1  0.25855433  0.53338887  0.54853340  1
  S  S18  1  0.28339156  0.23485521  0.77483881  1
  S  S19  1  0.46001454  0.50855953  0.22516617  1
  S  S20  1  0.99144287  0.03998013  0.77483310  1
  S  S21  1  0.26514248  0.21661312  0.22516292  1
  S  S22  1  0.78998471  0.51515913  0.54853149  1
  S  S23  1  0.96661560  0.24144977  0.45147579  1
  S  S24  1  0.77960803  0.96792344  0.31996432  1
  S  S25  1  0.71792502  0.89795514  0.68830724  1
  S  S26  1  0.20964460  0.02959729  0.31166145  1
  S  S27  1  0.47040110  0.29035412  0.68834608  1
  S  S28  1  0.60203690  0.78207140  0.31168927  1
  S  S29  1  0.04035291  0.85202710  0.31995903  1
  S  S30  1  0.53206978  0.72038676  0.68003286  1
  S  S31  1  0.64796792  0.45964294  0.68004022  1
  S  S32  1  0.97038402  0.28207234  0.18003114  1
  S  S33  1  0.03207947  0.35204177  0.81168472  1
  S  S34  1  0.54035943  0.22041174  0.18834430  1
  S  S35  1  0.27959023  0.95964505  0.81165369  1
  S  S36  1  0.14796087  0.46792333  0.18831264  1
  S  S37  1  0.70965135  0.39797436  0.18003841  1
  S  S38  1  0.21793101  0.52962163  0.81996692  1
  S  S39  1  0.10203448  0.79035112  0.81996313  1
  S  S40  1  0.49144718  0.71660622  0.95147019  1
  S  S41  1  0.46661019  0.01514662  0.72516301  1
  S  S42  1  0.28998500  0.74143858  0.27483099  1
  S  S43  1  0.75855617  0.21001816  0.72516716  1
  S  S44  1  0.48485467  0.03338682  0.27483586  1
  S  S45  1  0.96001943  0.73484608  0.95147118  1
  S  S46  1  0.78338561  0.00855030  0.04852419  1
  S  S47  1  0.76515832  0.53998677  0.04853800  1
