# generated using pymatgen
data_TbAsO4
_symmetry_space_group_name_H-M   'P 1'
_cell_length_a   5.92748240
_cell_length_b   5.92748333
_cell_length_c   5.92748237
_cell_angle_alpha   106.54287755
_cell_angle_beta   106.54286851
_cell_angle_gamma   115.50148291
_symmetry_Int_Tables_number   1
_chemical_formula_structural   TbAsO4
_chemical_formula_sum   'Tb2 As2 O8'
_cell_volume   158.97468148
_cell_formula_units_Z   2
loop_
 _symmetry_equiv_pos_site_id
 _symmetry_equiv_pos_as_xyz
  1  'x, y, z'
loop_
 _atom_site_type_symbol
 _atom_site_label
 _atom_site_symmetry_multiplicity
 _atom_site_fract_x
 _atom_site_fract_y
 _atom_site_fract_z
 _atom_site_occupancy
  Tb  Tb0  1  0.37500000  0.62500000  0.75000000  1
  Tb  Tb1  1  0.62500000  0.37500000  0.25000000  1
  As  As2  1  0.87500000  0.12500000  0.75000000  1
  As  As3  1  0.12500000  0.87500000  0.25000000  1
  O  O4  1  0.29929222  0.23090187  0.43160965  1
  O  O5  1  0.86768357  0.29929222  0.56839035  1
  O  O6  1  0.23090187  0.29929222  0.93160965  1
  O  O7  1  0.29929222  0.86768357  0.06839035  1
  O  O8  1  0.13231643  0.70070778  0.43160965  1
  O  O9  1  0.70070778  0.76909813  0.56839035  1
  O  O10  1  0.70070778  0.13231643  0.93160965  1
  O  O11  1  0.76909813  0.70070778  0.06839035  1
