# generated using pymatgen
data_BiKrF7
_symmetry_space_group_name_H-M   'P 1'
_cell_length_a   10.59321774
_cell_length_b   5.29125236
_cell_length_c   11.01870519
_cell_angle_alpha   84.47635688
_cell_angle_beta   90.00000000
_cell_angle_gamma   90.00000000
_symmetry_Int_Tables_number   1
_chemical_formula_structural   BiKrF7
_chemical_formula_sum   'Bi4 Kr4 F28'
_cell_volume   614.74587404
_cell_formula_units_Z   4
loop_
 _symmetry_equiv_pos_site_id
 _symmetry_equiv_pos_as_xyz
  1  'x, y, z'
loop_
 _atom_site_type_symbol
 _atom_site_label
 _atom_site_symmetry_multiplicity
 _atom_site_fract_x
 _atom_site_fract_y
 _atom_site_fract_z
 _atom_site_occupancy
  Bi  Bi0  1  0.99102314  0.60236941  0.73366030  1
  Bi  Bi1  1  0.49102314  0.39763059  0.76633970  1
  Bi  Bi2  1  0.00897686  0.39763059  0.26633970  1
  Bi  Bi3  1  0.50897686  0.60236941  0.23366030  1
  Kr  Kr4  1  0.23588411  0.98713562  0.52489648  1
  Kr  Kr5  1  0.73588411  0.01286438  0.97510352  1
  Kr  Kr6  1  0.76411589  0.01286438  0.47510352  1
  Kr  Kr7  1  0.26411589  0.98713562  0.02489648  1
  F  F8  1  0.38369364  0.14917992  0.48084547  1
  F  F9  1  0.88369364  0.85082008  0.01915453  1
  F  F10  1  0.61630636  0.85082008  0.51915453  1
  F  F11  1  0.11630636  0.14917992  0.98084547  1
  F  F12  1  0.63693120  0.49786104  0.11386137  1
  F  F13  1  0.13693120  0.50213896  0.38613863  1
  F  F14  1  0.36306880  0.50213896  0.88613863  1
  F  F15  1  0.86306880  0.49786104  0.61386137  1
  F  F16  1  0.61331045  0.91645690  0.24705711  1
  F  F17  1  0.11331045  0.08354310  0.25294289  1
  F  F18  1  0.38668955  0.08354310  0.75294289  1
  F  F19  1  0.88668955  0.91645690  0.74705711  1
  F  F20  1  0.43475162  0.81222246  0.06966269  1
  F  F21  1  0.93475162  0.18777754  0.43033731  1
  F  F22  1  0.56524838  0.18777754  0.93033731  1
  F  F23  1  0.06524838  0.81222246  0.56966269  1
  F  F24  1  0.58700369  0.41272719  0.38097252  1
  F  F25  1  0.08700369  0.58727281  0.11902748  1
  F  F26  1  0.41299631  0.58727281  0.61902748  1
  F  F27  1  0.91299631  0.41272719  0.88097252  1
  F  F28  1  0.39396276  0.32032177  0.19414330  1
  F  F29  1  0.89396276  0.67967823  0.30585670  1
  F  F30  1  0.60603724  0.67967823  0.80585670  1
  F  F31  1  0.10603724  0.32032177  0.69414330  1
  F  F32  1  0.13418245  0.75695333  0.81896611  1
  F  F33  1  0.63418245  0.24304667  0.68103389  1
  F  F34  1  0.86581755  0.24304667  0.18103389  1
  F  F35  1  0.36581755  0.75695333  0.31896611  1
