# generated using pymatgen
data_Zn2SiO4
_symmetry_space_group_name_H-M   'P 1'
_cell_length_a   8.63505483
_cell_length_b   8.63505483
_cell_length_c   8.63505514
_cell_angle_alpha   107.86349873
_cell_angle_beta   107.86349868
_cell_angle_gamma   107.86349957
_symmetry_Int_Tables_number   1
_chemical_formula_structural   Zn2SiO4
_chemical_formula_sum   'Zn12 Si6 O24'
_cell_volume   523.07300911
_cell_formula_units_Z   6
loop_
 _symmetry_equiv_pos_site_id
 _symmetry_equiv_pos_as_xyz
  1  'x, y, z'
loop_
 _atom_site_type_symbol
 _atom_site_label
 _atom_site_symmetry_multiplicity
 _atom_site_fract_x
 _atom_site_fract_y
 _atom_site_fract_z
 _atom_site_occupancy
  Zn  Zn0  1  0.61042003  0.43941890  0.20456379  1
  Zn  Zn1  1  0.20456379  0.61042003  0.43941890  1
  Zn  Zn2  1  0.43941890  0.20456379  0.61042003  1
  Zn  Zn3  1  0.38957997  0.56058110  0.79543621  1
  Zn  Zn4  1  0.79543621  0.38957997  0.56058110  1
  Zn  Zn5  1  0.56058110  0.79543621  0.38957997  1
  Zn  Zn6  1  0.89951944  0.12513824  0.72242283  1
  Zn  Zn7  1  0.12513824  0.72242283  0.89951944  1
  Zn  Zn8  1  0.72242283  0.89951944  0.12513824  1
  Zn  Zn9  1  0.10048056  0.87486176  0.27757717  1
  Zn  Zn10  1  0.87486176  0.27757717  0.10048056  1
  Zn  Zn11  1  0.27757717  0.10048056  0.87486176  1
  Si  Si12  1  0.23481780  0.46028532  0.05344398  1
  Si  Si13  1  0.46028532  0.05344398  0.23481780  1
  Si  Si14  1  0.05344398  0.23481780  0.46028532  1
  Si  Si15  1  0.76518220  0.53971468  0.94655602  1
  Si  Si16  1  0.53971468  0.94655602  0.76518220  1
  Si  Si17  1  0.94655602  0.76518220  0.53971468  1
  O  O18  1  0.36066366  0.35401345  0.03386319  1
  O  O19  1  0.03386319  0.36066366  0.35401345  1
  O  O20  1  0.35401345  0.03386319  0.36066366  1
  O  O21  1  0.63933634  0.64598655  0.96613681  1
  O  O22  1  0.96613681  0.63933634  0.64598655  1
  O  O23  1  0.64598655  0.96613681  0.63933634  1
  O  O24  1  0.73291075  0.68758140  0.39993754  1
  O  O25  1  0.39993754  0.73291075  0.68758140  1
  O  O26  1  0.68758140  0.39993754  0.73291075  1
  O  O27  1  0.26708925  0.31241860  0.60006246  1
  O  O28  1  0.60006246  0.26708925  0.31241860  1
  O  O29  1  0.31241860  0.60006246  0.26708925  1
  O  O30  1  0.02576172  0.97308268  0.69072583  1
  O  O31  1  0.69072583  0.02576172  0.97308268  1
  O  O32  1  0.97308268  0.69072583  0.02576172  1
  O  O33  1  0.97423828  0.02691732  0.30927417  1
  O  O34  1  0.30927417  0.97423828  0.02691732  1
  O  O35  1  0.02691732  0.30927417  0.97423828  1
  O  O36  1  0.24865985  0.57305330  0.93322315  1
  O  O37  1  0.57305330  0.93322315  0.24865985  1
  O  O38  1  0.93322315  0.24865985  0.57305330  1
  O  O39  1  0.75134015  0.42694670  0.06677685  1
  O  O40  1  0.42694670  0.06677685  0.75134015  1
  O  O41  1  0.06677685  0.75134015  0.42694670  1
