# generated using pymatgen
data_Y2WO6
_symmetry_space_group_name_H-M   'P 1'
_cell_length_a   5.22427324
_cell_length_b   9.05999609
_cell_length_c   9.90758729
_cell_angle_alpha   90.00000000
_cell_angle_beta   90.00000000
_cell_angle_gamma   90.00000000
_symmetry_Int_Tables_number   1
_chemical_formula_structural   Y2WO6
_chemical_formula_sum   'Y8 W4 O24'
_cell_volume   468.94488258
_cell_formula_units_Z   4
loop_
 _symmetry_equiv_pos_site_id
 _symmetry_equiv_pos_as_xyz
  1  'x, y, z'
loop_
 _atom_site_type_symbol
 _atom_site_label
 _atom_site_symmetry_multiplicity
 _atom_site_fract_x
 _atom_site_fract_y
 _atom_site_fract_z
 _atom_site_occupancy
  Y  Y0  1  0.98069318  0.60308108  0.53438090  1
  Y  Y1  1  0.48069318  0.89691892  0.46561910  1
  Y  Y2  1  0.01930682  0.10308108  0.96561910  1
  Y  Y3  1  0.51930682  0.39691892  0.03438090  1
  Y  Y4  1  0.46231020  0.78065269  0.87135061  1
  Y  Y5  1  0.96231020  0.71934731  0.12864939  1
  Y  Y6  1  0.03768980  0.21934731  0.37135061  1
  Y  Y7  1  0.53768980  0.28065269  0.62864939  1
  W  W8  1  0.96114400  0.99522290  0.65254791  1
  W  W9  1  0.46114400  0.50477710  0.34745209  1
  W  W10  1  0.03885600  0.49522290  0.84745209  1
  W  W11  1  0.53885600  0.00477710  0.15254791  1
  O  O12  1  0.75321066  0.08962227  0.50583333  1
  O  O13  1  0.25321066  0.41037773  0.49416667  1
  O  O14  1  0.24678934  0.58962227  0.99416667  1
  O  O15  1  0.74678934  0.91037773  0.00583333  1
  O  O16  1  0.23198549  0.11344343  0.56804482  1
  O  O17  1  0.73198549  0.38655657  0.43195518  1
  O  O18  1  0.76801451  0.61344343  0.93195518  1
  O  O19  1  0.26801451  0.88655657  0.06804482  1
  O  O20  1  0.08378935  0.84353410  0.53082683  1
  O  O21  1  0.58378935  0.65646590  0.46917317  1
  O  O22  1  0.91621065  0.34353410  0.96917317  1
  O  O23  1  0.41621065  0.15646590  0.03082683  1
  O  O24  1  0.69317000  0.86010179  0.26371750  1
  O  O25  1  0.19317000  0.63989821  0.73628250  1
  O  O26  1  0.30683000  0.36010179  0.23628250  1
  O  O27  1  0.80683000  0.13989821  0.76371750  1
  O  O28  1  0.32484407  0.04720536  0.29727677  1
  O  O29  1  0.82484407  0.45279464  0.70272323  1
  O  O30  1  0.68173850  0.86280647  0.68065662  1
  O  O31  1  0.17515593  0.95279464  0.79727677  1
  O  O32  1  0.81826150  0.13719353  0.18065662  1
  O  O33  1  0.31826150  0.36280647  0.81934338  1
  O  O34  1  0.18173850  0.63719353  0.31934338  1
  O  O35  1  0.67515593  0.54720536  0.20272323  1
