# generated using pymatgen
data_Rb4P21I
_symmetry_space_group_name_H-M   'P 1'
_cell_length_a   12.96024821
_cell_length_b   12.96024821
_cell_length_c   9.86671281
_cell_angle_alpha   90.00000000
_cell_angle_beta   90.00000000
_cell_angle_gamma   116.32616321
_symmetry_Int_Tables_number   1
_chemical_formula_structural   Rb4P21I
_chemical_formula_sum   'Rb8 P42 I2'
_cell_volume   1485.40464197
_cell_formula_units_Z   2
loop_
 _symmetry_equiv_pos_site_id
 _symmetry_equiv_pos_as_xyz
  1  'x, y, z'
loop_
 _atom_site_type_symbol
 _atom_site_label
 _atom_site_symmetry_multiplicity
 _atom_site_fract_x
 _atom_site_fract_y
 _atom_site_fract_z
 _atom_site_occupancy
  Rb  Rb0  1  0.24055975  0.06767093  0.25000000  1
  Rb  Rb1  1  0.75944025  0.93232907  0.75000000  1
  Rb  Rb2  1  0.06767093  0.24055975  0.25000000  1
  Rb  Rb3  1  0.93232907  0.75944025  0.75000000  1
  Rb  Rb4  1  0.38036165  0.61963835  0.50000000  1
  Rb  Rb5  1  0.61963835  0.38036165  0.00000000  1
  Rb  Rb6  1  0.61963835  0.38036165  0.50000000  1
  Rb  Rb7  1  0.38036165  0.61963835  0.00000000  1
  P  P8  1  0.95034422  0.95034422  0.25000000  1
  P  P9  1  0.04965578  0.04965578  0.75000000  1
  P  P10  1  0.66158857  0.20144869  0.25000000  1
  P  P11  1  0.33841143  0.79855131  0.75000000  1
  P  P12  1  0.20144869  0.66158857  0.25000000  1
  P  P13  1  0.79855131  0.33841143  0.75000000  1
  P  P14  1  0.31530527  0.01400929  0.92301106  1
  P  P15  1  0.68469473  0.98599071  0.42301106  1
  P  P16  1  0.01400929  0.31530527  0.57698894  1
  P  P17  1  0.98599071  0.68469473  0.07698894  1
  P  P18  1  0.05819501  0.50139938  0.91564361  1
  P  P19  1  0.94180499  0.49860062  0.41564361  1
  P  P20  1  0.50139938  0.05819501  0.58435639  1
  P  P21  1  0.49860062  0.94180499  0.08435639  1
  P  P22  1  0.94180499  0.49860062  0.08435639  1
  P  P23  1  0.05819501  0.50139938  0.58435639  1
  P  P24  1  0.49860062  0.94180499  0.41564361  1
  P  P25  1  0.50139938  0.05819501  0.91564361  1
  P  P26  1  0.15260488  0.15260488  0.91240065  1
  P  P27  1  0.84739512  0.84739512  0.41240065  1
  P  P28  1  0.15260488  0.15260488  0.58759935  1
  P  P29  1  0.84739512  0.84739512  0.08759935  1
  P  P30  1  0.94453170  0.50452153  0.75000000  1
  P  P31  1  0.05546830  0.49547847  0.25000000  1
  P  P32  1  0.50452153  0.94453170  0.75000000  1
  P  P33  1  0.49547847  0.05546830  0.25000000  1
  P  P34  1  0.89126492  0.23780716  0.75000000  1
  P  P35  1  0.10873508  0.76219284  0.25000000  1
  P  P36  1  0.23780716  0.89126492  0.75000000  1
  P  P37  1  0.76219284  0.10873508  0.25000000  1
  P  P38  1  0.18305308  0.33160668  0.86433932  1
  P  P39  1  0.81694692  0.66839332  0.36433932  1
  P  P40  1  0.33160668  0.18305308  0.63566068  1
  P  P41  1  0.66839332  0.81694692  0.13566068  1
  P  P42  1  0.81694692  0.66839332  0.13566068  1
  P  P43  1  0.18305308  0.33160668  0.63566068  1
  P  P44  1  0.66839332  0.81694692  0.36433932  1
  P  P45  1  0.33160668  0.18305308  0.86433932  1
  P  P46  1  0.01400929  0.31530527  0.92301106  1
  P  P47  1  0.98599071  0.68469473  0.42301106  1
  P  P48  1  0.31530527  0.01400929  0.57698894  1
  P  P49  1  0.68469473  0.98599071  0.07698894  1
  I  I50  1  0.39539976  0.39539976  0.25000000  1
  I  I51  1  0.60460024  0.60460024  0.75000000  1
