# generated using pymatgen
data_NaYO2
_symmetry_space_group_name_H-M   'P 1'
_cell_length_a   5.92212756
_cell_length_b   6.00557142
_cell_length_c   7.37824764
_cell_angle_alpha   104.63089009
_cell_angle_beta   104.15269349
_cell_angle_gamma   112.66019535
_symmetry_Int_Tables_number   1
_chemical_formula_structural   NaYO2
_chemical_formula_sum   'Na4 Y4 O8'
_cell_volume   216.45442817
_cell_formula_units_Z   4
loop_
 _symmetry_equiv_pos_site_id
 _symmetry_equiv_pos_as_xyz
  1  'x, y, z'
loop_
 _atom_site_type_symbol
 _atom_site_label
 _atom_site_symmetry_multiplicity
 _atom_site_fract_x
 _atom_site_fract_y
 _atom_site_fract_z
 _atom_site_occupancy
  Na  Na0  1  0.43058508  0.18109098  0.86117053  1
  Na  Na1  1  0.19346096  0.94387778  0.38871168  1
  Na  Na2  1  0.56941608  0.81890766  0.13882978  1
  Na  Na3  1  0.80654066  0.05612186  0.61128914  1
  Y  Y4  1  0.31744225  0.56745205  0.63451720  1
  Y  Y5  1  0.68255860  0.43254799  0.36548352  1
  Y  Y6  1  0.05679061  0.30684491  0.11375308  1
  Y  Y7  1  0.94320898  0.69315515  0.88624677  1
  O  O8  1  0.06257804  0.77193291  0.62682119  1
  O  O9  1  0.56420635  0.35482979  0.62673043  1
  O  O10  1  0.93742175  0.22806626  0.37317907  1
  O  O11  1  0.43579511  0.64517025  0.37327012  1
  O  O12  1  0.83103424  0.54170321  0.12373306  1
  O  O13  1  0.70749827  0.91798410  0.87621528  1
  O  O14  1  0.16896628  0.45829732  0.87626737  1
  O  O15  1  0.29249675  0.08201777  0.12378378  1
