# generated using pymatgen
data_SrBr2
_symmetry_space_group_name_H-M   'P 1'
_cell_length_a   7.19748453
_cell_length_b   11.66459546
_cell_length_c   11.66459546
_cell_angle_alpha   90.00000000
_cell_angle_beta   90.00000000
_cell_angle_gamma   90.00000000
_symmetry_Int_Tables_number   1
_chemical_formula_structural   SrBr2
_chemical_formula_sum   'Sr10 Br20'
_cell_volume   979.30980631
_cell_formula_units_Z   10
loop_
 _symmetry_equiv_pos_site_id
 _symmetry_equiv_pos_as_xyz
  1  'x, y, z'
loop_
 _atom_site_type_symbol
 _atom_site_label
 _atom_site_symmetry_multiplicity
 _atom_site_fract_x
 _atom_site_fract_y
 _atom_site_fract_z
 _atom_site_occupancy
  Sr  Sr0  1  0.25189588  0.08542783  0.60442506  1
  Sr  Sr1  1  0.25189588  0.60442506  0.41457217  1
  Sr  Sr2  1  0.25189588  0.89557494  0.08542783  1
  Sr  Sr3  1  0.25189588  0.41457217  0.89557494  1
  Sr  Sr4  1  0.34923150  0.25000000  0.25000000  1
  Sr  Sr5  1  0.65076850  0.75000000  0.75000000  1
  Sr  Sr6  1  0.74810412  0.10442506  0.91457217  1
  Sr  Sr7  1  0.74810412  0.39557494  0.58542783  1
  Sr  Sr8  1  0.74810412  0.58542783  0.10442506  1
  Sr  Sr9  1  0.74810412  0.91457217  0.39557494  1
  Br  Br10  1  0.00000000  0.25000000  0.75000000  1
  Br  Br11  1  0.00000000  0.75000000  0.25000000  1
  Br  Br12  1  0.12348263  0.04012332  0.34757126  1
  Br  Br13  1  0.12348263  0.15242874  0.04012332  1
  Br  Br14  1  0.12348263  0.34757126  0.45987668  1
  Br  Br15  1  0.12348263  0.45987668  0.15242874  1
  Br  Br16  1  0.40289731  0.54258421  0.66107360  1
  Br  Br17  1  0.40289731  0.66107360  0.95741579  1
  Br  Br18  1  0.40289731  0.83892640  0.54258421  1
  Br  Br19  1  0.40289731  0.95741579  0.83892640  1
  Br  Br20  1  0.50000000  0.25000000  0.75000000  1
  Br  Br21  1  0.50000000  0.75000000  0.25000000  1
  Br  Br22  1  0.59710269  0.04258421  0.16107360  1
  Br  Br23  1  0.59710269  0.16107360  0.45741679  1
  Br  Br24  1  0.59710269  0.33892640  0.04258421  1
  Br  Br25  1  0.59710269  0.45741679  0.33892640  1
  Br  Br26  1  0.87651737  0.54012332  0.84757126  1
  Br  Br27  1  0.87651737  0.65242874  0.54012332  1
  Br  Br28  1  0.87651737  0.84757126  0.95987668  1
  Br  Br29  1  0.87651737  0.95987668  0.65242874  1
