# generated using pymatgen
data_Na3FeO3
_symmetry_space_group_name_H-M   'P 1'
_cell_length_a   12.52721150
_cell_length_b   5.72269384
_cell_length_c   5.77801943
_cell_angle_alpha   65.16113507
_cell_angle_beta   90.00000000
_cell_angle_gamma   90.00000000
_symmetry_Int_Tables_number   1
_chemical_formula_structural   Na3FeO3
_chemical_formula_sum   'Na12 Fe4 O12'
_cell_volume   375.90411730
_cell_formula_units_Z   4
loop_
 _symmetry_equiv_pos_site_id
 _symmetry_equiv_pos_as_xyz
  1  'x, y, z'
loop_
 _atom_site_type_symbol
 _atom_site_label
 _atom_site_symmetry_multiplicity
 _atom_site_fract_x
 _atom_site_fract_y
 _atom_site_fract_z
 _atom_site_occupancy
  Na  Na0  1  0.22184441  0.85728763  0.69614055  1
  Na  Na1  1  0.72184441  0.64271237  0.80385945  1
  Na  Na2  1  0.77815559  0.14271237  0.30385945  1
  Na  Na3  1  0.27815559  0.35728763  0.19614055  1
  Na  Na4  1  0.98478105  0.74207659  0.71904259  1
  Na  Na5  1  0.48478105  0.75792341  0.78095741  1
  Na  Na6  1  0.40317164  0.29095844  0.64067283  1
  Na  Na7  1  0.90317164  0.20904156  0.85932717  1
  Na  Na8  1  0.59682836  0.70904156  0.35932717  1
  Na  Na9  1  0.09682836  0.79095844  0.14067283  1
  Na  Na10  1  0.01521895  0.25792341  0.28095741  1
  Na  Na11  1  0.51521895  0.24207659  0.21904259  1
  Fe  Fe12  1  0.16354057  0.32411710  0.75788631  1
  Fe  Fe13  1  0.66354057  0.17588290  0.74211369  1
  Fe  Fe14  1  0.83645943  0.67588290  0.24211369  1
  Fe  Fe15  1  0.33645943  0.82411710  0.25788631  1
  O  O16  1  0.22819675  0.57573066  0.45244871  1
  O  O17  1  0.72819675  0.92426934  0.04755129  1
  O  O18  1  0.77180325  0.42426934  0.54755129  1
  O  O19  1  0.27180325  0.07573066  0.95244871  1
  O  O20  1  0.87318704  0.50312671  0.04613740  1
  O  O21  1  0.37318704  0.99687329  0.45386260  1
  O  O22  1  0.06166538  0.11982176  0.69950819  1
  O  O23  1  0.56166538  0.38017824  0.80049181  1
  O  O24  1  0.93833462  0.88017824  0.30049181  1
  O  O25  1  0.43833462  0.61982176  0.19950819  1
  O  O26  1  0.12681296  0.49687329  0.95386260  1
  O  O27  1  0.62681296  0.00312671  0.54613740  1
