# generated using pymatgen
data_K3VS4
_symmetry_space_group_name_H-M   'P 1'
_cell_length_a   9.15110591
_cell_length_b   9.20845207
_cell_length_c   10.58299046
_cell_angle_alpha   90.00000000
_cell_angle_beta   90.00000000
_cell_angle_gamma   90.00000000
_symmetry_Int_Tables_number   1
_chemical_formula_structural   K3VS4
_chemical_formula_sum   'K12 V4 S16'
_cell_volume   891.80236194
_cell_formula_units_Z   4
loop_
 _symmetry_equiv_pos_site_id
 _symmetry_equiv_pos_as_xyz
  1  'x, y, z'
loop_
 _atom_site_type_symbol
 _atom_site_label
 _atom_site_symmetry_multiplicity
 _atom_site_fract_x
 _atom_site_fract_y
 _atom_site_fract_z
 _atom_site_occupancy
  K  K0  1  0.05330736  0.20792552  0.04471746  1
  K  K1  1  0.13782100  0.41700145  0.75000000  1
  K  K2  1  0.36217900  0.91700145  0.25000000  1
  K  K3  1  0.63782100  0.08299855  0.75000000  1
  K  K4  1  0.86217900  0.58299855  0.25000000  1
  K  K5  1  0.94669264  0.79207448  0.54471746  1
  K  K6  1  0.55330736  0.29207448  0.45528254  1
  K  K7  1  0.44669264  0.70792552  0.95528254  1
  K  K8  1  0.55330736  0.29207448  0.04471746  1
  K  K9  1  0.05330736  0.20792552  0.45528254  1
  K  K10  1  0.44669264  0.70792552  0.54471746  1
  K  K11  1  0.94669264  0.79207448  0.95528254  1
  V  V12  1  0.78350524  0.01449529  0.25000000  1
  V  V13  1  0.71649476  0.51449529  0.75000000  1
  V  V14  1  0.28350524  0.48550471  0.25000000  1
  V  V15  1  0.21649476  0.98550471  0.75000000  1
  S  S16  1  0.33113179  0.05104693  0.91759186  1
  S  S17  1  0.19710001  0.75265620  0.75000000  1
  S  S18  1  0.30289999  0.25265620  0.25000000  1
  S  S19  1  0.69710001  0.74734380  0.75000000  1
  S  S20  1  0.80289999  0.24734380  0.25000000  1
  S  S21  1  0.00027628  0.07953014  0.75000000  1
  S  S22  1  0.49972372  0.57953014  0.25000000  1
  S  S23  1  0.50027628  0.42046986  0.75000000  1
  S  S24  1  -0.00027628  0.92046986  0.25000000  1
  S  S25  1  0.66886821  0.94895307  0.41759186  1
  S  S26  1  0.83113179  0.44895307  0.58240814  1
  S  S27  1  0.16886821  0.55104693  0.08240814  1
  S  S28  1  0.66886821  0.94895307  0.08240814  1
  S  S29  1  0.33113179  0.05104693  0.58240814  1
  S  S30  1  0.16886821  0.55104693  0.41759186  1
  S  S31  1  0.83113179  0.44895307  0.91759186  1
