# generated using pymatgen
data_Sr(NdS2)2
_symmetry_space_group_name_H-M   'P 1'
_cell_length_a   7.52916891
_cell_length_b   7.52916853
_cell_length_c   7.52916908
_cell_angle_alpha   109.41382435
_cell_angle_beta   109.58606596
_cell_angle_gamma   109.41382899
_symmetry_Int_Tables_number   1
_chemical_formula_structural   Sr(NdS2)2
_chemical_formula_sum   'Sr2 Nd4 S8'
_cell_volume   328.56245010
_cell_formula_units_Z   2
loop_
 _symmetry_equiv_pos_site_id
 _symmetry_equiv_pos_as_xyz
  1  'x, y, z'
loop_
 _atom_site_type_symbol
 _atom_site_label
 _atom_site_symmetry_multiplicity
 _atom_site_fract_x
 _atom_site_fract_y
 _atom_site_fract_z
 _atom_site_occupancy
  Sr  Sr0  1  0.12500000  0.75000000  0.87500000  1
  Sr  Sr1  1  0.37500000  0.25000000  0.62500000  1
  Nd  Nd2  1  0.25000000  0.62747031  0.37747031  1
  Nd  Nd3  1  0.62252969  0.37252969  0.25000000  1
  Nd  Nd4  1  0.75000000  0.87252969  0.12252969  1
  Nd  Nd5  1  0.87747031  0.12747031  0.75000000  1
  S  S6  1  0.98966913  0.84858567  0.49090689  1
  S  S7  1  0.51033087  0.00123675  0.85891553  1
  S  S8  1  0.14108447  0.15141433  0.14232122  1
  S  S9  1  0.35891553  0.50123675  0.01033087  1
  S  S10  1  0.64232122  0.65141433  0.64108447  1
  S  S11  1  0.50909311  0.99876325  0.35767878  1
  S  S12  1  0.85767878  0.49876325  0.00909311  1
  S  S13  1  0.99090689  0.34858567  0.48966913  1
