# generated using pymatgen
data_Na10Zn4O9
_symmetry_space_group_name_H-M   'P 1'
_cell_length_a   8.58663817
_cell_length_b   8.58663817
_cell_length_c   8.55966596
_cell_angle_alpha   77.66551208
_cell_angle_beta   77.66551208
_cell_angle_gamma   77.15091871
_symmetry_Int_Tables_number   1
_chemical_formula_structural   Na10Zn4O9
_chemical_formula_sum   'Na20 Zn8 O18'
_cell_volume   591.88832390
_cell_formula_units_Z   2
loop_
 _symmetry_equiv_pos_site_id
 _symmetry_equiv_pos_as_xyz
  1  'x, y, z'
loop_
 _atom_site_type_symbol
 _atom_site_label
 _atom_site_symmetry_multiplicity
 _atom_site_fract_x
 _atom_site_fract_y
 _atom_site_fract_z
 _atom_site_occupancy
  Na  Na0  1  0.99918640  0.00081360  0.00000000  1
  Na  Na1  1  0.94761577  0.64200341  0.63099010  1
  Na  Na2  1  0.92265406  0.32691836  0.70739057  1
  Na  Na3  1  0.80364727  0.74828808  0.36190141  1
  Na  Na4  1  0.69762492  0.30237508  0.00000000  1
  Na  Na5  1  0.61026306  0.94135830  0.62509905  1
  Na  Na6  1  0.61666217  0.63012335  0.93842856  1
  Na  Na7  1  0.77291215  0.22708785  0.50000000  1
  Na  Na8  1  0.76905098  0.48507985  0.22370640  1
  Na  Na9  1  0.67308164  0.07734594  0.29260943  1
  Na  Na10  1  0.51492015  0.23094902  0.77629360  1
  Na  Na11  1  0.50840490  0.77623261  0.22406630  1
  Na  Na12  1  0.34888926  0.77676246  0.78900036  1
  Na  Na13  1  0.22376739  0.49159510  0.77593370  1
  Na  Na14  1  0.23584571  0.76415429  0.50000000  1
  Na  Na15  1  0.36987665  0.38333783  0.06157144  1
  Na  Na16  1  0.35799659  0.05238423  0.36900990  1
  Na  Na17  1  0.22323754  0.65111074  0.21099964  1
  Na  Na18  1  0.25171192  0.19635273  0.63809859  1
  Na  Na19  1  0.05864170  0.38973694  0.37490095  1
  Zn  Zn20  1  0.96357944  0.97365820  0.66937195  1
  Zn  Zn21  1  0.96328016  0.66587931  0.96998273  1
  Zn  Zn22  1  0.67162946  0.96998921  0.96704634  1
  Zn  Zn23  1  0.58968756  0.57643534  0.59484961  1
  Zn  Zn24  1  0.42356466  0.41031244  0.40515039  1
  Zn  Zn25  1  0.33412069  0.03671984  0.03001727  1
  Zn  Zn26  1  0.03001079  0.32837054  0.03295366  1
  Zn  Zn27  1  0.02634180  0.03642056  0.33062805  1
  O  O28  1  0.88085940  0.49340949  0.89468489  1
  O  O29  1  0.87252249  0.91174253  0.49504283  1
  O  O30  1  0.80153017  0.48964912  0.49255817  1
  O  O31  1  0.88680639  0.20149927  0.19496259  1
  O  O32  1  0.79850073  0.11319361  0.80503741  1
  O  O33  1  0.79218393  0.79553104  0.10326437  1
  O  O34  1  0.50062237  0.89753551  0.89100654  1
  O  O35  1  0.50048617  0.79468297  0.49411224  1
  O  O36  1  0.48422226  0.49735796  0.80549418  1
  O  O37  1  0.50264204  0.51577774  0.19450582  1
  O  O38  1  0.51035088  0.19846983  0.50744183  1
  O  O39  1  0.50659051  0.11914060  0.10531511  1
  O  O40  1  0.20446896  0.20781607  0.89673563  1
  O  O41  1  0.22167134  0.90950342  0.22368036  1
  O  O42  1  0.09049658  0.77832866  0.77631964  1
  O  O43  1  0.20531703  0.49951383  0.50588776  1
  O  O44  1  0.08825747  0.12747751  0.50495717  1
  O  O45  1  0.10246449  0.49937763  0.10899346  1
