# generated using pymatgen
data_SrHfO3
_symmetry_space_group_name_H-M   'P 1'
_cell_length_a   5.76053461
_cell_length_b   5.77701466
_cell_length_c   8.14070902
_cell_angle_alpha   90.00000000
_cell_angle_beta   90.00000000
_cell_angle_gamma   90.00000000
_symmetry_Int_Tables_number   1
_chemical_formula_structural   SrHfO3
_chemical_formula_sum   'Sr4 Hf4 O12'
_cell_volume   270.91215539
_cell_formula_units_Z   4
loop_
 _symmetry_equiv_pos_site_id
 _symmetry_equiv_pos_as_xyz
  1  'x, y, z'
loop_
 _atom_site_type_symbol
 _atom_site_label
 _atom_site_symmetry_multiplicity
 _atom_site_fract_x
 _atom_site_fract_y
 _atom_site_fract_z
 _atom_site_occupancy
  Sr  Sr0  1  0.00521874  0.52440264  0.25000000  1
  Sr  Sr1  1  0.50521874  0.97559736  0.75000000  1
  Sr  Sr2  1  0.49478121  0.02440553  0.25000000  1
  Sr  Sr3  1  0.99478121  0.47559447  0.75000000  1
  Hf  Hf4  1  -0.00000281  0.00000235  -0.00000077  1
  Hf  Hf5  1  0.49999719  0.49999765  0.00000077  1
  Hf  Hf6  1  0.49999719  0.49999765  0.50000023  1
  Hf  Hf7  1  -0.00000281  0.00000235  0.49999977  1
  O  O8  1  0.21930897  0.28070832  0.46523602  1
  O  O9  1  0.71930897  0.21929168  0.53476398  1
  O  O10  1  0.28069315  0.78070578  0.03476432  1
  O  O11  1  0.78069315  0.71929422  0.96523568  1
  O  O12  1  0.78069315  0.71929422  0.53476432  1
  O  O13  1  0.28069315  0.78070578  0.46523568  1
  O  O14  1  0.71930897  0.21929168  0.96523602  1
  O  O15  1  0.21930897  0.28070832  0.03476398  1
  O  O16  1  0.93365913  0.98661259  0.25000000  1
  O  O17  1  0.43365913  0.51338741  0.75000000  1
  O  O18  1  0.56633931  0.48661432  0.25000000  1
  O  O19  1  0.06633931  0.01338568  0.75000000  1
