# generated using pymatgen
data_B17F27
_symmetry_space_group_name_H-M   'P 1'
_cell_length_a   7.12769795
_cell_length_b   12.91190387
_cell_length_c   13.09554206
_cell_angle_alpha   69.35548027
_cell_angle_beta   79.62850452
_cell_angle_gamma   80.81068244
_symmetry_Int_Tables_number   1
_chemical_formula_structural   B17F27
_chemical_formula_sum   'B34 F54'
_cell_volume   1103.31391650
_cell_formula_units_Z   2
loop_
 _symmetry_equiv_pos_site_id
 _symmetry_equiv_pos_as_xyz
  1  'x, y, z'
loop_
 _atom_site_type_symbol
 _atom_site_label
 _atom_site_symmetry_multiplicity
 _atom_site_fract_x
 _atom_site_fract_y
 _atom_site_fract_z
 _atom_site_occupancy
  B  B0  1  0.81935883  0.62225254  0.97888297  1
  B  B1  1  0.18064117  0.37774746  0.02111703  1
  B  B2  1  0.77475909  0.71882918  0.84437826  1
  B  B3  1  0.22524091  0.28117082  0.15562174  1
  B  B4  1  0.89643377  0.84015051  0.80323688  1
  B  B5  1  0.10356623  0.15984949  0.19676312  1
  B  B6  1  0.72300431  0.79311188  0.92720011  1
  B  B7  1  0.27699569  0.20688812  0.07279989  1
  B  B8  1  0.96440105  0.68733991  0.75515798  1
  B  B9  1  0.03559895  0.31266009  0.24484202  1
  B  B10  1  0.57189116  0.69617613  0.80646171  1
  B  B11  1  0.42810884  0.30382387  0.19353829  1
  B  B12  1  0.83968309  0.87450490  0.97031866  1
  B  B13  1  0.16031691  0.12549510  0.02968134  1
  B  B14  1  0.48794195  0.80098049  0.98200682  1
  B  B15  1  0.51205805  0.19901951  0.01799318  1
  B  B16  1  0.74249061  0.41448494  0.75863506  1
  B  B17  1  0.25750939  0.58551506  0.24136494  1
  B  B18  1  0.90499309  0.66575866  0.49139436  1
  B  B19  1  0.09500691  0.33424134  0.50860564  1
  B  B20  1  0.79146791  0.88366697  0.47418623  1
  B  B21  1  0.20853209  0.11633303  0.52581377  1
  B  B22  1  0.72313066  0.65093066  0.30119492  1
  B  B23  1  0.27686934  0.34906934  0.69880508  1
  B  B24  1  0.48447842  0.83981996  0.24589618  1
  B  B25  1  0.51552158  0.16018004  0.75410382  1
  B  B26  1  0.75901648  0.77943738  0.42764043  1
  B  B27  1  0.24098352  0.22056262  0.57235957  1
  B  B28  1  0.71397793  0.89837597  0.30270778  1
  B  B29  1  0.28602207  0.10162403  0.69729222  1
  B  B30  1  0.63535562  0.76430280  0.34051918  1
  B  B31  1  0.36464438  0.23569720  0.65948082  1
  B  B32  1  0.47810029  0.72915845  0.47067059  1
  B  B33  1  0.52189971  0.27084155  0.52932941  1
  F  F34  1  0.80171788  0.98370593  0.93647324  1
  F  F35  1  0.19828212  0.01629407  0.06352676  1
  F  F36  1  0.41256032  0.72699921  0.07407254  1
  F  F37  1  0.58743968  0.27300079  0.92592746  1
  F  F38  1  0.37133106  0.88596723  0.92998705  1
  F  F39  1  0.62866894  0.11403277  0.07001295  1
  F  F40  1  0.04174825  0.17366415  0.95597891  1
  F  F41  1  0.95825175  0.82633585  0.04402109  1
  F  F42  1  0.44369695  0.29291556  0.29655133  1
  F  F43  1  0.55630305  0.70708444  0.70344867  1
  F  F44  1  0.58394938  0.32900731  0.12066504  1
  F  F45  1  0.41605062  0.67099269  0.87933496  1
  F  F46  1  0.03022043  0.26281672  0.35378334  1
  F  F47  1  0.96977957  0.73718328  0.64621666  1
  F  F48  1  0.90336913  0.39631330  0.21174105  1
  F  F49  1  0.09663087  0.60368670  0.78825895  1
  F  F50  1  0.17615497  0.06964605  0.27187175  1
  F  F51  1  0.82384503  0.93035395  0.72812825  1
  F  F52  1  0.91465322  0.16664846  0.18930613  1
  F  F53  1  0.08534678  0.83335154  0.81069387  1
  F  F54  1  0.30812785  0.44768789  0.96719640  1
  F  F55  1  0.69187215  0.55231211  0.03280360  1
  F  F56  1  0.64457726  0.19473471  0.50123078  1
  F  F57  1  0.35542274  0.80526529  0.49876922  1
  F  F58  1  0.53768066  0.37661181  0.47443538  1
  F  F59  1  0.46231934  0.62338819  0.52556462  1
  F  F60  1  0.40883125  0.01307082  0.68766619  1
  F  F61  1  0.59116875  0.98692918  0.31233381  1
  F  F62  1  0.12947778  0.07958786  0.77111147  1
  F  F63  1  0.87052222  0.92041214  0.22888853  1
  F  F64  1  0.70288646  0.15645479  0.72606580  1
  F  F65  1  0.29711354  0.84354521  0.27393420  1
  F  F66  1  0.45227622  0.11878113  0.86170515  1
  F  F67  1  0.54772378  0.88121887  0.13829485  1
  F  F68  1  0.21919763  0.44572920  0.62681162  1
  F  F69  1  0.78080237  0.55427080  0.37318838  1
  F  F70  1  0.25800687  0.34441013  0.80330829  1
  F  F71  1  0.74199313  0.65558987  0.19669171  1
  F  F72  1  0.34121775  0.08852329  0.45319868  1
  F  F73  1  0.65878225  0.91147671  0.54680132  1
  F  F74  1  0.04618727  0.07048557  0.55496668  1
  F  F75  1  0.95381273  0.92951443  0.44503332  1
  F  F76  1  0.15491368  0.41887653  0.42156399  1
  F  F77  1  0.84508632  0.58112347  0.57843601  1
  F  F78  1  0.90954125  0.34032557  0.54577078  1
  F  F79  1  0.09045875  0.65967443  0.45422922  1
  F  F80  1  0.01088246  0.39379717  0.98816225  1
  F  F81  1  0.98911754  0.60620283  0.01183775  1
  F  F82  1  0.27172589  0.51327601  0.18880441  1
  F  F83  1  0.72827411  0.48672399  0.81119559  1
  F  F84  1  0.10385531  0.65731264  0.24002294  1
  F  F85  1  0.89614469  0.34268736  0.75997706  1
  F  F86  1  0.39599184  0.58468091  0.29644299  1
  F  F87  1  0.60400816  0.41531909  0.70355701  1
