# generated using pymatgen
data_Zr(Se2Cl3)2
_symmetry_space_group_name_H-M   'P 1'
_cell_length_a   10.96113226
_cell_length_b   11.03469702
_cell_length_c   10.68230651
_cell_angle_alpha   90.00000000
_cell_angle_beta   90.00000000
_cell_angle_gamma   90.00000000
_symmetry_Int_Tables_number   1
_chemical_formula_structural   Zr(Se2Cl3)2
_chemical_formula_sum   'Zr4 Se16 Cl24'
_cell_volume   1292.05459960
_cell_formula_units_Z   4
loop_
 _symmetry_equiv_pos_site_id
 _symmetry_equiv_pos_as_xyz
  1  'x, y, z'
loop_
 _atom_site_type_symbol
 _atom_site_label
 _atom_site_symmetry_multiplicity
 _atom_site_fract_x
 _atom_site_fract_y
 _atom_site_fract_z
 _atom_site_occupancy
  Zr  Zr0  1  0.50000000  -0.00000000  0.50000000  1
  Zr  Zr1  1  -0.00000000  0.50000000  0.50000000  1
  Zr  Zr2  1  -0.00000000  -0.00000000  0.00000000  1
  Zr  Zr3  1  0.50000000  0.50000000  0.00000000  1
  Se  Se4  1  0.10897757  0.89998626  0.50519459  1
  Se  Se5  1  0.39102243  0.60001374  0.50519459  1
  Se  Se6  1  0.60897757  0.10001374  0.99480541  1
  Se  Se7  1  0.89102243  0.39998626  0.99480541  1
  Se  Se8  1  0.89102243  0.10001374  0.49480541  1
  Se  Se9  1  0.60897757  0.39998626  0.49480541  1
  Se  Se10  1  0.39102243  0.89998626  0.00519459  1
  Se  Se11  1  0.10897757  0.60001374  0.00519459  1
  Se  Se12  1  0.91513748  0.90510615  0.41991951  1
  Se  Se13  1  0.58486252  0.59489385  0.41991951  1
  Se  Se14  1  0.41513748  0.09489385  0.08008049  1
  Se  Se15  1  0.08486252  0.40510615  0.08008049  1
  Se  Se16  1  0.08486252  0.09489385  0.58008049  1
  Se  Se17  1  0.41513748  0.40510615  0.58008049  1
  Se  Se18  1  0.58486252  0.90510615  0.91991951  1
  Se  Se19  1  0.91513748  0.59489385  0.91991951  1
  Cl  Cl20  1  0.66806742  0.04087504  0.34776006  1
  Cl  Cl21  1  0.83193258  0.45912496  0.34776006  1
  Cl  Cl22  1  0.16806742  0.95912496  0.15223994  1
  Cl  Cl23  1  0.33193258  0.54087504  0.15223994  1
  Cl  Cl24  1  0.33193258  0.95912496  0.65223994  1
  Cl  Cl25  1  0.16806742  0.54087504  0.65223994  1
  Cl  Cl26  1  0.83193258  0.04087504  0.84776006  1
  Cl  Cl27  1  0.66806742  0.45912496  0.84776006  1
  Cl  Cl28  1  0.42708532  0.83118329  0.36286138  1
  Cl  Cl29  1  0.07291468  0.66881671  0.36286138  1
  Cl  Cl30  1  0.92708532  0.16881671  0.13713862  1
  Cl  Cl31  1  0.57291468  0.33118329  0.13713862  1
  Cl  Cl32  1  0.57291468  0.16881671  0.63713862  1
  Cl  Cl33  1  0.92708532  0.33118329  0.63713862  1
  Cl  Cl34  1  0.07291468  0.83118329  0.86286138  1
  Cl  Cl35  1  0.42708532  0.66881671  0.86286138  1
  Cl  Cl36  1  0.63124316  0.85975554  0.61369561  1
  Cl  Cl37  1  0.86875684  0.64024446  0.61369561  1
  Cl  Cl38  1  0.13124316  0.14024446  0.88630439  1
  Cl  Cl39  1  0.36875684  0.35975554  0.88630439  1
  Cl  Cl40  1  0.63124316  0.64024446  0.11369561  1
  Cl  Cl41  1  0.86875684  0.85975554  0.11369561  1
  Cl  Cl42  1  0.13124316  0.35975554  0.38630439  1
  Cl  Cl43  1  0.36875684  0.14024446  0.38630439  1
