# generated using pymatgen
data_P2PbO6
_symmetry_space_group_name_H-M   'P 1'
_cell_length_a   8.00542535
_cell_length_b   7.29905854
_cell_length_c   17.39992285
_cell_angle_alpha   88.75138664
_cell_angle_beta   90.00002639
_cell_angle_gamma   90.00008729
_symmetry_Int_Tables_number   1
_chemical_formula_structural   P2PbO6
_chemical_formula_sum   'P16 Pb8 O48'
_cell_volume   1016.47206561
_cell_formula_units_Z   8
loop_
 _symmetry_equiv_pos_site_id
 _symmetry_equiv_pos_as_xyz
  1  'x, y, z'
loop_
 _atom_site_type_symbol
 _atom_site_label
 _atom_site_symmetry_multiplicity
 _atom_site_fract_x
 _atom_site_fract_y
 _atom_site_fract_z
 _atom_site_occupancy
  P  P0  1  0.78411779  0.75080319  0.58930844  1
  P  P1  1  0.28411835  0.24919557  0.91069145  1
  P  P2  1  0.21588157  0.24919711  0.41069213  1
  P  P3  1  0.71588330  0.75080330  0.08930853  1
  P  P4  1  0.80335369  0.36247661  0.54073367  1
  P  P5  1  0.30335516  0.63752063  0.95926627  1
  P  P6  1  0.19664697  0.63752477  0.45926784  1
  P  P7  1  0.69664626  0.36247741  0.04073152  1
  P  P8  1  0.51733123  0.26401653  0.64176325  1
  P  P9  1  0.01733035  0.73598412  0.85823611  1
  P  P10  1  0.48266826  0.73598428  0.35823650  1
  P  P11  1  0.98266973  0.26401627  0.14176292  1
  P  P12  1  0.98461233  0.87003640  0.19233791  1
  P  P13  1  0.48461254  0.12996686  0.30766283  1
  P  P14  1  0.01538668  0.12996482  0.80766261  1
  P  P15  1  0.51538790  0.87003402  0.69233774  1
  Pb  Pb16  1  0.14771120  0.51980249  0.67568583  1
  Pb  Pb17  1  0.64771110  0.48019255  0.82431419  1
  Pb  Pb18  1  0.85228859  0.48019791  0.32431407  1
  Pb  Pb19  1  0.35228874  0.51980504  0.17568548  1
  Pb  Pb20  1  0.12024052  0.02516743  0.60336517  1
  Pb  Pb21  1  0.62023923  0.97482648  0.89663921  1
  Pb  Pb22  1  0.87975935  0.97483151  0.39663678  1
  Pb  Pb23  1  0.37976190  0.02516837  0.10336391  1
  O  O24  1  0.59530567  0.79692124  0.76371270  1
  O  O25  1  0.09530632  0.20307724  0.73628778  1
  O  O26  1  0.40469318  0.20308060  0.23628667  1
  O  O27  1  0.90469410  0.79692292  0.26371245  1
  O  O28  1  0.33200208  0.84787306  0.68256034  1
  O  O29  1  0.83200168  0.15212638  0.81743868  1
  O  O30  1  0.66799694  0.15212718  0.31743909  1
  O  O31  1  0.16799989  0.84787278  0.18256156  1
  O  O32  1  0.93115963  0.08137729  0.18735692  1
  O  O33  1  0.43115730  0.91862451  0.31264240  1
  O  O34  1  0.06884168  0.91862380  0.81264303  1
  O  O35  1  0.56884086  0.08137615  0.68735639  1
  O  O36  1  0.59888403  0.79000274  0.61723733  1
  O  O37  1  0.09888391  0.20999740  0.88276285  1
  O  O38  1  0.40111497  0.20999820  0.38276226  1
  O  O39  1  0.90111642  0.79000275  0.11723783  1
  O  O40  1  0.15694561  0.24972639  0.11203822  1
  O  O41  1  0.65694566  0.75027317  0.38796006  1
  O  O42  1  0.39733645  0.28478297  0.84382598  1
  O  O43  1  0.34305440  0.24972739  0.61203902  1
  O  O44  1  0.94302683  0.42256525  0.19051488  1
  O  O45  1  0.44302561  0.57743544  0.30948433  1
  O  O46  1  0.05697313  0.57743570  0.80948433  1
  O  O47  1  0.55697317  0.42256423  0.69051501  1
  O  O48  1  0.86245286  0.26080377  0.06883542  1
  O  O49  1  0.36245354  0.73919701  0.43116452  1
  O  O50  1  0.13754746  0.73919517  0.93116464  1
  O  O51  1  0.63754798  0.26080353  0.56883516  1
  O  O52  1  0.89733750  0.71521685  0.65617345  1
  O  O53  1  0.66605131  0.90302990  0.03527427  1
  O  O54  1  0.10266186  0.28478404  0.34382613  1
  O  O55  1  0.60266242  0.71521730  0.15617432  1
  O  O56  1  0.67152038  0.31107595  0.95951237  1
  O  O57  1  0.17152103  0.68892561  0.54048736  1
  O  O58  1  0.32848050  0.68892608  0.04048945  1
  O  O59  1  0.82847847  0.31107541  0.45951137  1
  O  O60  1  0.55709488  0.32899999  0.09654854  1
  O  O61  1  0.05709564  0.67100112  0.40345085  1
  O  O62  1  0.44290348  0.67099872  0.90345216  1
  O  O63  1  0.94290423  0.32900043  0.59654834  1
  O  O64  1  0.74848885  0.57283208  0.04098043  1
  O  O65  1  0.24848964  0.42716883  0.45901946  1
  O  O66  1  0.25151118  0.42716671  0.95902032  1
  O  O67  1  0.75151013  0.57283196  0.54098019  1
  O  O68  1  0.83394929  0.90303098  0.53527326  1
  O  O69  1  0.33394895  0.09696816  0.96472628  1
  O  O70  1  0.16605031  0.09697076  0.46472633  1
  O  O71  1  0.84305487  0.75027121  0.88796088  1
