# generated using pymatgen
data_K3AsS4
_symmetry_space_group_name_H-M   'P 1'
_cell_length_a   9.13702589
_cell_length_b   9.37103009
_cell_length_c   10.62384796
_cell_angle_alpha   90.00000000
_cell_angle_beta   90.00000000
_cell_angle_gamma   90.00000000
_symmetry_Int_Tables_number   1
_chemical_formula_structural   K3AsS4
_chemical_formula_sum   'K12 As4 S16'
_cell_volume   909.64939431
_cell_formula_units_Z   4
loop_
 _symmetry_equiv_pos_site_id
 _symmetry_equiv_pos_as_xyz
  1  'x, y, z'
loop_
 _atom_site_type_symbol
 _atom_site_label
 _atom_site_symmetry_multiplicity
 _atom_site_fract_x
 _atom_site_fract_y
 _atom_site_fract_z
 _atom_site_occupancy
  K  K0  1  0.94144042  0.70018540  0.00748553  1
  K  K1  1  0.05855958  0.29981460  0.50748553  1
  K  K2  1  0.55855958  0.20018540  0.50748553  1
  K  K3  1  0.44144042  0.79981460  0.00748553  1
  K  K4  1  0.94063476  0.70194689  0.41889762  1
  K  K5  1  0.05936524  0.29805311  0.91889762  1
  K  K6  1  0.55936524  0.20194689  0.91889762  1
  K  K7  1  0.44063476  0.79805311  0.41889762  1
  K  K8  1  0.63964622  0.42080922  0.21460919  1
  K  K9  1  0.36035378  0.57919078  0.71460919  1
  K  K10  1  0.86035378  0.92080922  0.71460919  1
  K  K11  1  0.13964622  0.07919078  0.21460919  1
  As  As12  1  0.72117905  0.98006587  0.21289188  1
  As  As13  1  0.27882095  0.01993413  0.71289188  1
  As  As14  1  0.77882095  0.48006587  0.71289188  1
  As  As15  1  0.22117905  0.51993413  0.21289188  1
  S  S16  1  0.68711096  0.75069039  0.21308173  1
  S  S17  1  0.31288904  0.24930961  0.71308173  1
  S  S18  1  0.81288904  0.25069039  0.71308173  1
  S  S19  1  0.18711096  0.74930961  0.21308173  1
  S  S20  1  0.84087829  0.03627735  0.04414468  1
  S  S21  1  0.15912171  0.96372265  0.54414468  1
  S  S22  1  0.65912171  0.53627735  0.54414468  1
  S  S23  1  0.34087829  0.46372265  0.04414468  1
  S  S24  1  0.50939108  0.08784360  0.21243923  1
  S  S25  1  0.49060892  0.91215640  0.71243923  1
  S  S26  1  0.99060892  0.58784360  0.71243923  1
  S  S27  1  0.00939108  0.41215640  0.21243923  1
  S  S28  1  0.84015987  0.03712276  0.38185015  1
  S  S29  1  0.15984013  0.96287724  0.88185015  1
  S  S30  1  0.65984013  0.53712276  0.88185015  1
  S  S31  1  0.34015987  0.46287724  0.38185015  1
