# generated using pymatgen
data_Zn2PtO4
_symmetry_space_group_name_H-M   'P 1'
_cell_length_a   6.08046959
_cell_length_b   6.14266826
_cell_length_c   6.08046765
_cell_angle_alpha   59.66104123
_cell_angle_beta   57.89870857
_cell_angle_gamma   59.66103952
_symmetry_Int_Tables_number   1
_chemical_formula_structural   Zn2PtO4
_chemical_formula_sum   'Zn4 Pt2 O8'
_cell_volume   157.09629633
_cell_formula_units_Z   2
loop_
 _symmetry_equiv_pos_site_id
 _symmetry_equiv_pos_as_xyz
  1  'x, y, z'
loop_
 _atom_site_type_symbol
 _atom_site_label
 _atom_site_symmetry_multiplicity
 _atom_site_fract_x
 _atom_site_fract_y
 _atom_site_fract_z
 _atom_site_occupancy
  Zn  Zn0  1  0.97613168  0.02386832  0.97613168  1
  Zn  Zn1  1  0.27386832  0.22613168  0.27386832  1
  Zn  Zn2  1  0.12500000  0.62500000  0.62500000  1
  Zn  Zn3  1  0.62500000  0.62500000  0.12500000  1
  Pt  Pt4  1  0.62500000  0.12500000  0.62500000  1
  Pt  Pt5  1  0.62500000  0.62500000  0.62500000  1
  O  O6  1  0.39188274  0.37645679  0.39188274  1
  O  O7  1  0.39188274  0.83977873  0.39188274  1
  O  O8  1  0.39824091  0.37386571  0.85402666  1
  O  O9  1  0.85402666  0.37386571  0.39824091  1
  O  O10  1  0.39597334  0.87613429  0.85175909  1
  O  O11  1  0.85811726  0.41022127  0.85811726  1
  O  O12  1  0.85175909  0.87613429  0.39597334  1
  O  O13  1  0.85811726  0.87354321  0.85811726  1
