# generated using pymatgen
data_SbPO4
_symmetry_space_group_name_H-M   'P 1'
_cell_length_a   4.77058131
_cell_length_b   5.12659650
_cell_length_c   6.75728939
_cell_angle_alpha   90.00000000
_cell_angle_beta   90.00000000
_cell_angle_gamma   95.22686048
_symmetry_Int_Tables_number   1
_chemical_formula_structural   SbPO4
_chemical_formula_sum   'Sb2 P2 O8'
_cell_volume   164.57479013
_cell_formula_units_Z   2
loop_
 _symmetry_equiv_pos_site_id
 _symmetry_equiv_pos_as_xyz
  1  'x, y, z'
loop_
 _atom_site_type_symbol
 _atom_site_label
 _atom_site_symmetry_multiplicity
 _atom_site_fract_x
 _atom_site_fract_y
 _atom_site_fract_z
 _atom_site_occupancy
  Sb  Sb0  1  0.79675467  0.82189278  0.75000000  1
  Sb  Sb1  1  0.20324533  0.17810722  0.25000000  1
  P  P2  1  0.27495493  0.39220184  0.75000000  1
  P  P3  1  0.72504507  0.60779816  0.25000000  1
  O  O4  1  0.82349791  0.76758504  0.43049418  1
  O  O5  1  0.17650209  0.23241496  0.93049418  1
  O  O6  1  0.17650209  0.23241496  0.56950582  1
  O  O7  1  0.82349791  0.76758504  0.06950582  1
  O  O8  1  0.83196830  0.33017367  0.25000000  1
  O  O9  1  0.16803170  0.66982633  0.75000000  1
  O  O10  1  0.40059306  0.54940868  0.25000000  1
  O  O11  1  0.59940694  0.45059132  0.75000000  1
