# generated using pymatgen
data_SrAl2O4
_symmetry_space_group_name_H-M   'P 1'
_cell_length_a   8.81561304
_cell_length_b   5.16206111
_cell_length_c   8.45348419
_cell_angle_alpha   86.58368027
_cell_angle_beta   90.00000000
_cell_angle_gamma   90.00000000
_symmetry_Int_Tables_number   1
_chemical_formula_structural   SrAl2O4
_chemical_formula_sum   'Sr4 Al8 O16'
_cell_volume   384.00681468
_cell_formula_units_Z   4
loop_
 _symmetry_equiv_pos_site_id
 _symmetry_equiv_pos_as_xyz
  1  'x, y, z'
loop_
 _atom_site_type_symbol
 _atom_site_label
 _atom_site_symmetry_multiplicity
 _atom_site_fract_x
 _atom_site_fract_y
 _atom_site_fract_z
 _atom_site_occupancy
  Sr  Sr0  1  0.49204521  0.20065450  0.97017829  1
  Sr  Sr1  1  0.99204521  0.79934550  0.02982171  1
  Sr  Sr2  1  0.49891148  0.25053822  0.50924321  1
  Sr  Sr3  1  0.99891148  0.74946178  0.49075679  1
  Al  Al4  1  0.66929668  0.79783841  0.31946622  1
  Al  Al5  1  0.16929668  0.20216159  0.68053378  1
  Al  Al6  1  0.16747459  0.22235781  0.29276416  1
  Al  Al7  1  0.66747459  0.77764219  0.70723584  1
  Al  Al8  1  0.33718075  0.72885272  0.20043263  1
  Al  Al9  1  0.83718075  0.27114728  0.79956737  1
  Al  Al10  1  0.33048980  0.71365096  0.80993634  1
  Al  Al11  1  0.83048980  0.28634904  0.19006366  1
  O  O12  1  0.38455949  0.64723333  0.00824113  1
  O  O13  1  0.88455949  0.35276667  0.99175887  1
  O  O14  1  0.71612684  0.88180563  0.51222148  1
  O  O15  1  0.21612684  0.11819437  0.48777852  1
  O  O16  1  0.16564337  0.90561980  0.79524221  1
  O  O17  1  0.66564337  0.09438020  0.20475779  1
  O  O18  1  0.79515730  0.93663498  0.82634656  1
  O  O19  1  0.29515730  0.06336502  0.17365344  1
  O  O20  1  0.48351399  0.89942242  0.73296043  1
  O  O21  1  0.98351399  0.10057758  0.26703957  1
  O  O22  1  0.98974071  0.34590187  0.67301639  1
  O  O23  1  0.48974071  0.65409813  0.32698361  1
  O  O24  1  0.17038769  0.56324673  0.26463844  1
  O  O25  1  0.67038769  0.43675327  0.73536156  1
  O  O26  1  0.31527409  0.41143092  0.73007551  1
  O  O27  1  0.81527409  0.58856908  0.26992449  1
