# generated using pymatgen
data_Cs3As5O9
_symmetry_space_group_name_H-M   'P 1'
_cell_length_a   8.54949041
_cell_length_b   8.54949052
_cell_length_c   6.06818132
_cell_angle_alpha   90.00000000
_cell_angle_beta   90.00000000
_cell_angle_gamma   119.99999955
_symmetry_Int_Tables_number   1
_chemical_formula_structural   Cs3As5O9
_chemical_formula_sum   'Cs3 As5 O9'
_cell_volume   384.12241203
_cell_formula_units_Z   1
loop_
 _symmetry_equiv_pos_site_id
 _symmetry_equiv_pos_as_xyz
  1  'x, y, z'
loop_
 _atom_site_type_symbol
 _atom_site_label
 _atom_site_symmetry_multiplicity
 _atom_site_fract_x
 _atom_site_fract_y
 _atom_site_fract_z
 _atom_site_occupancy
  Cs  Cs0  1  0.62964271  0.62964271  0.99757776  1
  Cs  Cs1  1  0.00000000  0.37035729  0.99757776  1
  Cs  Cs2  1  0.37035729  0.00000000  0.99757776  1
  As  As3  1  0.66666700  0.33333300  0.46830972  1
  As  As4  1  0.33333300  0.66666700  0.46830972  1
  As  As5  1  0.25897828  0.25897828  0.50166995  1
  As  As6  1  0.00000000  0.74102172  0.50166995  1
  As  As7  1  0.74102172  0.00000000  0.50166995  1
  O  O8  1  0.71521909  0.18512421  0.62504324  1
  O  O9  1  0.81487579  0.53009388  0.62504324  1
  O  O10  1  0.46990612  0.28478091  0.62504324  1
  O  O11  1  0.18512421  0.71521909  0.62504324  1
  O  O12  1  0.53009388  0.81487579  0.62504324  1
  O  O13  1  0.28478091  0.46990612  0.62504324  1
  O  O14  1  0.31722852  0.31722852  0.23582599  1
  O  O15  1  -0.00000000  0.68277148  0.23582599  1
  O  O16  1  0.68277148  0.00000000  0.23582599  1
