# generated using pymatgen
data_Rb2Te
_symmetry_space_group_name_H-M   'P 1'
_cell_length_a   6.10970365
_cell_length_b   7.95255714
_cell_length_c   10.57119858
_cell_angle_alpha   90.00000000
_cell_angle_beta   90.00000000
_cell_angle_gamma   90.00000000
_symmetry_Int_Tables_number   1
_chemical_formula_structural   Rb2Te
_chemical_formula_sum   'Rb8 Te4'
_cell_volume   513.63093759
_cell_formula_units_Z   4
loop_
 _symmetry_equiv_pos_site_id
 _symmetry_equiv_pos_as_xyz
  1  'x, y, z'
loop_
 _atom_site_type_symbol
 _atom_site_label
 _atom_site_symmetry_multiplicity
 _atom_site_fract_x
 _atom_site_fract_y
 _atom_site_fract_z
 _atom_site_occupancy
  Rb  Rb0  1  0.75000000  0.99966804  0.75122974  1
  Rb  Rb1  1  0.25000000  0.00033196  0.24877026  1
  Rb  Rb2  1  0.75000000  0.49966804  0.74877026  1
  Rb  Rb3  1  0.25000000  0.50033196  0.25122974  1
  Rb  Rb4  1  0.75000000  0.75172641  0.41674714  1
  Rb  Rb5  1  0.25000000  0.24827359  0.58325286  1
  Rb  Rb6  1  0.75000000  0.25172641  0.08325286  1
  Rb  Rb7  1  0.25000000  0.74827359  0.91674714  1
  Te  Te8  1  0.75000000  0.75003541  0.08333207  1
  Te  Te9  1  0.25000000  0.24996459  0.91666793  1
  Te  Te10  1  0.75000000  0.25003541  0.41666793  1
  Te  Te11  1  0.25000000  0.74996459  0.58333207  1
