# generated using pymatgen
data_Al2NiO4
_symmetry_space_group_name_H-M   'P 1'
_cell_length_a   5.61423267
_cell_length_b   5.72786391
_cell_length_c   8.04829579
_cell_angle_alpha   90.00000257
_cell_angle_beta   89.99999810
_cell_angle_gamma   90.00000498
_symmetry_Int_Tables_number   1
_chemical_formula_structural   Al2NiO4
_chemical_formula_sum   'Al8 Ni4 O16'
_cell_volume   258.81356049
_cell_formula_units_Z   4
loop_
 _symmetry_equiv_pos_site_id
 _symmetry_equiv_pos_as_xyz
  1  'x, y, z'
loop_
 _atom_site_type_symbol
 _atom_site_label
 _atom_site_symmetry_multiplicity
 _atom_site_fract_x
 _atom_site_fract_y
 _atom_site_fract_z
 _atom_site_occupancy
  Al  Al0  1  0.00000000  0.25000000  0.13232017  1
  Al  Al1  1  0.50000000  0.75000000  0.63232017  1
  Al  Al2  1  -0.00000000  0.75000000  0.86767983  1
  Al  Al3  1  0.50000000  0.25000000  0.36767983  1
  Al  Al4  1  0.00000000  0.50000000  0.50000000  1
  Al  Al5  1  0.50000000  0.00000000  -0.00000000  1
  Al  Al6  1  0.00000000  0.00000000  0.50000000  1
  Al  Al7  1  0.50000000  0.50000000  -0.00000000  1
  Ni  Ni8  1  0.25000000  0.25000000  0.75000000  1
  Ni  Ni9  1  0.75000000  0.25000000  0.75000000  1
  Ni  Ni10  1  0.75000000  0.75000000  0.25000000  1
  Ni  Ni11  1  0.25000000  0.75000000  0.25000000  1
  O  O12  1  0.00000000  0.49721168  0.26594131  1
  O  O13  1  0.50000000  0.99721168  0.76594131  1
  O  O14  1  -0.00000000  0.00278832  0.26594131  1
  O  O15  1  0.50000000  0.50278832  0.76594131  1
  O  O16  1  0.00000000  0.99721168  0.73405869  1
  O  O17  1  0.50000000  0.49721168  0.23405869  1
  O  O18  1  -0.00000000  0.50278832  0.73405869  1
  O  O19  1  0.50000000  0.00278832  0.23405869  1
  O  O20  1  0.23433285  0.75000000  0.50400128  1
  O  O21  1  0.73433285  0.25000000  0.00400128  1
  O  O22  1  0.76566715  0.75000000  0.50400128  1
  O  O23  1  0.26566715  0.25000000  0.00400128  1
  O  O24  1  0.23433285  0.25000000  0.49599872  1
  O  O25  1  0.73433285  0.75000000  0.99599872  1
  O  O26  1  0.76566715  0.25000000  0.49599872  1
  O  O27  1  0.26566715  0.75000000  0.99599872  1
