# generated using pymatgen
data_KAuS5
_symmetry_space_group_name_H-M   'P 1'
_cell_length_a   10.38493075
_cell_length_b   10.38480160
_cell_length_c   10.38476960
_cell_angle_alpha   131.59304872
_cell_angle_beta   117.13833776
_cell_angle_gamma   83.10974359
_symmetry_Int_Tables_number   1
_chemical_formula_structural   KAuS5
_chemical_formula_sum   'K4 Au4 S20'
_cell_volume   716.69733610
_cell_formula_units_Z   4
loop_
 _symmetry_equiv_pos_site_id
 _symmetry_equiv_pos_as_xyz
  1  'x, y, z'
loop_
 _atom_site_type_symbol
 _atom_site_label
 _atom_site_symmetry_multiplicity
 _atom_site_fract_x
 _atom_site_fract_y
 _atom_site_fract_z
 _atom_site_occupancy
  K  K0  1  0.25001286  0.24999397  0.00000989  1
  K  K1  1  0.75001087  0.75000476  0.00001366  1
  K  K2  1  -0.00000941  0.49998072  0.49997695  1
  K  K3  1  0.49999398  0.00001959  0.50000576  1
  Au  Au4  1  0.88762972  0.24999270  0.63763218  1
  Au  Au5  1  0.61236603  0.24999102  0.36236586  1
  Au  Au6  1  0.11237052  0.74999704  0.36236953  1
  Au  Au7  1  0.38763753  0.75000679  0.63764430  1
  S  S8  1  0.42784613  0.39617965  0.60925708  1
  S  S9  1  0.07215023  0.68141409  0.96833294  1
  S  S10  1  0.71308395  0.10382857  0.03167288  1
  S  S11  1  0.78692125  0.81858651  0.39073863  1
  S  S12  1  0.57214472  0.60380984  0.39072259  1
  S  S13  1  0.92784914  0.31858167  0.03166725  1
  S  S14  1  0.28691067  0.89618658  0.96833256  1
  S  S15  1  0.21308582  0.18142368  0.60927088  1
  S  S16  1  0.98986933  0.15030887  0.43918946  1
  S  S17  1  0.51013090  0.94929574  0.16042528  1
  S  S18  1  0.78887663  0.34970213  0.83956766  1
  S  S19  1  0.71112197  0.55068774  0.56081798  1
  S  S20  1  0.01013614  0.84968111  0.56081530  1
  S  S21  1  0.48986939  0.05068590  0.83956032  1
  S  S22  1  0.21113099  0.65030600  0.16043803  1
  S  S23  1  0.28887684  0.44932332  0.43918456  1
  S  S24  1  0.34073548  0.42868156  0.76941630  1
  S  S25  1  0.15926098  0.92867909  0.08793298  1
  S  S26  1  0.84073783  0.07132671  0.91206278  1
  S  S27  1  0.65925152  0.57132464  0.23057540  1
