# generated using pymatgen
data_Sm3Sb5O12
_symmetry_space_group_name_H-M   'P 1'
_cell_length_a   9.45650663
_cell_length_b   9.45650686
_cell_length_c   9.45650789
_cell_angle_alpha   109.47120317
_cell_angle_beta   109.47120394
_cell_angle_gamma   109.47120253
_symmetry_Int_Tables_number   1
_chemical_formula_structural   Sm3Sb5O12
_chemical_formula_sum   'Sm6 Sb10 O24'
_cell_volume   650.98450551
_cell_formula_units_Z   2
loop_
 _symmetry_equiv_pos_site_id
 _symmetry_equiv_pos_as_xyz
  1  'x, y, z'
loop_
 _atom_site_type_symbol
 _atom_site_label
 _atom_site_symmetry_multiplicity
 _atom_site_fract_x
 _atom_site_fract_y
 _atom_site_fract_z
 _atom_site_occupancy
  Sm  Sm0  1  0.74999879  0.49999878  0.24999921  1
  Sm  Sm1  1  0.24999923  0.74999899  0.49999905  1
  Sm  Sm2  1  0.74999882  0.24999917  0.49999879  1
  Sm  Sm3  1  0.49999906  0.24999925  0.74999909  1
  Sm  Sm4  1  0.49999897  0.74999891  0.24999917  1
  Sm  Sm5  1  0.24999926  0.49999910  0.74999902  1
  Sb  Sb6  1  0.51109706  0.51109713  0.51109708  1
  Sb  Sb7  1  -0.00000041  0.48890324  -0.00000047  1
  Sb  Sb8  1  0.48890304  -0.00000064  -0.00000064  1
  Sb  Sb9  1  -0.00000066  -0.00000055  0.48890334  1
  Sb  Sb10  1  0.00000063  0.72037824  0.72037813  1
  Sb  Sb11  1  -0.00000031  0.27962195  0.27962209  1
  Sb  Sb12  1  0.27962183  -0.00000036  0.27962191  1
  Sb  Sb13  1  0.72037799  0.00000043  0.72037785  1
  Sb  Sb14  1  0.27962164  0.27962164  -0.00000053  1
  Sb  Sb15  1  0.72037806  0.72037790  0.00000056  1
  O  O16  1  0.52621309  0.00000094  0.80263733  1
  O  O17  1  0.19736277  0.19736289  0.72357489  1
  O  O18  1  0.00000093  0.80263733  0.52621327  1
  O  O19  1  0.27642493  0.47378782  0.47378781  1
  O  O20  1  0.80263732  0.52621313  0.00000092  1
  O  O21  1  0.47378793  0.27642508  0.47378784  1
  O  O22  1  0.19736284  0.72357485  0.19736292  1
  O  O23  1  0.52621307  0.80263726  0.00000093  1
  O  O24  1  0.47378790  0.47378787  0.27642502  1
  O  O25  1  0.00000099  0.52621322  0.80263737  1
  O  O26  1  0.72357464  0.19736285  0.19736286  1
  O  O27  1  0.80263716  0.00000088  0.52621318  1
  O  O28  1  0.49126380  -0.00000015  0.29309731  1
  O  O29  1  0.70690304  0.70690293  0.19816736  1
  O  O30  1  -0.00000016  0.29309733  0.49126394  1
  O  O31  1  0.80183369  0.50873653  0.50873645  1
  O  O32  1  0.29309726  -0.00000001  0.49126389  1
  O  O33  1  0.19816741  0.70690305  0.70690308  1
  O  O34  1  -0.00000014  0.49126385  0.29309739  1
  O  O35  1  0.50873633  0.50873631  0.80183361  1
  O  O36  1  0.49126369  0.29309722  -0.00000023  1
  O  O37  1  0.70690307  0.19816729  0.70690299  1
  O  O38  1  0.50873620  0.80183358  0.50873630  1
  O  O39  1  0.29309722  0.49126377  -0.00000005  1
