# generated using pymatgen
data_Bi(IO3)3
_symmetry_space_group_name_H-M   'P 1'
_cell_length_a   5.94766515
_cell_length_b   8.84370072
_cell_length_c   16.69988146
_cell_angle_alpha   65.43552948
_cell_angle_beta   90.00000000
_cell_angle_gamma   90.00000000
_symmetry_Int_Tables_number   1
_chemical_formula_structural   Bi(IO3)3
_chemical_formula_sum   'Bi4 I12 O36'
_cell_volume   798.90255245
_cell_formula_units_Z   4
loop_
 _symmetry_equiv_pos_site_id
 _symmetry_equiv_pos_as_xyz
  1  'x, y, z'
loop_
 _atom_site_type_symbol
 _atom_site_label
 _atom_site_symmetry_multiplicity
 _atom_site_fract_x
 _atom_site_fract_y
 _atom_site_fract_z
 _atom_site_occupancy
  Bi  Bi0  1  0.72169109  0.35141561  0.60349237  1
  Bi  Bi1  1  0.22169109  0.64858439  0.89650763  1
  Bi  Bi2  1  0.27830891  0.64858439  0.39650763  1
  Bi  Bi3  1  0.77830891  0.35141561  0.10349237  1
  I  I4  1  0.90064323  0.91413462  0.70094019  1
  I  I5  1  0.40064323  0.08586538  0.79905981  1
  I  I6  1  0.09935677  0.08586538  0.29905981  1
  I  I7  1  0.59935677  0.91413462  0.20094019  1
  I  I8  1  0.35709507  0.14245763  0.52114912  1
  I  I9  1  0.85709507  0.85754237  0.97885088  1
  I  I10  1  0.64290493  0.85754237  0.47885088  1
  I  I11  1  0.14290493  0.14245763  0.02114912  1
  I  I12  1  0.81480159  0.42901327  0.35207593  1
  I  I13  1  0.31480159  0.57098673  0.14792407  1
  I  I14  1  0.18519841  0.57098673  0.64792407  1
  I  I15  1  0.68519841  0.42901327  0.85207593  1
  O  O16  1  0.18007443  0.84228837  0.74510101  1
  O  O17  1  0.68007443  0.15771163  0.75489899  1
  O  O18  1  0.81992557  0.15771163  0.25489899  1
  O  O19  1  0.31992557  0.84228837  0.24510101  1
  O  O20  1  0.90638051  0.83264606  0.61787434  1
  O  O21  1  0.40638051  0.16735394  0.88212566  1
  O  O22  1  0.09361949  0.16735394  0.38212566  1
  O  O23  1  0.59361949  0.83264606  0.11787434  1
  O  O24  1  -0.00527119  0.12743146  0.63518886  1
  O  O25  1  0.49472881  0.87256854  0.86481114  1
  O  O26  1  0.00527119  0.87256854  0.36481114  1
  O  O27  1  0.50527119  0.12743146  0.13518886  1
  O  O28  1  0.52476889  0.09667308  0.62047226  1
  O  O29  1  0.02476889  0.90332692  0.87952774  1
  O  O30  1  0.47523111  0.90332692  0.37952774  1
  O  O31  1  0.97523111  0.09667308  0.12047226  1
  O  O32  1  0.59347927  0.39549521  0.96144515  1
  O  O33  1  0.09347927  0.60450479  0.53855485  1
  O  O34  1  0.40652073  0.60450479  0.03855485  1
  O  O35  1  0.90652073  0.39549521  0.46144515  1
  O  O36  1  0.44505333  0.56048315  0.79848626  1
  O  O37  1  0.94505333  0.43951685  0.70151374  1
  O  O38  1  0.55494667  0.43951685  0.20151374  1
  O  O39  1  0.05494667  0.56048315  0.29848626  1
  O  O40  1  0.88513628  0.59998462  0.83004412  1
  O  O41  1  0.38513628  0.40001538  0.66995588  1
  O  O42  1  0.11486372  0.40001538  0.16995588  1
  O  O43  1  0.61486372  0.59998462  0.33004412  1
  O  O44  1  0.10002975  0.36552801  0.99030674  1
  O  O45  1  0.60002975  0.63447199  0.50969326  1
  O  O46  1  0.89997025  0.63447199  0.00969326  1
  O  O47  1  0.39997025  0.36552801  0.49030674  1
  O  O48  1  0.91603912  0.14004907  0.94651549  1
  O  O49  1  0.41603912  0.85995093  0.55348451  1
  O  O50  1  0.08396088  0.85995093  0.05348451  1
  O  O51  1  0.58396088  0.14004907  0.44651549  1
