# generated using pymatgen
data_Ca4Nb2O9
_symmetry_space_group_name_H-M   'P 1'
_cell_length_a   5.55053255
_cell_length_b   9.87659647
_cell_length_c   17.13854418
_cell_angle_alpha   56.03760424
_cell_angle_beta   90.00000000
_cell_angle_gamma   90.00000000
_symmetry_Int_Tables_number   1
_chemical_formula_structural   Ca4Nb2O9
_chemical_formula_sum   'Ca16 Nb8 O36'
_cell_volume   779.25972023
_cell_formula_units_Z   4
loop_
 _symmetry_equiv_pos_site_id
 _symmetry_equiv_pos_as_xyz
  1  'x, y, z'
loop_
 _atom_site_type_symbol
 _atom_site_label
 _atom_site_symmetry_multiplicity
 _atom_site_fract_x
 _atom_site_fract_y
 _atom_site_fract_z
 _atom_site_occupancy
  Ca  Ca0  1  -0.00000000  -0.00000000  0.00000000  1
  Ca  Ca1  1  0.47884921  0.54477442  0.60846521  1
  Ca  Ca2  1  0.97884921  0.45522558  0.89153479  1
  Ca  Ca3  1  0.52115079  0.45522558  0.39153479  1
  Ca  Ca4  1  0.02115079  0.54477442  0.10846521  1
  Ca  Ca5  1  0.00233776  0.21289776  0.77085471  1
  Ca  Ca6  1  0.50233776  0.78710224  0.72914529  1
  Ca  Ca7  1  0.99766224  0.78710224  0.22914529  1
  Ca  Ca8  1  -0.00000000  0.50000000  0.50000000  1
  Ca  Ca9  1  0.49766224  0.21289776  0.27085471  1
  Ca  Ca10  1  0.50000000  0.50000000  0.00000000  1
  Ca  Ca11  1  0.50000000  -0.00000000  0.50000000  1
  Ca  Ca12  1  0.51663293  0.12333416  0.07344571  1
  Ca  Ca13  1  0.01663293  0.87666584  0.42655429  1
  Ca  Ca14  1  0.48336707  0.87666584  0.92655429  1
  Ca  Ca15  1  0.98336707  0.12333416  0.57344571  1
  Nb  Nb16  1  0.49182590  0.17005009  0.66204520  1
  Nb  Nb17  1  0.01064770  0.32320376  0.33715629  1
  Nb  Nb18  1  0.51064770  0.67679624  0.16284371  1
  Nb  Nb19  1  0.98935230  0.67679624  0.66284371  1
  Nb  Nb20  1  0.48935230  0.32320376  0.83715629  1
  Nb  Nb21  1  0.00817410  0.17005009  0.16204520  1
  Nb  Nb22  1  0.50817410  0.82994991  0.33795480  1
  Nb  Nb23  1  0.99182590  0.82994991  0.83795480  1
  O  O24  1  0.61967864  0.94461646  0.39341796  1
  O  O25  1  0.38032136  0.05538354  0.60658204  1
  O  O26  1  0.88032136  0.94461646  0.89341796  1
  O  O27  1  0.11967864  0.05538354  0.10658204  1
  O  O28  1  0.88192331  0.62559406  0.57425805  1
  O  O29  1  0.38192331  0.37440594  0.92574195  1
  O  O30  1  0.11807669  0.37440594  0.42574195  1
  O  O31  1  0.61807669  0.62559406  0.07425805  1
  O  O32  1  0.09444524  0.72191046  0.76647946  1
  O  O33  1  0.59444524  0.27808954  0.73352054  1
  O  O34  1  0.90555476  0.27808954  0.23352054  1
  O  O35  1  0.40555476  0.72191046  0.26647946  1
  O  O36  1  0.20794355  0.76390143  0.09709175  1
  O  O37  1  0.70794355  0.23609857  0.40290825  1
  O  O38  1  0.79205645  0.23609857  0.90290825  1
  O  O39  1  0.67069695  0.32906426  0.55035262  1
  O  O40  1  0.71127204  0.02113108  0.21729079  1
  O  O41  1  0.21127204  0.97886892  0.28270921  1
  O  O42  1  0.28872796  0.97886892  0.78270921  1
  O  O43  1  0.78872796  0.02113108  0.71729079  1
  O  O44  1  0.80190964  0.54789731  0.25001139  1
  O  O45  1  0.30190964  0.45210269  0.24998861  1
  O  O46  1  0.19809036  0.45210269  0.74998861  1
  O  O47  1  0.69809036  0.54789731  0.75001139  1
  O  O48  1  0.29988767  0.30131992  0.12913321  1
  O  O49  1  0.79988767  0.69868008  0.37086679  1
  O  O50  1  0.70011233  0.69868008  0.87086679  1
  O  O51  1  0.20011233  0.30131992  0.62913321  1
  O  O52  1  0.67861239  0.88130155  0.10119734  1
  O  O53  1  0.17861239  0.11869845  0.39880266  1
  O  O54  1  0.32138761  0.11869845  0.89880266  1
  O  O55  1  0.82138761  0.88130155  0.60119734  1
  O  O56  1  0.82930305  0.32906426  0.05035262  1
  O  O57  1  0.32930305  0.67093574  0.44964738  1
  O  O58  1  0.17069695  0.67093574  0.94964738  1
  O  O59  1  0.29205645  0.76390143  0.59709175  1
