# generated using pymatgen
data_CaGe2O5
_symmetry_space_group_name_H-M   'P 1'
_cell_length_a   5.49146294
_cell_length_b   5.49146294
_cell_length_c   6.89578104
_cell_angle_alpha   76.38820837
_cell_angle_beta   76.38820837
_cell_angle_gamma   106.60328434
_symmetry_Int_Tables_number   1
_chemical_formula_structural   CaGe2O5
_chemical_formula_sum   'Ca2 Ge4 O10'
_cell_volume   183.17656047
_cell_formula_units_Z   2
loop_
 _symmetry_equiv_pos_site_id
 _symmetry_equiv_pos_as_xyz
  1  'x, y, z'
loop_
 _atom_site_type_symbol
 _atom_site_label
 _atom_site_symmetry_multiplicity
 _atom_site_fract_x
 _atom_site_fract_y
 _atom_site_fract_z
 _atom_site_occupancy
  Ca  Ca0  1  0.32902298  0.67097702  0.75000000  1
  Ca  Ca1  1  0.67097702  0.32902298  0.25000000  1
  Ge  Ge2  1  0.31508937  0.68491063  0.25000000  1
  Ge  Ge3  1  0.68491063  0.31508937  0.75000000  1
  Ge  Ge4  1  -0.00000000  -0.00000000  0.00000000  1
  Ge  Ge5  1  -0.00000000  -0.00000000  0.50000000  1
  O  O6  1  0.90313929  0.30707598  0.89876228  1
  O  O7  1  0.69292402  0.09686071  0.60123772  1
  O  O8  1  0.09686071  0.69292402  0.10123772  1
  O  O9  1  0.30707598  0.90313929  0.39876228  1
  O  O10  1  0.63363954  0.75323133  0.07341643  1
  O  O11  1  0.24676867  0.36636046  0.42658357  1
  O  O12  1  0.06866493  0.93133507  0.75000000  1
  O  O13  1  0.93133507  0.06866493  0.25000000  1
  O  O14  1  0.75323133  0.63363954  0.57341643  1
  O  O15  1  0.36636046  0.24676867  0.92658357  1
