# generated using pymatgen
data_W6CCl18
_symmetry_space_group_name_H-M   'P 1'
_cell_length_a   9.10557093
_cell_length_b   9.10527142
_cell_length_c   17.83410444
_cell_angle_alpha   89.99837826
_cell_angle_beta   90.00106473
_cell_angle_gamma   119.99941319
_symmetry_Int_Tables_number   1
_chemical_formula_structural   W6CCl18
_chemical_formula_sum   'W12 C2 Cl36'
_cell_volume   1280.51474391
_cell_formula_units_Z   2
loop_
 _symmetry_equiv_pos_site_id
 _symmetry_equiv_pos_as_xyz
  1  'x, y, z'
loop_
 _atom_site_type_symbol
 _atom_site_label
 _atom_site_symmetry_multiplicity
 _atom_site_fract_x
 _atom_site_fract_y
 _atom_site_fract_z
 _atom_site_occupancy
  W  W0  1  0.50773959  0.14898131  0.83230067  1
  W  W1  1  0.85100282  0.35874667  0.83229225  1
  W  W2  1  0.64123370  0.49223756  0.83229942  1
  W  W3  1  0.49226907  0.64125217  0.16770411  1
  W  W4  1  0.64124012  0.49224836  0.66771395  1
  W  W5  1  0.50773662  0.14900247  0.66771521  1
  W  W6  1  0.85099073  0.35875588  0.66771344  1
  W  W7  1  0.14900518  0.50775391  0.33227821  1
  W  W8  1  0.35874830  0.85098559  0.33228028  1
  W  W9  1  0.35875667  0.85100148  0.16770020  1
  W  W10  1  0.14899256  0.50773491  0.16771188  1
  W  W11  1  0.49226169  0.64125640  0.33228332  1
  C  C12  1  0.66666262  0.33333443  0.74998928  1
  C  C13  1  0.33334087  0.66667643  0.25000917  1
  Cl  Cl14  1  0.69770265  0.13707003  0.92053994  1
  Cl  Cl15  1  0.86291367  0.56061804  0.92053610  1
  Cl  Cl16  1  0.43937417  0.30228435  0.92053927  1
  Cl  Cl17  1  0.30230469  0.43938015  0.07946402  1
  Cl  Cl18  1  0.43936652  0.30229725  0.57946478  1
  Cl  Cl19  1  0.69768990  0.13706831  0.57946985  1
  Cl  Cl20  1  0.86290319  0.56063683  0.57945870  1
  Cl  Cl21  1  0.13708899  0.69770230  0.42053283  1
  Cl  Cl22  1  0.56062868  0.86292584  0.42053470  1
  Cl  Cl23  1  0.56062058  0.86292778  0.07946010  1
  Cl  Cl24  1  0.47782949  0.42153108  0.24999963  1
  Cl  Cl25  1  0.94372654  0.52217891  0.24999646  1
  Cl  Cl26  1  0.57848150  0.05631815  0.24999492  1
  Cl  Cl27  1  0.05627794  0.57846706  0.75000227  1
  Cl  Cl28  1  0.52216942  0.94369695  0.75000335  1
  Cl  Cl29  1  0.42152893  0.47783099  0.75000241  1
  Cl  Cl30  1  0.72518470  0.82866860  0.24999588  1
  Cl  Cl31  1  0.10348575  0.27480452  0.25000132  1
  Cl  Cl32  1  0.17134522  0.89653222  0.24999577  1
  Cl  Cl33  1  0.89650288  0.17132711  0.75000067  1
  Cl  Cl34  1  0.27481106  0.10347767  0.75000804  1
  Cl  Cl35  1  0.82865834  0.72518663  0.75000178  1
  Cl  Cl36  1  0.70561521  0.60849687  0.39585045  1
  Cl  Cl37  1  0.90290711  0.29438717  0.10414682  1
  Cl  Cl38  1  0.39150323  0.09713247  0.10413687  1
  Cl  Cl39  1  0.39152143  0.09713719  0.39585208  1
  Cl  Cl40  1  0.90289657  0.29437961  0.39585516  1
  Cl  Cl41  1  0.09709789  0.39149919  0.60414437  1
  Cl  Cl42  1  0.29438950  0.90288566  0.60414578  1
  Cl  Cl43  1  0.60849480  0.70562834  0.60414376  1
  Cl  Cl44  1  0.70561638  0.60850246  0.10414707  1
  Cl  Cl45  1  0.60849566  0.70560392  0.89586398  1
  Cl  Cl46  1  0.09709453  0.39147787  0.89585797  1
  Cl  Cl47  1  0.29439416  0.90288324  0.89586265  1
  Cl  Cl48  1  0.30230289  0.43937634  0.42053385  1
  Cl  Cl49  1  0.13709730  0.69771135  0.07946597  1
