# generated using pymatgen
data_NaZnF3
_symmetry_space_group_name_H-M   'P 1'
_cell_length_a   5.35051557
_cell_length_b   5.58325960
_cell_length_c   7.70171572
_cell_angle_alpha   90.00000000
_cell_angle_beta   90.00000000
_cell_angle_gamma   90.00000000
_symmetry_Int_Tables_number   1
_chemical_formula_structural   NaZnF3
_chemical_formula_sum   'Na4 Zn4 F12'
_cell_volume   230.07579839
_cell_formula_units_Z   4
loop_
 _symmetry_equiv_pos_site_id
 _symmetry_equiv_pos_as_xyz
  1  'x, y, z'
loop_
 _atom_site_type_symbol
 _atom_site_label
 _atom_site_symmetry_multiplicity
 _atom_site_fract_x
 _atom_site_fract_y
 _atom_site_fract_z
 _atom_site_occupancy
  Na  Na0  1  0.01888281  0.93754469  0.75000000  1
  Na  Na1  1  0.51888281  0.56245531  0.25000000  1
  Na  Na2  1  0.48111719  0.43754469  0.75000000  1
  Na  Na3  1  0.98111719  0.06245531  0.25000000  1
  Zn  Zn4  1  0.50000000  0.00000000  0.50000000  1
  Zn  Zn5  1  0.00000000  0.50000000  0.50000000  1
  Zn  Zn6  1  -0.00000000  0.50000000  0.00000000  1
  Zn  Zn7  1  0.50000000  0.00000000  0.00000000  1
  F  F8  1  0.69411441  0.30140205  0.44189527  1
  F  F9  1  0.19411441  0.19859795  0.55810473  1
  F  F10  1  0.80588559  0.80140205  0.05810473  1
  F  F11  1  0.30588559  0.69859795  0.94189527  1
  F  F12  1  0.30588559  0.69859795  0.55810473  1
  F  F13  1  0.80588559  0.80140205  0.44189527  1
  F  F14  1  0.19411441  0.19859795  0.94189527  1
  F  F15  1  0.69411441  0.30140205  0.05810473  1
  F  F16  1  0.11136990  0.45928356  0.25000000  1
  F  F17  1  0.61136990  0.04071644  0.75000000  1
  F  F18  1  0.38863010  0.95928356  0.25000000  1
  F  F19  1  0.88863010  0.54071644  0.75000000  1
