# generated using pymatgen
data_Tb5C2Br9
_symmetry_space_group_name_H-M   'P 1'
_cell_length_a   16.48881848
_cell_length_b   9.98881720
_cell_length_c   13.42425890
_cell_angle_alpha   58.60899248
_cell_angle_beta   90.00000000
_cell_angle_gamma   90.00000000
_symmetry_Int_Tables_number   1
_chemical_formula_structural   Tb5C2Br9
_chemical_formula_sum   'Tb20 C8 Br36'
_cell_volume   1887.40409502
_cell_formula_units_Z   4
loop_
 _symmetry_equiv_pos_site_id
 _symmetry_equiv_pos_as_xyz
  1  'x, y, z'
loop_
 _atom_site_type_symbol
 _atom_site_label
 _atom_site_symmetry_multiplicity
 _atom_site_fract_x
 _atom_site_fract_y
 _atom_site_fract_z
 _atom_site_occupancy
  Tb  Tb0  1  0.81336550  0.71558034  0.44482198  1
  Tb  Tb1  1  0.31336550  0.28441966  0.05517802  1
  Tb  Tb2  1  0.18663450  0.28441966  0.55517802  1
  Tb  Tb3  1  0.68663450  0.71558034  0.94482198  1
  Tb  Tb4  1  0.05577662  0.50570903  0.23696773  1
  Tb  Tb5  1  0.55577662  0.49429097  0.26303227  1
  Tb  Tb6  1  0.94422338  0.49429097  0.76303227  1
  Tb  Tb7  1  0.44422338  0.50570903  0.73696773  1
  Tb  Tb8  1  0.83733490  0.50989969  0.27847320  1
  Tb  Tb9  1  0.33733490  0.49010031  0.22152680  1
  Tb  Tb10  1  0.16266510  0.49010031  0.72152680  1
  Tb  Tb11  1  0.66266510  0.50989969  0.77847320  1
  Tb  Tb12  1  0.94163278  0.86150949  0.18663406  1
  Tb  Tb13  1  0.44163278  0.13849051  0.31336594  1
  Tb  Tb14  1  0.05836722  0.13849051  0.81336594  1
  Tb  Tb15  1  0.55836722  0.86150949  0.68663406  1
  Tb  Tb16  1  0.04144920  0.66332238  0.46384856  1
  Tb  Tb17  1  0.54144920  0.33667762  0.03615144  1
  Tb  Tb18  1  0.95855080  0.33667762  0.53615144  1
  Tb  Tb19  1  0.45855080  0.66332238  0.96384856  1
  C  C20  1  0.96940612  0.57325125  0.33005283  1
  C  C21  1  0.46940612  0.42674875  0.16994717  1
  C  C22  1  0.03059388  0.42674875  0.66994717  1
  C  C23  1  0.53059388  0.57325125  0.83005283  1
  C  C24  1  0.91124185  0.62839214  0.38001239  1
  C  C25  1  0.41124185  0.37160786  0.11998761  1
  C  C26  1  0.08875815  0.37160786  0.61998761  1
  C  C27  1  0.58875815  0.62839214  0.88001239  1
  Br  Br28  1  0.06400246  0.97062996  0.26235982  1
  Br  Br29  1  0.56400246  0.02937004  0.23764018  1
  Br  Br30  1  0.93599754  0.02937004  0.73764018  1
  Br  Br31  1  0.43599754  0.97062996  0.76235982  1
  Br  Br32  1  0.06835170  0.19678097  0.44244321  1
  Br  Br33  1  0.56835170  0.80321903  0.05755679  1
  Br  Br34  1  0.93164830  0.80321903  0.55755679  1
  Br  Br35  1  0.43164830  0.19678097  0.94244321  1
  Br  Br36  1  0.19862422  0.58408787  0.32981072  1
  Br  Br37  1  0.69862422  0.41591213  0.17018928  1
  Br  Br38  1  0.80137578  0.41591213  0.67018928  1
  Br  Br39  1  0.30137578  0.58408787  0.82981072  1
  Br  Br40  1  0.81772898  0.80381086  0.06097590  1
  Br  Br41  1  0.31772898  0.19618914  0.43902410  1
  Br  Br42  1  0.18227102  0.19618914  0.93902410  1
  Br  Br43  1  0.68227102  0.80381086  0.56097590  1
  Br  Br44  1  0.69198909  0.59811055  0.35861835  1
  Br  Br45  1  0.19198909  0.40188945  0.14138165  1
  Br  Br46  1  0.30801091  0.40188945  0.64138165  1
  Br  Br47  1  0.80801091  0.59811055  0.85861835  1
  Br  Br48  1  0.81827493  0.00886789  0.24601111  1
  Br  Br49  1  0.31827493  0.99113211  0.25398889  1
  Br  Br50  1  0.18172507  0.99113211  0.75398889  1
  Br  Br51  1  0.68172507  0.00886789  0.74601111  1
  Br  Br52  1  0.93187195  0.40803553  0.15184920  1
  Br  Br53  1  0.43187195  0.59196447  0.34815080  1
  Br  Br54  1  0.06812805  0.59196447  0.84815080  1
  Br  Br55  1  0.56812805  0.40803553  0.65184920  1
  Br  Br56  1  0.05875726  0.81884574  0.04053318  1
  Br  Br57  1  0.55875726  0.18115426  0.45946682  1
  Br  Br58  1  0.94124274  0.18115426  0.95946682  1
  Br  Br59  1  0.44124274  0.81884574  0.54053318  1
  Br  Br60  1  0.82561026  0.21416867  0.46889597  1
  Br  Br61  1  0.32561026  0.78583133  0.03110403  1
  Br  Br62  1  0.17438974  0.78583133  0.53110403  1
  Br  Br63  1  0.67438974  0.21416867  0.96889597  1
