# generated using pymatgen
data_Si2CN4
_symmetry_space_group_name_H-M   'P 1'
_cell_length_a   4.84964611
_cell_length_b   5.47325340
_cell_length_c   7.37342482
_cell_angle_alpha   90.00000000
_cell_angle_beta   109.19958459
_cell_angle_gamma   90.00000000
_symmetry_Int_Tables_number   1
_chemical_formula_structural   Si2CN4
_chemical_formula_sum   'Si4 C2 N8'
_cell_volume   184.82940608
_cell_formula_units_Z   2
loop_
 _symmetry_equiv_pos_site_id
 _symmetry_equiv_pos_as_xyz
  1  'x, y, z'
loop_
 _atom_site_type_symbol
 _atom_site_label
 _atom_site_symmetry_multiplicity
 _atom_site_fract_x
 _atom_site_fract_y
 _atom_site_fract_z
 _atom_site_occupancy
  Si  Si0  1  0.23271253  0.59741391  0.59510483  1
  Si  Si1  1  0.63760671  0.40258609  0.40489517  1
  Si  Si2  1  0.73271253  0.90258609  0.59510483  1
  Si  Si3  1  0.13760671  0.09741391  0.40489517  1
  C  C4  1  0.48348331  0.50000000  0.00000000  1
  C  C5  1  0.98348331  -0.00000000  0.00000000  1
  N  N6  1  0.40376757  0.53093418  0.82880851  1
  N  N7  1  0.57495907  0.46906582  0.17119149  1
  N  N8  1  0.36126739  0.87404216  0.54306697  1
  N  N9  1  0.81820042  0.12595784  0.45693303  1
  N  N10  1  0.86126739  0.62595784  0.54306697  1
  N  N11  1  0.31820042  0.37404216  0.45693303  1
  N  N12  1  0.07495907  0.03093418  0.17119149  1
  N  N13  1  0.90376757  0.96906582  0.82880851  1
