# generated using pymatgen
data_RbNbO3
_symmetry_space_group_name_H-M   'P 1'
_cell_length_a   5.14568614
_cell_length_b   8.47244410
_cell_length_c   8.99156409
_cell_angle_alpha   114.21007651
_cell_angle_beta   93.50123908
_cell_angle_gamma   94.76049878
_symmetry_Int_Tables_number   1
_chemical_formula_structural   RbNbO3
_chemical_formula_sum   'Rb4 Nb4 O12'
_cell_volume   354.33464490
_cell_formula_units_Z   4
loop_
 _symmetry_equiv_pos_site_id
 _symmetry_equiv_pos_as_xyz
  1  'x, y, z'
loop_
 _atom_site_type_symbol
 _atom_site_label
 _atom_site_symmetry_multiplicity
 _atom_site_fract_x
 _atom_site_fract_y
 _atom_site_fract_z
 _atom_site_occupancy
  Rb  Rb0  1  0.50000000  0.50000000  0.00000000  1
  Rb  Rb1  1  0.50000000  0.50000000  0.50000000  1
  Rb  Rb2  1  0.91123592  0.20223709  0.59530149  1
  Rb  Rb3  1  0.08876408  0.79776291  0.40469851  1
  Nb  Nb4  1  0.99697640  0.78258089  0.85543761  1
  Nb  Nb5  1  0.00302360  0.21741911  0.14456239  1
  Nb  Nb6  1  0.47419148  0.98803485  0.18774282  1
  Nb  Nb7  1  0.52580852  0.01196515  0.81225718  1
  O  O8  1  0.15326557  0.44124066  0.23023833  1
  O  O9  1  0.84673443  0.55875934  0.76976167  1
  O  O10  1  0.59866654  0.89006059  0.31802174  1
  O  O11  1  0.40133346  0.10993941  0.68197826  1
  O  O12  1  0.21635456  0.78261415  0.04360727  1
  O  O13  1  0.78364544  0.21738585  0.95639273  1
  O  O14  1  0.71544360  0.22050214  0.27459657  1
  O  O15  1  0.28455640  0.77949786  0.72540343  1
  O  O16  1  0.79698280  0.87510605  0.70279300  1
  O  O17  1  0.20301720  0.12489395  0.29720700  1
  O  O18  1  0.73635996  0.92506411  0.00919804  1
  O  O19  1  0.26364004  0.07493589  0.99080196  1
