# generated using pymatgen
data_Ba(NdSe2)2
_symmetry_space_group_name_H-M   'P 1'
_cell_length_a   7.98226939
_cell_length_b   7.98249135
_cell_length_c   7.98263101
_cell_angle_alpha   109.38194986
_cell_angle_beta   109.37852844
_cell_angle_gamma   109.65260189
_symmetry_Int_Tables_number   1
_chemical_formula_structural   Ba(NdSe2)2
_chemical_formula_sum   'Ba2 Nd4 Se8'
_cell_volume   391.55219552
_cell_formula_units_Z   2
loop_
 _symmetry_equiv_pos_site_id
 _symmetry_equiv_pos_as_xyz
  1  'x, y, z'
loop_
 _atom_site_type_symbol
 _atom_site_label
 _atom_site_symmetry_multiplicity
 _atom_site_fract_x
 _atom_site_fract_y
 _atom_site_fract_z
 _atom_site_occupancy
  Ba  Ba0  1  0.50000123  0.50000244  0.00000253  1
  Ba  Ba1  1  0.75000794  0.25000163  0.50000087  1
  Nd  Nd2  1  0.62503698  0.99637148  0.87131071  1
  Nd  Nd3  1  0.00363353  0.87494404  0.62867048  1
  Nd  Nd4  1  0.12504878  0.75371585  0.12868611  1
  Nd  Nd5  1  0.24627890  0.37496923  0.37133060  1
  Se  Se6  1  0.35462696  0.10902249  0.09240872  1
  Se  Se7  1  0.35908300  0.10470490  0.59249246  1
  Se  Se8  1  0.73777302  0.64540521  0.75440070  1
  Se  Se9  1  0.89098257  0.98335460  0.24556307  1
  Se  Se10  1  0.51222511  0.76660975  0.40753163  1
  Se  Se11  1  0.89529212  0.48775747  0.25437582  1
  Se  Se12  1  0.23340338  0.64092897  0.74561663  1
  Se  Se13  1  0.01660647  0.26221093  0.90760968  1
