# generated using pymatgen
data_Nd3Sb5O12
_symmetry_space_group_name_H-M   'P 1'
_cell_length_a   9.53755189
_cell_length_b   9.53746249
_cell_length_c   9.53754291
_cell_angle_alpha   109.47100163
_cell_angle_beta   109.47154228
_cell_angle_gamma   109.47106470
_symmetry_Int_Tables_number   1
_chemical_formula_structural   Nd3Sb5O12
_chemical_formula_sum   'Nd6 Sb10 O24'
_cell_volume   667.85880564
_cell_formula_units_Z   2
loop_
 _symmetry_equiv_pos_site_id
 _symmetry_equiv_pos_as_xyz
  1  'x, y, z'
loop_
 _atom_site_type_symbol
 _atom_site_label
 _atom_site_symmetry_multiplicity
 _atom_site_fract_x
 _atom_site_fract_y
 _atom_site_fract_z
 _atom_site_occupancy
  Nd  Nd0  1  0.74999639  0.25000015  0.49999697  1
  Nd  Nd1  1  0.74999630  0.49999990  0.24999896  1
  Nd  Nd2  1  0.24999972  0.49999996  0.74999672  1
  Nd  Nd3  1  0.50000369  0.75000638  0.25000070  1
  Nd  Nd4  1  0.49999701  0.25000043  0.74999742  1
  Nd  Nd5  1  0.25000070  0.75000608  0.50000308  1
  Sb  Sb6  1  -0.00000165  0.50799072  -0.00000047  1
  Sb  Sb7  1  0.50801581  0.00000261  -0.00000067  1
  Sb  Sb8  1  0.00000019  0.00000280  0.50801620  1
  Sb  Sb9  1  0.49198652  0.49200267  0.49198685  1
  Sb  Sb10  1  0.00000299  0.72128967  0.72130195  1
  Sb  Sb11  1  -0.00000169  0.27870508  0.27870651  1
  Sb  Sb12  1  0.27870997  0.27870806  0.99999750  1
  Sb  Sb13  1  0.72130144  0.72128777  0.00000206  1
  Sb  Sb14  1  0.72129149  -0.00000075  0.72128439  1
  Sb  Sb15  1  0.27870090  -0.00000322  0.27870046  1
  O  O16  1  0.80411007  0.80411064  0.27555678  1
  O  O17  1  0.52855329  0.72445104  0.52855398  1
  O  O18  1  0.72444208  0.52855938  0.52855506  1
  O  O19  1  0.00000066  0.47143528  0.19588922  1
  O  O20  1  0.47144640  0.99999803  0.19588774  1
  O  O21  1  0.19588984  0.47143438  0.99999939  1
  O  O22  1  0.47144609  0.19589076  0.00000022  1
  O  O23  1  0.19588794  0.99999895  0.47144677  1
  O  O24  1  0.80411242  0.27554629  0.80411219  1
  O  O25  1  0.27555612  0.80410881  0.80410965  1
  O  O26  1  0.00000077  0.19589306  0.47144771  1
  O  O27  1  0.52855395  0.52855852  0.72444161  1
  O  O28  1  0.29191561  0.29191654  0.80364110  1
  O  O29  1  0.48827825  0.19636011  0.48827836  1
  O  O30  1  0.19636149  0.48827968  0.48827848  1
  O  O31  1  -0.00000109  0.51172879  0.70808305  1
  O  O32  1  0.48827479  0.48827700  0.19635827  1
  O  O33  1  -0.00000082  0.70808337  0.51172291  1
  O  O34  1  0.80363996  0.29191749  0.29191765  1
  O  O35  1  0.29191541  0.80363946  0.29191555  1
  O  O36  1  0.70808491  0.00000234  0.51173008  1
  O  O37  1  0.51171915  0.70808085  -0.00000260  1
  O  O38  1  0.70808279  0.51172889  -0.00000081  1
  O  O39  1  0.51172914  0.00000203  0.70808701  1
