# generated using pymatgen
data_Ba(LaS2)2
_symmetry_space_group_name_H-M   'P 1'
_cell_length_a   7.77267774
_cell_length_b   7.77255472
_cell_length_c   7.77254785
_cell_angle_alpha   109.29155036
_cell_angle_beta   109.29308453
_cell_angle_gamma   109.82925749
_symmetry_Int_Tables_number   1
_chemical_formula_structural   Ba(LaS2)2
_chemical_formula_sum   'Ba2 La4 S8'
_cell_volume   361.46410730
_cell_formula_units_Z   2
loop_
 _symmetry_equiv_pos_site_id
 _symmetry_equiv_pos_as_xyz
  1  'x, y, z'
loop_
 _atom_site_type_symbol
 _atom_site_label
 _atom_site_symmetry_multiplicity
 _atom_site_fract_x
 _atom_site_fract_y
 _atom_site_fract_z
 _atom_site_occupancy
  Ba  Ba0  1  0.49999551  0.49999907  -0.00000147  1
  Ba  Ba1  1  0.75000073  0.25000793  0.50001123  1
  La  La2  1  0.62496603  -0.00007455  0.87493383  1
  La  La3  1  0.00008839  0.87502820  0.62505352  1
  La  La4  1  0.12499259  0.75002491  0.12503974  1
  La  La5  1  0.24996455  0.37500702  0.37495844  1
  S  S6  1  0.89051388  0.98334379  0.24595950  1
  S  S7  1  0.73739090  0.64454705  0.75404882  1
  S  S8  1  0.51261593  0.76671411  0.40722358  1
  S  S9  1  0.89461682  0.48738209  0.25409491  1
  S  S10  1  0.23327249  0.64050548  0.74590585  1
  S  S11  1  0.35544022  0.10949493  0.09284076  1
  S  S12  1  0.01666485  0.26262705  0.90717290  1
  S  S13  1  0.35947810  0.10539293  0.59275740  1
