# generated using pymatgen
data_K4P21I
_symmetry_space_group_name_H-M   'P 1'
_cell_length_a   12.74503530
_cell_length_b   12.74503530
_cell_length_c   9.81020825
_cell_angle_alpha   90.00000000
_cell_angle_beta   90.00000000
_cell_angle_gamma   118.11537296
_symmetry_Int_Tables_number   1
_chemical_formula_structural   K4P21I
_chemical_formula_sum   'K8 P42 I2'
_cell_volume   1405.49441026
_cell_formula_units_Z   2
loop_
 _symmetry_equiv_pos_site_id
 _symmetry_equiv_pos_as_xyz
  1  'x, y, z'
loop_
 _atom_site_type_symbol
 _atom_site_label
 _atom_site_symmetry_multiplicity
 _atom_site_fract_x
 _atom_site_fract_y
 _atom_site_fract_z
 _atom_site_occupancy
  K  K0  1  0.24589721  0.06954762  0.25000000  1
  K  K1  1  0.75410279  0.93045238  0.75000000  1
  K  K2  1  0.06954762  0.24589721  0.25000000  1
  K  K3  1  0.93045238  0.75410279  0.75000000  1
  K  K4  1  0.37938004  0.62061996  0.50000000  1
  K  K5  1  0.62061996  0.37938004  -0.00000000  1
  K  K6  1  0.62061996  0.37938004  0.50000000  1
  K  K7  1  0.37938004  0.62061996  -0.00000000  1
  P  P8  1  0.96086356  0.96086356  0.25000000  1
  P  P9  1  0.03913644  0.03913644  0.75000000  1
  P  P10  1  0.66417364  0.20995422  0.25000000  1
  P  P11  1  0.33582636  0.79004578  0.75000000  1
  P  P12  1  0.20995422  0.66417364  0.25000000  1
  P  P13  1  0.79004578  0.33582636  0.75000000  1
  P  P14  1  0.31021982  0.00785995  0.92410676  1
  P  P15  1  0.68978018  0.99214005  0.42410676  1
  P  P16  1  0.00785995  0.31021982  0.57589324  1
  P  P17  1  0.99214005  0.68978018  0.07589324  1
  P  P18  1  0.05993533  0.50224983  0.91633896  1
  P  P19  1  0.94006467  0.49775017  0.41633896  1
  P  P20  1  0.50224983  0.05993533  0.58366104  1
  P  P21  1  0.49775017  0.94006467  0.08366104  1
  P  P22  1  0.94006467  0.49775017  0.08366104  1
  P  P23  1  0.05993533  0.50224983  0.58366104  1
  P  P24  1  0.49775017  0.94006467  0.41633896  1
  P  P25  1  0.50224983  0.05993533  0.91633896  1
  P  P26  1  0.14648613  0.14648613  0.91374328  1
  P  P27  1  0.85351387  0.85351387  0.41374328  1
  P  P28  1  0.14648613  0.14648613  0.58625672  1
  P  P29  1  0.85351387  0.85351387  0.08625672  1
  P  P30  1  0.94523792  0.50669756  0.75000000  1
  P  P31  1  0.05476208  0.49330244  0.25000000  1
  P  P32  1  0.50669756  0.94523792  0.75000000  1
  P  P33  1  0.49330244  0.05476208  0.25000000  1
  P  P34  1  0.87991661  0.23053779  0.75000000  1
  P  P35  1  0.12008339  0.76946221  0.25000000  1
  P  P36  1  0.23053779  0.87991661  0.75000000  1
  P  P37  1  0.76946221  0.12008339  0.25000000  1
  P  P38  1  0.18125354  0.33005092  0.86501393  1
  P  P39  1  0.81874646  0.66994908  0.36501393  1
  P  P40  1  0.33005092  0.18125354  0.63498607  1
  P  P41  1  0.66994908  0.81874646  0.13498607  1
  P  P42  1  0.81874646  0.66994908  0.13498607  1
  P  P43  1  0.18125354  0.33005092  0.63498607  1
  P  P44  1  0.66994908  0.81874646  0.36501393  1
  P  P45  1  0.33005092  0.18125354  0.86501393  1
  P  P46  1  0.00785995  0.31021982  0.92410676  1
  P  P47  1  0.99214005  0.68978018  0.42410676  1
  P  P48  1  0.31021982  0.00785995  0.57589324  1
  P  P49  1  0.68978018  0.99214005  0.07589324  1
  I  I50  1  0.39814928  0.39814928  0.25000000  1
  I  I51  1  0.60185072  0.60185072  0.75000000  1
