# generated using pymatgen
data_Pr2S3
_symmetry_space_group_name_H-M   'P 1'
_cell_length_a   22.49946715
_cell_length_b   8.67062568
_cell_length_c   8.67062479
_cell_angle_alpha   89.99629802
_cell_angle_beta   54.68455391
_cell_angle_gamma   54.68454333
_symmetry_Int_Tables_number   1
_chemical_formula_structural   Pr2S3
_chemical_formula_sum   'Pr16 S24'
_cell_volume   974.18821994
_cell_formula_units_Z   8
loop_
 _symmetry_equiv_pos_site_id
 _symmetry_equiv_pos_as_xyz
  1  'x, y, z'
loop_
 _atom_site_type_symbol
 _atom_site_label
 _atom_site_symmetry_multiplicity
 _atom_site_fract_x
 _atom_site_fract_y
 _atom_site_fract_z
 _atom_site_occupancy
  Pr  Pr0  1  0.16666960  0.24998562  0.13019539  1
  Pr  Pr1  1  0.99452748  0.61913167  0.74938120  1
  Pr  Pr2  1  0.08604601  0.12091216  0.87089421  1
  Pr  Pr3  1  0.16665054  0.75003272  0.36982333  1
  Pr  Pr4  1  0.24727701  0.37911203  0.62910875  1
  Pr  Pr5  1  0.33882158  0.88083087  0.23300506  1
  Pr  Pr6  1  0.49452748  0.24938120  0.11913167  1
  Pr  Pr7  1  0.33880280  0.60270531  0.75059891  1
  Pr  Pr8  1  0.49451611  0.76704052  0.39730477  1
  Pr  Pr9  1  0.58604601  0.37089421  0.62091216  1
  Pr  Pr10  1  0.83880280  0.25059891  0.10270531  1
  Pr  Pr11  1  0.66665054  0.86982333  0.25003272  1
  Pr  Pr12  1  0.66666960  0.63019539  0.74998562  1
  Pr  Pr13  1  0.74727701  0.12910875  0.87911203  1
  Pr  Pr14  1  0.83882158  0.73300506  0.38083087  1
  Pr  Pr15  1  0.99451611  0.89730477  0.26704052  1
  S  S16  1  0.12716022  0.98650293  0.12709657  1
  S  S17  1  0.05008476  0.49818764  0.99545453  1
  S  S18  1  0.12711329  0.13212179  0.49142567  1
  S  S19  1  0.20616628  0.51350825  0.00866859  1
  S  S20  1  0.20620754  0.36792680  0.37288110  1
  S  S21  1  0.05001526  0.85165287  0.85436532  1
  S  S22  1  0.28331261  0.00172104  0.64562280  1
  S  S23  1  0.44950488  0.99553051  0.15603438  1
  S  S24  1  0.38380859  0.50464624  0.00449708  1
  S  S25  1  0.28331717  0.64837144  0.50442842  1
  S  S26  1  0.44948155  0.15593718  0.49539728  1
  S  S27  1  0.55008476  0.49545453  0.99818764  1
  S  S28  1  0.55001526  0.35436532  0.35165287  1
  S  S29  1  0.38385271  0.84390608  0.84405898  1
  S  S30  1  0.62711329  0.99142567  0.63212179  1
  S  S31  1  0.78331717  0.00442842  0.14837144  1
  S  S32  1  0.70616628  0.50866859  0.01350825  1
  S  S33  1  0.62716022  0.62709657  0.48650293  1
  S  S34  1  0.78331261  0.14562280  0.50172104  1
  S  S35  1  0.88380859  0.50449708  0.00464624  1
  S  S36  1  0.88385271  0.34405898  0.34390608  1
  S  S37  1  0.70620754  0.87288110  0.86792680  1
  S  S38  1  0.94948155  0.99539728  0.65593718  1
  S  S39  1  0.94950488  0.65603438  0.49553051  1
