# generated using pymatgen
data_PrPS4
_symmetry_space_group_name_H-M   'P 1'
_cell_length_a   12.48033240
_cell_length_b   12.48025799
_cell_length_c   12.48034793
_cell_angle_alpha   127.66496700
_cell_angle_beta   127.66502903
_cell_angle_gamma   77.16800270
_symmetry_Int_Tables_number   1
_chemical_formula_structural   PrPS4
_chemical_formula_sum   'Pr8 P8 S32'
_cell_volume   1182.07355123
_cell_formula_units_Z   8
loop_
 _symmetry_equiv_pos_site_id
 _symmetry_equiv_pos_as_xyz
  1  'x, y, z'
loop_
 _atom_site_type_symbol
 _atom_site_label
 _atom_site_symmetry_multiplicity
 _atom_site_fract_x
 _atom_site_fract_y
 _atom_site_fract_z
 _atom_site_occupancy
  Pr  Pr0  1  0.50000143  0.50000098  0.00000216  1
  Pr  Pr1  1  0.24999802  0.74999758  0.49999620  1
  Pr  Pr2  1  0.74999903  0.25000172  0.50000023  1
  Pr  Pr3  1  0.00000016  -0.00000208  -0.00000227  1
  Pr  Pr4  1  0.25000034  0.24999785  -0.00000070  1
  Pr  Pr5  1  0.00000005  0.49999747  0.49999825  1
  Pr  Pr6  1  0.49999820  0.00000080  0.49999811  1
  Pr  Pr7  1  0.74999999  0.75000336  0.00000319  1
  P  P8  1  0.62499505  0.91265050  0.78765299  1
  P  P9  1  0.62500099  0.41264644  0.28764572  1
  P  P10  1  0.16265151  0.37500393  0.28765167  1
  P  P11  1  0.08734690  0.87499851  0.71234442  1
  P  P12  1  0.12500265  0.33734434  0.71234701  1
  P  P13  1  0.12499544  0.83734965  0.21235528  1
  P  P14  1  0.58735301  0.87500169  0.21235022  1
  P  P15  1  0.66265669  0.37500468  0.78765387  1
  S  S16  1  0.98638568  0.71727474  0.45701329  1
  S  S17  1  0.26026163  0.52938312  0.54298951  1
  S  S18  1  0.27938224  0.23638338  0.76911130  1
  S  S19  1  0.46727486  0.51026287  0.23087891  1
  S  S20  1  0.98973268  0.03272500  0.76911220  1
  S  S21  1  0.26361053  0.22062044  0.23088784  1
  S  S22  1  0.78272587  0.51360894  0.54297829  1
  S  S23  1  0.97062286  0.23973299  0.45700896  1
  S  S24  1  0.60574484  0.78725488  0.31506856  1
  S  S25  1  0.53725729  0.72218286  0.68151444  1
  S  S26  1  0.04067236  0.85575347  0.31850065  1
  S  S27  1  0.64425294  0.45933126  0.68151088  1
  S  S28  1  0.77781985  0.96274489  0.31849473  1
  S  S29  1  0.20931728  0.02781215  0.31506156  1
  S  S30  1  0.71273760  0.89426201  0.68493145  1
  S  S31  1  0.47219336  0.29067491  0.68493726  1
  S  S32  1  0.14425713  0.46274501  0.18492638  1
  S  S33  1  0.21273970  0.52781133  0.81848447  1
  S  S34  1  0.70932613  0.39424579  0.18150461  1
  S  S35  1  0.10574651  0.79067063  0.81848451  1
  S  S36  1  0.97218729  0.28726239  0.18151394  1
  S  S37  1  0.54067413  0.22218307  0.18493288  1
  S  S38  1  0.03725971  0.35573863  0.81507043  1
  S  S39  1  0.27781253  0.95932624  0.81506520  1
  S  S40  1  0.48973613  0.72062277  0.95701020  1
  S  S41  1  0.47061586  0.01361182  0.73088823  1
  S  S42  1  0.28272687  0.73973840  0.26912250  1
  S  S43  1  0.76026501  0.21727367  0.73088078  1
  S  S44  1  0.48639342  0.02938327  0.26911912  1
  S  S45  1  0.96727287  0.73638520  0.95702297  1
  S  S46  1  0.77937713  0.01026662  0.04299156  1
  S  S47  1  0.76361624  0.53272582  0.04298604  1
