# generated using pymatgen
data_Sr2Nb2O7
_symmetry_space_group_name_H-M   'P 1'
_cell_length_a   13.64793068
_cell_length_b   13.64793068
_cell_length_c   5.76557783
_cell_angle_alpha   90.00000000
_cell_angle_beta   90.00000000
_cell_angle_gamma   163.18073381
_symmetry_Int_Tables_number   1
_chemical_formula_structural   Sr2Nb2O7
_chemical_formula_sum   'Sr4 Nb4 O14'
_cell_volume   310.74594948
_cell_formula_units_Z   2
loop_
 _symmetry_equiv_pos_site_id
 _symmetry_equiv_pos_as_xyz
  1  'x, y, z'
loop_
 _atom_site_type_symbol
 _atom_site_label
 _atom_site_symmetry_multiplicity
 _atom_site_fract_x
 _atom_site_fract_y
 _atom_site_fract_z
 _atom_site_occupancy
  Sr  Sr0  1  0.29227939  0.70772061  0.03833928  1
  Sr  Sr1  1  0.70772061  0.29227939  0.53833928  1
  Sr  Sr2  1  0.44862919  0.55137081  0.47086721  1
  Sr  Sr3  1  0.55137081  0.44862919  0.97086721  1
  Nb  Nb4  1  0.83818974  0.16181026  0.50263112  1
  Nb  Nb5  1  0.16181026  0.83818974  0.00263112  1
  Nb  Nb6  1  0.05823470  0.94176530  0.47114390  1
  Nb  Nb7  1  0.94176530  0.05823470  0.97114390  1
  O  O8  1  0.45166091  0.54833909  0.94334317  1
  O  O9  1  0.54833909  0.45166091  0.44334317  1
  O  O10  1  0.90790494  0.09209506  0.66335283  1
  O  O11  1  0.09209506  0.90790494  0.16335283  1
  O  O12  1  0.80014635  0.19985365  0.76774056  1
  O  O13  1  0.19985365  0.80014635  0.26774056  1
  O  O14  1  0.21531953  0.78468047  0.79081469  1
  O  O15  1  0.78468047  0.21531953  0.29081469  1
  O  O16  1  0.99175268  0.00824732  0.22279418  1
  O  O17  1  0.00824732  0.99175268  0.72279418  1
  O  O18  1  0.88836989  0.11163011  0.17256826  1
  O  O19  1  0.11163011  0.88836989  0.67256826  1
  O  O20  1  0.34935227  0.65064773  0.46652480  1
  O  O21  1  0.65064773  0.34935227  0.96652480  1
