# generated using pymatgen
data_Mg3H4O5
_symmetry_space_group_name_H-M   'P 1'
_cell_length_a   3.08191121
_cell_length_b   3.08191100
_cell_length_c   11.91430715
_cell_angle_alpha   90.00032370
_cell_angle_beta   89.99968259
_cell_angle_gamma   119.99901910
_symmetry_Int_Tables_number   1
_chemical_formula_structural   Mg3H4O5
_chemical_formula_sum   'Mg3 H4 O5'
_cell_volume   98.00402946
_cell_formula_units_Z   1
loop_
 _symmetry_equiv_pos_site_id
 _symmetry_equiv_pos_as_xyz
  1  'x, y, z'
loop_
 _atom_site_type_symbol
 _atom_site_label
 _atom_site_symmetry_multiplicity
 _atom_site_fract_x
 _atom_site_fract_y
 _atom_site_fract_z
 _atom_site_occupancy
  Mg  Mg0  1  0.33332923  0.66667054  0.10181288  1
  Mg  Mg1  1  0.66667020  0.33332932  0.89818711  1
  Mg  Mg2  1  0.00000010  -0.00000020  0.49999999  1
  H  H3  1  0.66667143  0.33332878  0.27064722  1
  H  H4  1  0.33332837  0.66667118  0.72935292  1
  H  H5  1  0.33333600  0.66666474  0.33146411  1
  H  H6  1  0.66666406  0.33333561  0.66853570  1
  O  O7  1  0.66665861  0.33334141  0.58791769  1
  O  O8  1  0.33334142  0.66665891  0.41208211  1
  O  O9  1  0.33332709  0.66667222  0.81015131  1
  O  O10  1  0.99999988  0.99999992  0.00000005  1
  O  O11  1  0.66667261  0.33332757  0.18984892  1
