# generated using pymatgen
data_SmRhO3
_symmetry_space_group_name_H-M   'P 1'
_cell_length_a   5.29624651
_cell_length_b   5.82438090
_cell_length_c   7.70683536
_cell_angle_alpha   90.00000000
_cell_angle_beta   90.00000000
_cell_angle_gamma   90.00000000
_symmetry_Int_Tables_number   1
_chemical_formula_structural   SmRhO3
_chemical_formula_sum   'Sm4 Rh4 O12'
_cell_volume   237.73550180
_cell_formula_units_Z   4
loop_
 _symmetry_equiv_pos_site_id
 _symmetry_equiv_pos_as_xyz
  1  'x, y, z'
loop_
 _atom_site_type_symbol
 _atom_site_label
 _atom_site_symmetry_multiplicity
 _atom_site_fract_x
 _atom_site_fract_y
 _atom_site_fract_z
 _atom_site_occupancy
  Sm  Sm0  1  0.47224408  0.58069394  0.75000000  1
  Sm  Sm1  1  0.97224408  0.91930606  0.25000000  1
  Sm  Sm2  1  0.02775592  0.08069394  0.75000000  1
  Sm  Sm3  1  0.52775592  0.41930606  0.25000000  1
  Rh  Rh4  1  0.50000000  -0.00000000  0.50000000  1
  Rh  Rh5  1  -0.00000000  0.50000000  0.50000000  1
  Rh  Rh6  1  -0.00000000  0.50000000  0.00000000  1
  Rh  Rh7  1  0.50000000  -0.00000000  0.00000000  1
  O  O8  1  0.81955348  0.19349432  0.44418807  1
  O  O9  1  0.31955348  0.30650568  0.55581193  1
  O  O10  1  0.68044652  0.69349432  0.05581193  1
  O  O11  1  0.18044652  0.80650568  0.94418807  1
  O  O12  1  0.18044652  0.80650568  0.55581193  1
  O  O13  1  0.68044652  0.69349432  0.44418807  1
  O  O14  1  0.31955348  0.30650568  0.94418807  1
  O  O15  1  0.81955348  0.19349432  0.05581193  1
  O  O16  1  0.38122409  0.04055915  0.25000000  1
  O  O17  1  0.88122409  0.45944085  0.75000000  1
  O  O18  1  0.11877591  0.54055915  0.25000000  1
  O  O19  1  0.61877591  0.95944085  0.75000000  1
