# generated using pymatgen
data_TiCl4
_symmetry_space_group_name_H-M   'P 1'
_cell_length_a   6.60596276
_cell_length_b   9.87904126
_cell_length_c   9.86821495
_cell_angle_alpha   102.07347891
_cell_angle_beta   90.00000000
_cell_angle_gamma   90.00000000
_symmetry_Int_Tables_number   1
_chemical_formula_structural   TiCl4
_chemical_formula_sum   'Ti4 Cl16'
_cell_volume   629.76012137
_cell_formula_units_Z   4
loop_
 _symmetry_equiv_pos_site_id
 _symmetry_equiv_pos_as_xyz
  1  'x, y, z'
loop_
 _atom_site_type_symbol
 _atom_site_label
 _atom_site_symmetry_multiplicity
 _atom_site_fract_x
 _atom_site_fract_y
 _atom_site_fract_z
 _atom_site_occupancy
  Ti  Ti0  1  0.57622765  0.74846203  0.36840553  1
  Ti  Ti1  1  0.07622765  0.25153797  0.13159447  1
  Ti  Ti2  1  0.42377235  0.25153797  0.63159447  1
  Ti  Ti3  1  0.92377235  0.74846203  0.86840553  1
  Cl  Cl4  1  0.57482090  0.57133343  0.19497846  1
  Cl  Cl5  1  0.07482090  0.42866657  0.30502154  1
  Cl  Cl6  1  0.42517910  0.42866657  0.80502154  1
  Cl  Cl7  1  0.92517910  0.57133343  0.69497846  1
  Cl  Cl8  1  0.61294465  0.80784260  0.92498812  1
  Cl  Cl9  1  0.11294465  0.19215740  0.57501188  1
  Cl  Cl10  1  0.38705535  0.19215740  0.07501188  1
  Cl  Cl11  1  0.88705535  0.80784260  0.42498812  1
  Cl  Cl12  1  0.07964523  0.92028579  0.80680654  1
  Cl  Cl13  1  0.57964523  0.07971421  0.69319346  1
  Cl  Cl14  1  0.92035477  0.07971421  0.19319346  1
  Cl  Cl15  1  0.42035477  0.92028579  0.30680654  1
  Cl  Cl16  1  0.07816209  0.69341140  0.04401029  1
  Cl  Cl17  1  0.57816209  0.30658860  0.45598971  1
  Cl  Cl18  1  0.92183791  0.30658860  0.95598971  1
  Cl  Cl19  1  0.42183791  0.69341140  0.54401029  1
