# generated using pymatgen
data_La2CuS4
_symmetry_space_group_name_H-M   'P 1'
_cell_length_a   7.57804436
_cell_length_b   7.74993030
_cell_length_c   10.90141497
_cell_angle_alpha   75.46525323
_cell_angle_beta   90.00000000
_cell_angle_gamma   90.00000000
_symmetry_Int_Tables_number   1
_chemical_formula_structural   La2CuS4
_chemical_formula_sum   'La8 Cu4 S16'
_cell_volume   619.74239137
_cell_formula_units_Z   4
loop_
 _symmetry_equiv_pos_site_id
 _symmetry_equiv_pos_as_xyz
  1  'x, y, z'
loop_
 _atom_site_type_symbol
 _atom_site_label
 _atom_site_symmetry_multiplicity
 _atom_site_fract_x
 _atom_site_fract_y
 _atom_site_fract_z
 _atom_site_occupancy
  La  La0  1  0.29710421  0.05971505  0.13947484  1
  La  La1  1  0.79710421  0.94028495  0.36052516  1
  La  La2  1  0.70289579  0.94028495  0.86052516  1
  La  La3  1  0.20289579  0.05971505  0.63947484  1
  La  La4  1  0.62517453  0.52885368  0.67491621  1
  La  La5  1  0.12517453  0.47114632  0.82508379  1
  La  La6  1  0.37482547  0.47114632  0.32508379  1
  La  La7  1  0.87482547  0.52885368  0.17491621  1
  Cu  Cu8  1  0.61350628  0.32296864  0.99539897  1
  Cu  Cu9  1  0.11350628  0.67703136  0.50460103  1
  Cu  Cu10  1  0.38649372  0.67703136  0.00460103  1
  Cu  Cu11  1  0.88649372  0.32296864  0.49539897  1
  S  S12  1  0.94515278  0.10989335  0.02587392  1
  S  S13  1  0.44515278  0.89010665  0.47412608  1
  S  S14  1  0.05484722  0.89010665  0.97412608  1
  S  S15  1  0.55484722  0.10989335  0.52587392  1
  S  S16  1  0.06887083  0.20863646  0.37431456  1
  S  S17  1  0.56887083  0.79136354  0.12568544  1
  S  S18  1  0.93112917  0.79136354  0.62568544  1
  S  S19  1  0.43112917  0.20863646  0.87431456  1
  S  S20  1  0.60466927  0.24732078  0.20680798  1
  S  S21  1  0.10466927  0.75267922  0.29319202  1
  S  S22  1  0.39533073  0.75267922  0.79319202  1
  S  S23  1  0.89533073  0.24732078  0.70680798  1
  S  S24  1  0.78720419  0.55309781  0.91338364  1
  S  S25  1  0.28720419  0.44690219  0.58661636  1
  S  S26  1  0.21279581  0.44690219  0.08661636  1
  S  S27  1  0.71279581  0.55309781  0.41338364  1
