# generated using pymatgen
data_KBO2
_symmetry_space_group_name_H-M   'P 1'
_cell_length_a   7.74682230
_cell_length_b   7.74682230
_cell_length_c   7.74682193
_cell_angle_alpha   110.82586610
_cell_angle_beta   110.82586610
_cell_angle_gamma   110.82584605
_symmetry_Int_Tables_number   1
_chemical_formula_structural   KBO2
_chemical_formula_sum   'K6 B6 O12'
_cell_volume   338.75451880
_cell_formula_units_Z   6
loop_
 _symmetry_equiv_pos_site_id
 _symmetry_equiv_pos_as_xyz
  1  'x, y, z'
loop_
 _atom_site_type_symbol
 _atom_site_label
 _atom_site_symmetry_multiplicity
 _atom_site_fract_x
 _atom_site_fract_y
 _atom_site_fract_z
 _atom_site_occupancy
  K  K0  1  0.31150986  0.75000000  0.18849014  1
  K  K1  1  0.18849014  0.31150986  0.75000000  1
  K  K2  1  0.75000000  0.18849014  0.31150986  1
  K  K3  1  0.68849014  0.25000000  0.81150986  1
  K  K4  1  0.81150986  0.68849014  0.25000000  1
  K  K5  1  0.25000000  0.81150986  0.68849014  1
  B  B6  1  0.36349137  0.25000000  0.13650863  1
  B  B7  1  0.63650863  0.75000000  0.86349137  1
  B  B8  1  0.86349137  0.63650863  0.75000000  1
  B  B9  1  0.75000000  0.86349137  0.63650863  1
  B  B10  1  0.13650863  0.36349137  0.25000000  1
  B  B11  1  0.25000000  0.13650863  0.36349137  1
  O  O12  1  0.25000000  0.35837693  0.14162307  1
  O  O13  1  0.35837693  0.14162307  0.25000000  1
  O  O14  1  0.85837693  0.75000000  0.64162307  1
  O  O15  1  0.14162307  0.25000000  0.35837693  1
  O  O16  1  0.75000000  0.64162307  0.85837693  1
  O  O17  1  0.64162307  0.85837693  0.75000000  1
  O  O18  1  0.25000000  0.03341099  0.46658901  1
  O  O19  1  0.03341099  0.46658901  0.25000000  1
  O  O20  1  0.46658901  0.25000000  0.03341099  1
  O  O21  1  0.75000000  0.96658901  0.53341099  1
  O  O22  1  0.96658901  0.53341099  0.75000000  1
  O  O23  1  0.53341099  0.75000000  0.96658901  1
