# generated using pymatgen
data_Na8Al6Si6CO27
_symmetry_space_group_name_H-M   'P 1'
_cell_length_a   8.99240490
_cell_length_b   8.99240490
_cell_length_c   8.99240487
_cell_angle_alpha   90.02790539
_cell_angle_beta   90.02790539
_cell_angle_gamma   90.02790293
_symmetry_Int_Tables_number   1
_chemical_formula_structural   Na8Al6Si6CO27
_chemical_formula_sum   'Na8 Al6 Si6 C1 O27'
_cell_volume   727.15568595
_cell_formula_units_Z   1
loop_
 _symmetry_equiv_pos_site_id
 _symmetry_equiv_pos_as_xyz
  1  'x, y, z'
loop_
 _atom_site_type_symbol
 _atom_site_label
 _atom_site_symmetry_multiplicity
 _atom_site_fract_x
 _atom_site_fract_y
 _atom_site_fract_z
 _atom_site_occupancy
  Na  Na0  1  0.17536071  0.17537343  0.81900293  1
  Na  Na1  1  0.81900293  0.17536071  0.17537343  1
  Na  Na2  1  0.77904515  0.22932058  0.77937678  1
  Na  Na3  1  0.29942148  0.29942148  0.29942148  1
  Na  Na4  1  0.22932058  0.77937678  0.77904515  1
  Na  Na5  1  0.77937678  0.77904515  0.22932058  1
  Na  Na6  1  0.80005209  0.80005209  0.80005209  1
  Na  Na7  1  0.17537343  0.81900293  0.17536071  1
  Al  Al8  1  0.50003367  0.00290695  0.75019167  1
  Al  Al9  1  0.49835680  0.00020776  0.25165886  1
  Al  Al10  1  0.00020776  0.25165886  0.49835680  1
  Al  Al11  1  0.25165886  0.49835680  0.00020776  1
  Al  Al12  1  0.75019167  0.50003367  0.00290695  1
  Al  Al13  1  0.00290695  0.75019167  0.50003367  1
  Si  Si14  1  0.24946398  0.00260502  0.49887658  1
  Si  Si15  1  0.75132804  0.00186034  0.50080331  1
  Si  Si16  1  0.49887658  0.24946398  0.00260502  1
  Si  Si17  1  0.00186034  0.50080331  0.75132804  1
  Si  Si18  1  0.00260502  0.49887658  0.24946398  1
  Si  Si19  1  0.50080331  0.75132804  0.00186034  1
  C  C20  1  0.99434221  0.99434221  0.99434221  1
  O  O21  1  0.34738516  0.05895513  0.35778723  1
  O  O22  1  0.65664250  0.05106177  0.64677616  1
  O  O23  1  0.93603744  0.11263263  0.93621280  1
  O  O24  1  0.44482138  0.15117721  0.86159639  1
  O  O25  1  0.55454097  0.15042993  0.14298433  1
  O  O26  1  0.15042993  0.14298433  0.55454097  1
  O  O27  1  0.85008904  0.14210128  0.44538574  1
  O  O28  1  0.63921517  0.35054784  0.95163049  1
  O  O29  1  0.35778723  0.34738516  0.05895513  1
  O  O30  1  0.94993159  0.36225037  0.64857600  1
  O  O31  1  0.05895513  0.35778723  0.34738516  1
  O  O32  1  0.14210128  0.44538574  0.85008904  1
  O  O33  1  0.86159639  0.44482138  0.15117721  1
  O  O34  1  0.86080267  0.55157310  0.85226835  1
  O  O35  1  0.14298433  0.55454097  0.15042993  1
  O  O36  1  0.95163049  0.63921517  0.35054784  1
  O  O37  1  0.05106177  0.64677616  0.65664250  1
  O  O38  1  0.36225037  0.64857600  0.94993159  1
  O  O39  1  0.64677616  0.65664250  0.05106177  1
  O  O40  1  0.15117721  0.86159639  0.44482138  1
  O  O41  1  0.85226835  0.86080267  0.55157310  1
  O  O42  1  0.55157310  0.85226835  0.86080267  1
  O  O43  1  0.44538574  0.85008904  0.14210128  1
  O  O44  1  0.93621280  0.93603744  0.11263263  1
  O  O45  1  0.11263263  0.93621280  0.93603744  1
  O  O46  1  0.35054784  0.95163049  0.63921517  1
  O  O47  1  0.64857600  0.94993159  0.36225037  1
