# generated using pymatgen
data_GaBH6
_symmetry_space_group_name_H-M   'P 1'
_cell_length_a   8.26473381
_cell_length_b   8.26473381
_cell_length_c   10.19848260
_cell_angle_alpha   60.20583179
_cell_angle_beta   60.20583179
_cell_angle_gamma   67.13750523
_symmetry_Int_Tables_number   1
_chemical_formula_structural   GaBH6
_chemical_formula_sum   'Ga6 B6 H36'
_cell_volume   515.26443657
_cell_formula_units_Z   6
loop_
 _symmetry_equiv_pos_site_id
 _symmetry_equiv_pos_as_xyz
  1  'x, y, z'
loop_
 _atom_site_type_symbol
 _atom_site_label
 _atom_site_symmetry_multiplicity
 _atom_site_fract_x
 _atom_site_fract_y
 _atom_site_fract_z
 _atom_site_occupancy
  Ga  Ga0  1  0.67828931  0.32171069  0.25000000  1
  Ga  Ga1  1  0.32171069  0.67828931  0.75000000  1
  Ga  Ga2  1  0.70052494  0.91982777  0.78969379  1
  Ga  Ga3  1  0.08017223  0.29947506  0.71030621  1
  Ga  Ga4  1  0.29947506  0.08017223  0.21030621  1
  Ga  Ga5  1  0.91982777  0.70052494  0.28969379  1
  B  B6  1  0.83690345  0.16309655  0.75000000  1
  B  B7  1  0.16309655  0.83690345  0.25000000  1
  B  B8  1  0.71588041  0.58880221  0.98790470  1
  B  B9  1  0.41119779  0.28411959  0.51209530  1
  B  B10  1  0.28411959  0.41119779  0.01209530  1
  B  B11  1  0.58880221  0.71588041  0.48790470  1
  H  H12  1  0.83907100  0.99293616  0.84382674  1
  H  H13  1  0.00706384  0.16092900  0.65617326  1
  H  H14  1  0.16092900  0.00706384  0.15617326  1
  H  H15  1  0.99293616  0.83907100  0.34382674  1
  H  H16  1  0.75162461  0.22542066  0.66177074  1
  H  H17  1  0.77457934  0.24837539  0.83822926  1
  H  H18  1  0.24837539  0.77457934  0.33822926  1
  H  H19  1  0.22542066  0.75162461  0.16177074  1
  H  H20  1  0.58755104  0.56433397  0.12685481  1
  H  H21  1  0.43566603  0.41244896  0.37314519  1
  H  H22  1  0.41244896  0.43566603  0.87314519  1
  H  H23  1  0.56433397  0.58755104  0.62685481  1
  H  H24  1  0.88009667  0.83928654  0.13505221  1
  H  H25  1  0.16071346  0.11990333  0.36494779  1
  H  H26  1  0.11990333  0.16071346  0.86494779  1
  H  H27  1  0.83928654  0.88009667  0.63505221  1
  H  H28  1  0.99615306  0.49102305  0.37058008  1
  H  H29  1  0.50897695  0.00384694  0.12941992  1
  H  H30  1  0.00384694  0.50897695  0.62941992  1
  H  H31  1  0.49102305  0.99615306  0.87058008  1
  H  H32  1  0.18185358  0.65705048  0.70509656  1
  H  H33  1  0.34294952  0.81814642  0.79490344  1
  H  H34  1  0.81814642  0.34294952  0.29490344  1
  H  H35  1  0.65705048  0.18185358  0.20509656  1
  H  H36  1  0.46436595  0.85490231  0.47797058  1
  H  H37  1  0.14509769  0.53563405  0.02202942  1
  H  H38  1  0.53563405  0.14509769  0.52202942  1
  H  H39  1  0.85490231  0.46436595  0.97797058  1
  H  H40  1  0.61677259  0.63997187  0.40171597  1
  H  H41  1  0.36002813  0.38322741  0.09828403  1
  H  H42  1  0.38322741  0.36002813  0.59828403  1
  H  H43  1  0.63997187  0.61677259  0.90171597  1
  H  H44  1  0.72560068  0.77079965  0.46334307  1
  H  H45  1  0.22920035  0.27439932  0.03665693  1
  H  H46  1  0.27439932  0.22920035  0.53665693  1
  H  H47  1  0.77079965  0.72560068  0.96334307  1
