# generated using pymatgen
data_Er2(SeO3)3
_symmetry_space_group_name_H-M   'P 1'
_cell_length_a   6.94203229
_cell_length_b   7.96854248
_cell_length_c   8.87581676
_cell_angle_alpha   71.68615933
_cell_angle_beta   70.35648976
_cell_angle_gamma   66.23231363
_symmetry_Int_Tables_number   1
_chemical_formula_structural   Er2(SeO3)3
_chemical_formula_sum   'Er4 Se6 O18'
_cell_volume   413.99880004
_cell_formula_units_Z   2
loop_
 _symmetry_equiv_pos_site_id
 _symmetry_equiv_pos_as_xyz
  1  'x, y, z'
loop_
 _atom_site_type_symbol
 _atom_site_label
 _atom_site_symmetry_multiplicity
 _atom_site_fract_x
 _atom_site_fract_y
 _atom_site_fract_z
 _atom_site_occupancy
  Er  Er0  1  0.33286604  0.72667861  0.59031196  1
  Er  Er1  1  0.66713396  0.27332139  0.40968804  1
  Er  Er2  1  0.74215705  0.73620247  0.79582425  1
  Er  Er3  1  0.25784295  0.26379753  0.20417575  1
  Se  Se4  1  0.42713512  0.77669614  0.19610429  1
  Se  Se5  1  0.57286488  0.22330386  0.80389571  1
  Se  Se6  1  0.14626196  0.75087180  0.96621102  1
  Se  Se7  1  0.85373804  0.24912820  0.03378898  1
  Se  Se8  1  0.88405711  0.75996975  0.40981169  1
  Se  Se9  1  0.11594289  0.24003025  0.59018831  1
  O  O10  1  0.65205135  0.79472501  0.05013446  1
  O  O11  1  0.34794865  0.20527499  0.94986554  1
  O  O12  1  0.35972895  0.94398839  0.30643441  1
  O  O13  1  0.64027105  0.05601161  0.69356559  1
  O  O14  1  0.51799254  0.59375170  0.34975248  1
  O  O15  1  0.48200746  0.40624830  0.65024752  1
  O  O16  1  0.16863604  0.56446939  0.12131575  1
  O  O17  1  0.83136396  0.43553061  0.87868425  1
  O  O18  1  0.40861758  0.71077337  0.85065121  1
  O  O19  1  0.59138242  0.28922663  0.14934879  1
  O  O20  1  0.34723565  0.24869951  0.43880276  1
  O  O21  1  0.65276435  0.75130049  0.56119724  1
  O  O22  1  0.96517006  0.29604721  0.44977211  1
  O  O23  1  0.03482994  0.70395279  0.55022789  1
  O  O24  1  0.15654658  0.01073983  0.65669961  1
  O  O25  1  0.84345342  0.98926017  0.34330039  1
  O  O26  1  0.93263085  0.30862818  0.16807113  1
  O  O27  1  0.06736915  0.69137182  0.83192887  1
