# generated using pymatgen
data_KHS
_symmetry_space_group_name_H-M   'P 1'
_cell_length_a   4.33155473
_cell_length_b   4.33155540
_cell_length_c   4.33155446
_cell_angle_alpha   69.99881740
_cell_angle_beta   69.99881625
_cell_angle_gamma   69.99882951
_symmetry_Int_Tables_number   1
_chemical_formula_structural   KHS
_chemical_formula_sum   'K1 H1 S1'
_cell_volume   69.39249767
_cell_formula_units_Z   1
loop_
 _symmetry_equiv_pos_site_id
 _symmetry_equiv_pos_as_xyz
  1  'x, y, z'
loop_
 _atom_site_type_symbol
 _atom_site_label
 _atom_site_symmetry_multiplicity
 _atom_site_fract_x
 _atom_site_fract_y
 _atom_site_fract_z
 _atom_site_occupancy
  K  K0  1  0.00369838  0.00369838  0.00369838  1
  H  H1  1  0.64266784  0.64266784  0.64266784  1
  S  S2  1  0.50463378  0.50463378  0.50463378  1
