# generated using pymatgen
data_Tl2TeI6
_symmetry_space_group_name_H-M   'P 1'
_cell_length_a   8.51507008
_cell_length_b   7.91627765
_cell_length_c   13.75590537
_cell_angle_alpha   55.41229853
_cell_angle_beta   90.00000000
_cell_angle_gamma   90.00000000
_symmetry_Int_Tables_number   1
_chemical_formula_structural   Tl2TeI6
_chemical_formula_sum   'Tl4 Te2 I12'
_cell_volume   763.36898134
_cell_formula_units_Z   2
loop_
 _symmetry_equiv_pos_site_id
 _symmetry_equiv_pos_as_xyz
  1  'x, y, z'
loop_
 _atom_site_type_symbol
 _atom_site_label
 _atom_site_symmetry_multiplicity
 _atom_site_fract_x
 _atom_site_fract_y
 _atom_site_fract_z
 _atom_site_occupancy
  Tl  Tl0  1  0.90438015  0.28236652  0.24674679  1
  Tl  Tl1  1  0.40438015  0.71763348  0.25325321  1
  Tl  Tl2  1  0.09561985  0.71763348  0.75325321  1
  Tl  Tl3  1  0.59561985  0.28236652  0.74674679  1
  Te  Te4  1  -0.00000000  0.00000000  -0.00000000  1
  Te  Te5  1  0.50000000  0.00000000  0.50000000  1
  I  I6  1  0.20387695  0.22947431  0.45840481  1
  I  I7  1  0.70387695  0.77052569  0.04159519  1
  I  I8  1  0.79612305  0.77052569  0.54159519  1
  I  I9  1  0.29612305  0.22947431  0.95840481  1
  I  I10  1  0.99164562  0.16131481  0.74620997  1
  I  I11  1  0.49164562  0.83868519  0.75379003  1
  I  I12  1  0.00835438  0.83868519  0.25379003  1
  I  I13  1  0.50835438  0.16131481  0.24620997  1
  I  I14  1  0.69030747  0.35370219  0.45302473  1
  I  I15  1  0.19030747  0.64629781  0.04697527  1
  I  I16  1  0.30969253  0.64629781  0.54697527  1
  I  I17  1  0.80969253  0.35370219  0.95302473  1
