# generated using pymatgen
data_NaAsO2
_symmetry_space_group_name_H-M   'P 1'
_cell_length_a   5.05524144
_cell_length_b   6.78585282
_cell_length_c   14.37772037
_cell_angle_alpha   90.00000000
_cell_angle_beta   90.00000000
_cell_angle_gamma   90.00000000
_symmetry_Int_Tables_number   1
_chemical_formula_structural   NaAsO2
_chemical_formula_sum   'Na8 As8 O16'
_cell_volume   493.21510789
_cell_formula_units_Z   8
loop_
 _symmetry_equiv_pos_site_id
 _symmetry_equiv_pos_as_xyz
  1  'x, y, z'
loop_
 _atom_site_type_symbol
 _atom_site_label
 _atom_site_symmetry_multiplicity
 _atom_site_fract_x
 _atom_site_fract_y
 _atom_site_fract_z
 _atom_site_occupancy
  Na  Na0  1  0.24799452  0.10194131  0.94561958  1
  Na  Na1  1  0.74799452  0.39805869  0.94561958  1
  Na  Na2  1  0.25200548  0.10194131  0.44561958  1
  Na  Na3  1  0.75200548  0.89805869  0.05438042  1
  Na  Na4  1  0.75200548  0.39805869  0.44561958  1
  Na  Na5  1  0.25200548  0.60194131  0.05438042  1
  Na  Na6  1  0.74799452  0.89805869  0.55438042  1
  Na  Na7  1  0.24799452  0.60194131  0.55438042  1
  As  As8  1  0.26905128  0.60401824  0.32926505  1
  As  As9  1  0.76905128  0.39598176  0.17073495  1
  As  As10  1  0.23094872  0.10401824  0.67073495  1
  As  As11  1  0.73094872  0.89598176  0.82926505  1
  As  As12  1  0.73094872  0.39598176  0.67073495  1
  As  As13  1  0.23094872  0.60401824  0.82926505  1
  As  As14  1  0.76905128  0.89598176  0.32926505  1
  As  As15  1  0.26905128  0.10401824  0.17073495  1
  O  O16  1  0.07706225  0.30740323  0.11874535  1
  O  O17  1  0.57706225  0.69259677  0.38125465  1
  O  O18  1  0.42293775  0.80740323  0.88125465  1
  O  O19  1  0.92293775  0.19259677  0.61874535  1
  O  O20  1  0.92293775  0.69259677  0.88125465  1
  O  O21  1  0.42293775  0.30740323  0.61874535  1
  O  O22  1  0.57706225  0.19259677  0.11874535  1
  O  O23  1  0.07706225  0.80740323  0.38125465  1
  O  O24  1  0.21342101  0.92855392  0.08822622  1
  O  O25  1  0.71342101  0.07144608  0.41177378  1
  O  O26  1  0.28657899  0.42855392  0.91177378  1
  O  O27  1  0.21342101  0.42855392  0.41177378  1
  O  O28  1  0.78657899  0.07144608  0.91177378  1
  O  O29  1  0.28657899  0.92855392  0.58822622  1
  O  O30  1  0.71342101  0.57144608  0.08822622  1
  O  O31  1  0.78657899  0.57144608  0.58822622  1
