# generated using pymatgen
data_Ba2NbCrO6
_symmetry_space_group_name_H-M   'P 1'
_cell_length_a   5.78184812
_cell_length_b   5.78184812
_cell_length_c   18.97580317
_cell_angle_alpha   90.00000000
_cell_angle_beta   90.00000000
_cell_angle_gamma   120.00000592
_symmetry_Int_Tables_number   1
_chemical_formula_structural   Ba2NbCrO6
_chemical_formula_sum   'Ba8 Nb4 Cr4 O24'
_cell_volume   549.36897671
_cell_formula_units_Z   4
loop_
 _symmetry_equiv_pos_site_id
 _symmetry_equiv_pos_as_xyz
  1  'x, y, z'
loop_
 _atom_site_type_symbol
 _atom_site_label
 _atom_site_symmetry_multiplicity
 _atom_site_fract_x
 _atom_site_fract_y
 _atom_site_fract_z
 _atom_site_occupancy
  Ba  Ba0  1  0.33333300  0.66666700  0.35865777  1
  Ba  Ba1  1  0.66666700  0.33333300  0.85865777  1
  Ba  Ba2  1  0.66666700  0.33333300  0.64134223  1
  Ba  Ba3  1  0.33333300  0.66666700  0.14134223  1
  Ba  Ba4  1  0.66666700  0.33333300  0.25000000  1
  Ba  Ba5  1  0.33333300  0.66666700  0.75000000  1
  Ba  Ba6  1  0.00000000  -0.00000000  0.50000000  1
  Ba  Ba7  1  0.00000000  -0.00000000  0.00000000  1
  Nb  Nb8  1  0.33333300  0.66666700  0.56461959  1
  Nb  Nb9  1  0.66666700  0.33333300  0.06461959  1
  Nb  Nb10  1  0.66666700  0.33333300  0.43538041  1
  Nb  Nb11  1  0.33333300  0.66666700  0.93538041  1
  Cr  Cr12  1  0.00000000  -0.00000000  0.18189692  1
  Cr  Cr13  1  0.00000000  -0.00000000  0.68189692  1
  Cr  Cr14  1  0.00000000  -0.00000000  0.81810308  1
  Cr  Cr15  1  0.00000000  -0.00000000  0.31810308  1
  O  O16  1  0.16862083  0.83137917  0.87822686  1
  O  O17  1  0.16862083  0.33724067  0.87822686  1
  O  O18  1  0.66275933  0.83137917  0.87822686  1
  O  O19  1  0.33724067  0.16862083  0.37822686  1
  O  O20  1  0.83137917  0.66275933  0.12177314  1
  O  O21  1  0.83137917  0.16862083  0.37822686  1
  O  O22  1  0.83137917  0.66275933  0.37822686  1
  O  O23  1  0.16862083  0.83137917  0.62177314  1
  O  O24  1  0.66275933  0.83137917  0.62177314  1
  O  O25  1  0.33724067  0.16862083  0.12177314  1
  O  O26  1  0.83137917  0.16862083  0.12177314  1
  O  O27  1  0.16862083  0.33724067  0.62177314  1
  O  O28  1  0.85159162  0.70318325  0.75000000  1
  O  O29  1  0.14840838  0.85159162  0.25000000  1
  O  O30  1  0.70318325  0.85159162  0.25000000  1
  O  O31  1  0.29681675  0.14840838  0.75000000  1
  O  O32  1  0.50000000  -0.00000000  0.00000000  1
  O  O33  1  0.50000000  0.50000000  0.50000000  1
  O  O34  1  0.00000000  0.50000000  0.50000000  1
  O  O35  1  0.00000000  0.50000000  0.00000000  1
  O  O36  1  0.50000000  0.50000000  0.00000000  1
  O  O37  1  0.50000000  -0.00000000  0.50000000  1
  O  O38  1  0.14840838  0.29681675  0.25000000  1
  O  O39  1  0.85159162  0.14840838  0.75000000  1
