# generated using pymatgen
data_RbAsO2
_symmetry_space_group_name_H-M   'P 1'
_cell_length_a   5.48467859
_cell_length_b   7.42605163
_cell_length_c   7.80299083
_cell_angle_alpha   90.00000000
_cell_angle_beta   90.00000000
_cell_angle_gamma   90.00000000
_symmetry_Int_Tables_number   1
_chemical_formula_structural   RbAsO2
_chemical_formula_sum   'Rb4 As4 O8'
_cell_volume   317.81196482
_cell_formula_units_Z   4
loop_
 _symmetry_equiv_pos_site_id
 _symmetry_equiv_pos_as_xyz
  1  'x, y, z'
loop_
 _atom_site_type_symbol
 _atom_site_label
 _atom_site_symmetry_multiplicity
 _atom_site_fract_x
 _atom_site_fract_y
 _atom_site_fract_z
 _atom_site_occupancy
  Rb  Rb0  1  0.25000000  0.36177359  0.39921921  1
  Rb  Rb1  1  0.75000000  0.63822641  0.60078079  1
  Rb  Rb2  1  0.75000000  0.36177359  0.10078079  1
  Rb  Rb3  1  0.25000000  0.63822641  0.89921921  1
  As  As4  1  0.25000000  0.85045916  0.36444524  1
  As  As5  1  0.75000000  0.85045916  0.13555476  1
  As  As6  1  0.75000000  0.14954084  0.63555476  1
  As  As7  1  0.25000000  0.14954084  0.86444524  1
  O  O8  1  0.50000000  0.26854760  0.75000000  1
  O  O9  1  0.00000000  0.73145240  0.25000000  1
  O  O10  1  0.50000000  0.73145240  0.25000000  1
  O  O11  1  -0.00000000  0.26854760  0.75000000  1
  O  O12  1  0.25000000  0.72349002  0.54513863  1
  O  O13  1  0.25000000  0.27650998  0.04513863  1
  O  O14  1  0.75000000  0.72349002  0.95486137  1
  O  O15  1  0.75000000  0.27650998  0.45486137  1
