# generated using pymatgen
data_Sr(SmS2)2
_symmetry_space_group_name_H-M   'P 1'
_cell_length_a   7.46400498
_cell_length_b   7.46400649
_cell_length_c   7.46400577
_cell_angle_alpha   109.38980692
_cell_angle_beta   109.38980607
_cell_angle_gamma   109.63416764
_symmetry_Int_Tables_number   1
_chemical_formula_structural   Sr(SmS2)2
_chemical_formula_sum   'Sr2 Sm4 S8'
_cell_volume   320.10421463
_cell_formula_units_Z   2
loop_
 _symmetry_equiv_pos_site_id
 _symmetry_equiv_pos_as_xyz
  1  'x, y, z'
loop_
 _atom_site_type_symbol
 _atom_site_label
 _atom_site_symmetry_multiplicity
 _atom_site_fract_x
 _atom_site_fract_y
 _atom_site_fract_z
 _atom_site_occupancy
  Sr  Sr0  1  0.75000011  0.25000021  0.50000029  1
  Sr  Sr1  1  0.49999998  0.49999989  -0.00000008  1
  Sm  Sm2  1  0.99898611  0.37500023  0.12398607  1
  Sm  Sm3  1  0.62500025  0.74898628  0.62398623  1
  Sm  Sm4  1  0.25101451  0.87500015  0.87601429  1
  Sm  Sm5  1  0.12499989  0.00101408  0.37601398  1
  S  S6  1  0.51340103  0.11230273  0.74800020  1
  S  S7  1  0.01540089  0.11430252  0.75199978  1
  S  S8  1  0.36230276  0.26340099  0.24800028  1
  S  S9  1  0.23459931  0.48659893  0.59890175  1
  S  S10  1  0.88569751  0.63769741  0.90109837  1
  S  S11  1  0.36430251  0.76540074  0.25199971  1
  S  S12  1  0.88769726  0.63569742  0.40109829  1
  S  S13  1  0.73659888  0.98459941  0.09890182  1
