# generated using pymatgen
data_La5TlS8
_symmetry_space_group_name_H-M   'P 1'
_cell_length_a   7.64752268
_cell_length_b   7.64767847
_cell_length_c   7.64752230
_cell_angle_alpha   109.05603020
_cell_angle_beta   109.05507630
_cell_angle_gamma   110.30524424
_symmetry_Int_Tables_number   1
_chemical_formula_structural   La5TlS8
_chemical_formula_sum   'La5 Tl1 S8'
_cell_volume   344.25718380
_cell_formula_units_Z   1
loop_
 _symmetry_equiv_pos_site_id
 _symmetry_equiv_pos_as_xyz
  1  'x, y, z'
loop_
 _atom_site_type_symbol
 _atom_site_label
 _atom_site_symmetry_multiplicity
 _atom_site_fract_x
 _atom_site_fract_y
 _atom_site_fract_z
 _atom_site_occupancy
  La  La0  1  0.23608530  0.11764283  0.61407373  1
  La  La1  1  0.75000901  0.24998124  0.50000107  1
  La  La2  1  0.88240548  0.49645455  0.11846898  1
  La  La3  1  0.50359135  0.62201411  0.38592087  1
  La  La4  1  0.37797273  0.76391719  0.88155179  1
  Tl  Tl5  1  -0.00001508  0.00000151  -0.00000252  1
  S  S6  1  0.76096274  0.87042888  0.25867944  1
  S  S7  1  0.28556554  0.87029625  0.25989200  1
  S  S8  1  0.12971425  0.38959672  0.41527668  1
  S  S9  1  0.61038568  0.02567045  0.74010576  1
  S  S10  1  0.49771745  0.23904050  0.10945898  1
  S  S11  1  0.61173644  0.50227523  0.74132338  1
  S  S12  1  0.12957131  0.38825416  0.89053427  1
  S  S13  1  0.97429878  0.71442438  0.58471456  1
