# generated using pymatgen
data_Nd2TeO6
_symmetry_space_group_name_H-M   'P 1'
_cell_length_a   5.43924828
_cell_length_b   9.33458112
_cell_length_c   10.21135645
_cell_angle_alpha   90.00000000
_cell_angle_beta   90.00000000
_cell_angle_gamma   90.00000000
_symmetry_Int_Tables_number   1
_chemical_formula_structural   Nd2TeO6
_chemical_formula_sum   'Nd8 Te4 O24'
_cell_volume   518.46226610
_cell_formula_units_Z   4
loop_
 _symmetry_equiv_pos_site_id
 _symmetry_equiv_pos_as_xyz
  1  'x, y, z'
loop_
 _atom_site_type_symbol
 _atom_site_label
 _atom_site_symmetry_multiplicity
 _atom_site_fract_x
 _atom_site_fract_y
 _atom_site_fract_z
 _atom_site_occupancy
  Nd  Nd0  1  0.02590326  0.10432613  0.45926487  1
  Nd  Nd1  1  0.52590326  0.39567387  0.54073513  1
  Nd  Nd2  1  0.97409674  0.60432613  0.04073513  1
  Nd  Nd3  1  0.47409674  0.89567387  0.95926487  1
  Nd  Nd4  1  0.03305283  0.21723843  0.86241068  1
  Nd  Nd5  1  0.53305283  0.28276157  0.13758932  1
  Nd  Nd6  1  0.96694717  0.71723843  0.63758932  1
  Nd  Nd7  1  0.46694717  0.78276157  0.36241068  1
  Te  Te8  1  0.54181870  0.00440160  0.64341791  1
  Te  Te9  1  0.04181870  0.49559840  0.35658209  1
  Te  Te10  1  0.45818130  0.50440160  0.85658209  1
  Te  Te11  1  0.95818130  0.99559840  0.14341791  1
  O  O12  1  0.25252999  0.41443786  0.99070064  1
  O  O13  1  0.75252999  0.08556214  0.00929936  1
  O  O14  1  0.74747001  0.91443786  0.50929936  1
  O  O15  1  0.24747001  0.58556214  0.49070064  1
  O  O16  1  0.21999518  0.11141922  0.06626955  1
  O  O17  1  0.71999518  0.38858078  0.93373045  1
  O  O18  1  0.78000482  0.61141922  0.43373045  1
  O  O19  1  0.28000482  0.88858078  0.56626955  1
  O  O20  1  0.30655280  0.36195079  0.32341400  1
  O  O21  1  0.80655280  0.13804921  0.67658600  1
  O  O22  1  0.69344720  0.86195079  0.17658600  1
  O  O23  1  0.19344720  0.63804921  0.82341400  1
  O  O24  1  0.16586745  0.94638630  0.28612528  1
  O  O25  1  0.66586745  0.55361370  0.71387472  1
  O  O26  1  0.83413255  0.44638630  0.21387472  1
  O  O27  1  0.33413255  0.05361370  0.78612528  1
  O  O28  1  0.17964497  0.63619411  0.24290979  1
  O  O29  1  0.67964497  0.86380589  0.75709021  1
  O  O30  1  0.82035503  0.13619411  0.25709021  1
  O  O31  1  0.32035503  0.36380589  0.74290979  1
  O  O32  1  0.06930591  0.85122564  0.02308369  1
  O  O33  1  0.56930591  0.64877436  0.97691631  1
  O  O34  1  0.93069409  0.35122564  0.47691631  1
  O  O35  1  0.43069409  0.14877436  0.52308369  1
