# generated using pymatgen
data_Cr2(Bi2O5)3
_symmetry_space_group_name_H-M   'P 1'
_cell_length_a   11.73809897
_cell_length_b   11.73809897
_cell_length_c   5.88202172
_cell_angle_alpha   90.00000000
_cell_angle_beta   90.00000000
_cell_angle_gamma   116.20138483
_symmetry_Int_Tables_number   1
_chemical_formula_structural   Cr2(Bi2O5)3
_chemical_formula_sum   'Cr4 Bi12 O30'
_cell_volume   727.16758391
_cell_formula_units_Z   2
loop_
 _symmetry_equiv_pos_site_id
 _symmetry_equiv_pos_as_xyz
  1  'x, y, z'
loop_
 _atom_site_type_symbol
 _atom_site_label
 _atom_site_symmetry_multiplicity
 _atom_site_fract_x
 _atom_site_fract_y
 _atom_site_fract_z
 _atom_site_occupancy
  Cr  Cr0  1  0.53249481  0.20566816  0.85279674  1
  Cr  Cr1  1  0.46750519  0.79433184  0.85279674  1
  Cr  Cr2  1  0.79433184  0.46750519  0.35279674  1
  Cr  Cr3  1  0.20566816  0.53249481  0.35279674  1
  Bi  Bi4  1  0.38883149  0.25251270  0.32686303  1
  Bi  Bi5  1  0.61116851  0.74748730  0.32686303  1
  Bi  Bi6  1  0.74748730  0.61116851  0.82686303  1
  Bi  Bi7  1  0.25251270  0.38883149  0.82686303  1
  Bi  Bi8  1  0.30215375  0.89966837  0.32762392  1
  Bi  Bi9  1  0.69784625  0.10033163  0.32762392  1
  Bi  Bi10  1  0.10033163  0.69784625  0.82762392  1
  Bi  Bi11  1  0.89966837  0.30215375  0.82762392  1
  Bi  Bi12  1  0.17282411  0.04524443  0.73127289  1
  Bi  Bi13  1  0.82717589  0.95475557  0.73127289  1
  Bi  Bi14  1  0.95475557  0.82717589  0.23127289  1
  Bi  Bi15  1  0.04524443  0.17282411  0.23127289  1
  O  O16  1  0.67626581  0.22355010  0.92117082  1
  O  O17  1  0.32373419  0.77644990  0.92117082  1
  O  O18  1  0.77644990  0.32373419  0.42117082  1
  O  O19  1  0.22355010  0.67626581  0.42117082  1
  O  O20  1  0.52587255  0.34132815  0.85856006  1
  O  O21  1  0.47412745  0.65867185  0.85856006  1
  O  O22  1  0.65867185  0.47412745  0.35856006  1
  O  O23  1  0.34132815  0.52587255  0.35856006  1
  O  O24  1  0.43127723  0.11339907  0.05059288  1
  O  O25  1  0.56872277  0.88660093  0.05059288  1
  O  O26  1  0.88660093  0.56872277  0.55059288  1
  O  O27  1  0.11339907  0.43127723  0.55059288  1
  O  O28  1  0.49051262  0.14158967  0.59809032  1
  O  O29  1  0.50948738  0.85841033  0.59809032  1
  O  O30  1  0.85841033  0.50948738  0.09809032  1
  O  O31  1  0.14158967  0.49051262  0.09809032  1
  O  O32  1  0.25257125  0.25630433  0.09013727  1
  O  O33  1  0.74742875  0.74369567  0.09013727  1
  O  O34  1  0.74369567  0.74742875  0.59013727  1
  O  O35  1  0.25630433  0.25257125  0.59013727  1
  O  O36  1  0.85605960  0.16831068  0.10817485  1
  O  O37  1  0.14394040  0.83168932  0.10817485  1
  O  O38  1  0.83168932  0.14394040  0.60817485  1
  O  O39  1  0.16831068  0.85605960  0.60817485  1
  O  O40  1  0.74693478  0.94034114  0.37868873  1
  O  O41  1  0.25306522  0.05965886  0.37868873  1
  O  O42  1  0.05965886  0.25306522  0.87868873  1
  O  O43  1  0.94034114  0.74693478  0.87868873  1
  O  O44  1  -0.00000000  -0.00000000  0.04715894  1
  O  O45  1  -0.00000000  -0.00000000  0.54715894  1
