# generated using pymatgen
data_SrZrO3
_symmetry_space_group_name_H-M   'P 1'
_cell_length_a   5.79524115
_cell_length_b   5.84428960
_cell_length_c   8.21457412
_cell_angle_alpha   90.00000000
_cell_angle_beta   90.00000000
_cell_angle_gamma   90.00000000
_symmetry_Int_Tables_number   1
_chemical_formula_structural   SrZrO3
_chemical_formula_sum   'Sr4 Zr4 O12'
_cell_volume   278.21996603
_cell_formula_units_Z   4
loop_
 _symmetry_equiv_pos_site_id
 _symmetry_equiv_pos_as_xyz
  1  'x, y, z'
loop_
 _atom_site_type_symbol
 _atom_site_label
 _atom_site_symmetry_multiplicity
 _atom_site_fract_x
 _atom_site_fract_y
 _atom_site_fract_z
 _atom_site_occupancy
  Sr  Sr0  1  0.00695062  0.53137829  0.25000000  1
  Sr  Sr1  1  0.50695062  0.96862171  0.75000000  1
  Sr  Sr2  1  0.49304938  0.03137829  0.25000000  1
  Sr  Sr3  1  0.99304938  0.46862171  0.75000000  1
  Zr  Zr4  1  -0.00000000  -0.00000000  -0.00000000  1
  Zr  Zr5  1  0.50000000  0.50000000  -0.00000000  1
  Zr  Zr6  1  0.50000000  0.50000000  0.50000000  1
  Zr  Zr7  1  -0.00000000  -0.00000000  0.50000000  1
  O  O8  1  0.21435424  0.28544994  0.46083320  1
  O  O9  1  0.71435424  0.21455006  0.53916680  1
  O  O10  1  0.28564576  0.78544994  0.03916680  1
  O  O11  1  0.78564576  0.71455006  0.96083320  1
  O  O12  1  0.78564576  0.71455006  0.53916680  1
  O  O13  1  0.28564576  0.78544994  0.46083320  1
  O  O14  1  0.71435424  0.21455006  0.96083320  1
  O  O15  1  0.21435424  0.28544994  0.03916680  1
  O  O16  1  0.92580939  0.98136803  0.25000000  1
  O  O17  1  0.42580939  0.51863197  0.75000000  1
  O  O18  1  0.57419061  0.48136803  0.25000000  1
  O  O19  1  0.07419061  0.01863197  0.75000000  1
