# generated using pymatgen
data_BaGa4S7
_symmetry_space_group_name_H-M   'P 1'
_cell_length_a   5.97088255
_cell_length_b   6.26526937
_cell_length_c   14.87053230
_cell_angle_alpha   90.00000000
_cell_angle_beta   90.00000000
_cell_angle_gamma   90.00000000
_symmetry_Int_Tables_number   1
_chemical_formula_structural   BaGa4S7
_chemical_formula_sum   'Ba2 Ga8 S14'
_cell_volume   556.29453181
_cell_formula_units_Z   2
loop_
 _symmetry_equiv_pos_site_id
 _symmetry_equiv_pos_as_xyz
  1  'x, y, z'
loop_
 _atom_site_type_symbol
 _atom_site_label
 _atom_site_symmetry_multiplicity
 _atom_site_fract_x
 _atom_site_fract_y
 _atom_site_fract_z
 _atom_site_occupancy
  Ba  Ba0  1  0.45238661  0.65961856  0.50000000  1
  Ba  Ba1  1  0.95238661  0.34038144  -0.00000000  1
  Ga  Ga2  1  0.33960464  0.82953115  0.87987865  1
  Ga  Ga3  1  0.83960464  0.17046885  0.62012135  1
  Ga  Ga4  1  0.83960464  0.17046885  0.37987865  1
  Ga  Ga5  1  0.33960464  0.82953115  0.12012135  1
  Ga  Ga6  1  0.35616238  0.31376418  0.75183100  1
  Ga  Ga7  1  0.85616238  0.68623582  0.74816900  1
  Ga  Ga8  1  0.85616238  0.68623582  0.25183100  1
  Ga  Ga9  1  0.35616238  0.31376418  0.24816900  1
  S  S10  1  0.96470355  0.32941833  0.75230760  1
  S  S11  1  0.46470355  0.67058167  0.74769240  1
  S  S12  1  0.46470355  0.67058167  0.25230760  1
  S  S13  1  0.96470355  0.32941833  0.24769240  1
  S  S14  1  0.95968632  0.80649898  0.88315761  1
  S  S15  1  0.45968632  0.19350102  0.61684239  1
  S  S16  1  0.45968632  0.19350102  0.38315761  1
  S  S17  1  0.95968632  0.80649898  0.11684239  1
  S  S18  1  0.44579525  0.17503798  0.88548458  1
  S  S19  1  0.94579525  0.82496202  0.61451542  1
  S  S20  1  0.45611709  0.63973645  -0.00000000  1
  S  S21  1  0.95611709  0.36026355  0.50000000  1
  S  S22  1  0.44579525  0.17503798  0.11451542  1
  S  S23  1  0.94579525  0.82496202  0.38548458  1
