# generated using pymatgen
data_Sr2GeS4
_symmetry_space_group_name_H-M   'P 1'
_cell_length_a   6.74104975
_cell_length_b   6.73273977
_cell_length_c   8.24996218
_cell_angle_alpha   90.00000000
_cell_angle_beta   108.08388855
_cell_angle_gamma   90.00000000
_symmetry_Int_Tables_number   1
_chemical_formula_structural   Sr2GeS4
_chemical_formula_sum   'Sr4 Ge2 S8'
_cell_volume   355.93485987
_cell_formula_units_Z   2
loop_
 _symmetry_equiv_pos_site_id
 _symmetry_equiv_pos_as_xyz
  1  'x, y, z'
loop_
 _atom_site_type_symbol
 _atom_site_label
 _atom_site_symmetry_multiplicity
 _atom_site_fract_x
 _atom_site_fract_y
 _atom_site_fract_z
 _atom_site_occupancy
  Sr  Sr0  1  0.76458604  0.25000000  0.56666034  1
  Sr  Sr1  1  0.23541396  0.75000000  0.43333966  1
  Sr  Sr2  1  0.72180408  0.25000000  0.05333267  1
  Sr  Sr3  1  0.27819592  0.75000000  0.94666733  1
  Ge  Ge4  1  0.27225622  0.25000000  0.19915316  1
  Ge  Ge5  1  0.72774378  0.75000000  0.80084684  1
  S  S6  1  0.50843218  0.49743857  0.74108443  1
  S  S7  1  0.49156782  0.99743857  0.25891557  1
  S  S8  1  0.49156782  0.50256143  0.25891557  1
  S  S9  1  0.50843218  0.00256143  0.74108443  1
  S  S10  1  0.08081378  0.25000000  0.37369812  1
  S  S11  1  0.91918622  0.75000000  0.62630188  1
  S  S12  1  0.90239008  0.75000000  0.07542662  1
  S  S13  1  0.09760992  0.25000000  0.92457338  1
