# generated using pymatgen
data_Sr(GaO2)2
_symmetry_space_group_name_H-M   'P 1'
_cell_length_a   9.01162540
_cell_length_b   8.39619059
_cell_length_c   10.70995031
_cell_angle_alpha   86.00464488
_cell_angle_beta   90.00000000
_cell_angle_gamma   90.00000000
_symmetry_Int_Tables_number   1
_chemical_formula_structural   Sr(GaO2)2
_chemical_formula_sum   'Sr8 Ga16 O32'
_cell_volume   808.38105126
_cell_formula_units_Z   8
loop_
 _symmetry_equiv_pos_site_id
 _symmetry_equiv_pos_as_xyz
  1  'x, y, z'
loop_
 _atom_site_type_symbol
 _atom_site_label
 _atom_site_symmetry_multiplicity
 _atom_site_fract_x
 _atom_site_fract_y
 _atom_site_fract_z
 _atom_site_occupancy
  Sr  Sr0  1  0.71190177  0.50444806  0.13154983  1
  Sr  Sr1  1  0.21190177  0.49555194  0.36845017  1
  Sr  Sr2  1  0.28809823  0.49555194  0.86845017  1
  Sr  Sr3  1  0.78809823  0.50444806  0.63154983  1
  Sr  Sr4  1  0.73750073  0.03590514  0.15083621  1
  Sr  Sr5  1  0.23750073  0.96409486  0.34916379  1
  Sr  Sr6  1  0.26249927  0.96409486  0.84916379  1
  Sr  Sr7  1  0.76249927  0.03590514  0.65083621  1
  Ga  Ga8  1  0.55603363  0.67765255  0.36029323  1
  Ga  Ga9  1  0.05603363  0.32234745  0.13970677  1
  Ga  Ga10  1  0.44396637  0.32234745  0.63970677  1
  Ga  Ga11  1  0.94396637  0.67765255  0.86029323  1
  Ga  Ga12  1  0.90548638  0.19558912  0.38990125  1
  Ga  Ga13  1  0.40548638  0.80441088  0.11009875  1
  Ga  Ga14  1  0.09451362  0.80441088  0.61009875  1
  Ga  Ga15  1  0.59451362  0.19558912  0.88990125  1
  Ga  Ga16  1  0.89247487  0.79384328  0.37979130  1
  Ga  Ga17  1  0.39247487  0.20615672  0.12020870  1
  Ga  Ga18  1  0.10752513  0.20615672  0.62020870  1
  Ga  Ga19  1  0.60752513  0.79384328  0.87979130  1
  Ga  Ga20  1  0.06468179  0.72067604  0.13034414  1
  Ga  Ga21  1  0.56468179  0.27932396  0.36965586  1
  Ga  Ga22  1  0.93531821  0.27932396  0.86965586  1
  Ga  Ga23  1  0.43531821  0.72067604  0.63034414  1
  O  O24  1  0.74402227  0.65140504  0.42456292  1
  O  O25  1  0.24402227  0.34859496  0.07543708  1
  O  O26  1  0.25597773  0.34859496  0.57543708  1
  O  O27  1  0.75597773  0.65140504  0.92456292  1
  O  O28  1  0.57963355  0.78280421  0.20186488  1
  O  O29  1  0.07963355  0.21719579  0.29813512  1
  O  O30  1  0.42036645  0.21719579  0.79813512  1
  O  O31  1  0.92036645  0.78280421  0.70186488  1
  O  O32  1  0.06522666  0.71650323  0.45817432  1
  O  O33  1  0.56522666  0.28349677  0.04182568  1
  O  O34  1  0.93477334  0.28349677  0.54182568  1
  O  O35  1  0.43477334  0.71650323  0.95817432  1
  O  O36  1  0.74961318  0.27351006  0.29218231  1
  O  O37  1  0.24961318  0.72648994  0.20781769  1
  O  O38  1  0.25038682  0.72648994  0.70781769  1
  O  O39  1  0.75038682  0.27351006  0.79218231  1
  O  O40  1  0.94121510  0.85188030  0.21433899  1
  O  O41  1  0.44121510  0.14811970  0.28566101  1
  O  O42  1  0.05878490  0.14811970  0.78566101  1
  O  O43  1  0.55878490  0.85188030  0.71433899  1
  O  O44  1  0.48864058  0.47864448  0.32016775  1
  O  O45  1  0.98864058  0.52135552  0.17983225  1
  O  O46  1  0.51135942  0.52135552  0.67983225  1
  O  O47  1  0.01135942  0.47864448  0.82016775  1
  O  O48  1  0.66085076  0.98996490  0.93365395  1
  O  O49  1  0.16085076  0.01003510  0.56634605  1
  O  O50  1  0.33914924  0.01003510  0.06634605  1
  O  O51  1  0.83914924  0.98996490  0.43365395  1
  O  O52  1  0.41420779  0.76071155  0.46037582  1
  O  O53  1  0.91420779  0.23928845  0.03962418  1
  O  O54  1  0.58579221  0.23928845  0.53962418  1
  O  O55  1  0.08579221  0.76071155  0.96037582  1
