# generated using pymatgen
data_Tl3PSe4
_symmetry_space_group_name_H-M   'P 1'
_cell_length_a   9.25280106
_cell_length_b   9.45850125
_cell_length_c   11.18907989
_cell_angle_alpha   90.00000000
_cell_angle_beta   90.00000000
_cell_angle_gamma   90.00000000
_symmetry_Int_Tables_number   1
_chemical_formula_structural   Tl3PSe4
_chemical_formula_sum   'Tl12 P4 Se16'
_cell_volume   979.24175824
_cell_formula_units_Z   4
loop_
 _symmetry_equiv_pos_site_id
 _symmetry_equiv_pos_as_xyz
  1  'x, y, z'
loop_
 _atom_site_type_symbol
 _atom_site_label
 _atom_site_symmetry_multiplicity
 _atom_site_fract_x
 _atom_site_fract_y
 _atom_site_fract_z
 _atom_site_occupancy
  Tl  Tl0  1  0.93696194  0.19476784  0.44901735  1
  Tl  Tl1  1  0.43696194  0.30523216  0.05098265  1
  Tl  Tl2  1  0.56303806  0.69476784  0.55098265  1
  Tl  Tl3  1  0.06303806  0.80523216  0.94901735  1
  Tl  Tl4  1  0.06303806  0.80523216  0.55098265  1
  Tl  Tl5  1  0.56303806  0.69476784  0.94901735  1
  Tl  Tl6  1  0.43696194  0.30523216  0.44901735  1
  Tl  Tl7  1  0.93696194  0.19476784  0.05098265  1
  Tl  Tl8  1  0.39549642  0.11022708  0.75000000  1
  Tl  Tl9  1  0.89549642  0.38977292  0.75000000  1
  Tl  Tl10  1  0.10450358  0.61022708  0.25000000  1
  Tl  Tl11  1  0.60450358  0.88977292  0.25000000  1
  P  P12  1  0.28065184  0.52811940  0.75000000  1
  P  P13  1  0.78065184  0.97188060  0.75000000  1
  P  P14  1  0.21934816  0.02811940  0.25000000  1
  P  P15  1  0.71934816  0.47188060  0.25000000  1
  Se  Se16  1  0.84062195  0.53307872  0.41193931  1
  Se  Se17  1  0.34062195  0.96692128  0.08806069  1
  Se  Se18  1  0.65937805  0.03307872  0.58806069  1
  Se  Se19  1  0.15937805  0.46692128  0.91193931  1
  Se  Se20  1  0.15937805  0.46692128  0.58806069  1
  Se  Se21  1  0.65937805  0.03307872  0.91193931  1
  Se  Se22  1  0.34062195  0.96692128  0.41193931  1
  Se  Se23  1  0.84062195  0.53307872  0.08806069  1
  Se  Se24  1  0.69372345  0.23737003  0.25000000  1
  Se  Se25  1  0.19372345  0.26262997  0.25000000  1
  Se  Se26  1  0.80627655  0.73737003  0.75000000  1
  Se  Se27  1  0.30627655  0.76262997  0.75000000  1
  Se  Se28  1  0.00092928  0.93352152  0.25000000  1
  Se  Se29  1  0.50092928  0.56647848  0.25000000  1
  Se  Se30  1  0.49907072  0.43352152  0.75000000  1
  Se  Se31  1  -0.00092928  0.06647848  0.75000000  1
