# generated using pymatgen
data_La4Se3O4
_symmetry_space_group_name_H-M   'P 1'
_cell_length_a   4.10704675
_cell_length_b   6.92635323
_cell_length_c   8.53985278
_cell_angle_alpha   90.00000000
_cell_angle_beta   90.00000000
_cell_angle_gamma   107.24629441
_symmetry_Int_Tables_number   1
_chemical_formula_structural   La4Se3O4
_chemical_formula_sum   'La4 Se3 O4'
_cell_volume   232.00953198
_cell_formula_units_Z   1
loop_
 _symmetry_equiv_pos_site_id
 _symmetry_equiv_pos_as_xyz
  1  'x, y, z'
loop_
 _atom_site_type_symbol
 _atom_site_label
 _atom_site_symmetry_multiplicity
 _atom_site_fract_x
 _atom_site_fract_y
 _atom_site_fract_z
 _atom_site_occupancy
  La  La0  1  0.68514541  0.37028982  0.76259655  1
  La  La1  1  0.68514541  0.37028982  0.23740345  1
  La  La2  1  0.01742226  0.03484452  0.50000000  1
  La  La3  1  0.00099941  0.00200082  0.00000000  1
  Se  Se4  1  0.35700201  0.71400501  0.35259858  1
  Se  Se5  1  0.35700201  0.71400501  0.64740142  1
  Se  Se6  1  0.31328927  0.62657854  0.00000000  1
  O  O7  1  0.61492906  0.22985912  0.50000000  1
  O  O8  1  0.58763663  0.17527226  0.00000000  1
  O  O9  1  0.09010777  0.18021854  0.75591487  1
  O  O10  1  0.09010777  0.18021854  0.24408513  1
