# generated using pymatgen
data_TaBO4
_symmetry_space_group_name_H-M   'P 1'
_cell_length_a   5.18791133
_cell_length_b   5.18791130
_cell_length_c   5.18791296
_cell_angle_alpha   106.31644768
_cell_angle_beta   106.31642881
_cell_angle_gamma   115.98372700
_symmetry_Int_Tables_number   1
_chemical_formula_structural   TaBO4
_chemical_formula_sum   'Ta2 B2 O8'
_cell_volume   106.43391474
_cell_formula_units_Z   2
loop_
 _symmetry_equiv_pos_site_id
 _symmetry_equiv_pos_as_xyz
  1  'x, y, z'
loop_
 _atom_site_type_symbol
 _atom_site_label
 _atom_site_symmetry_multiplicity
 _atom_site_fract_x
 _atom_site_fract_y
 _atom_site_fract_z
 _atom_site_occupancy
  Ta  Ta0  1  0.12500000  0.87500000  0.25000000  1
  Ta  Ta1  1  0.87500000  0.12500000  0.75000000  1
  B  B2  1  0.62500000  0.37500000  0.25000000  1
  B  B3  1  0.37500000  0.62500000  0.75000000  1
  O  O4  1  0.80016720  0.37157764  0.07141045  1
  O  O5  1  0.72875675  0.80016720  0.92858955  1
  O  O6  1  0.27124325  0.19983280  0.07141045  1
  O  O7  1  0.19983280  0.62842236  0.92858955  1
  O  O8  1  0.19983280  0.27124325  0.57141045  1
  O  O9  1  0.62842236  0.19983280  0.42858955  1
  O  O10  1  0.80016720  0.72875675  0.42858955  1
  O  O11  1  0.37157764  0.80016720  0.57141045  1
