# generated using pymatgen
data_KGaO2
_symmetry_space_group_name_H-M   'P 1'
_cell_length_a   5.52205541
_cell_length_b   11.07295361
_cell_length_c   15.81147739
_cell_angle_alpha   90.00000000
_cell_angle_beta   90.00000000
_cell_angle_gamma   90.00000000
_symmetry_Int_Tables_number   1
_chemical_formula_structural   KGaO2
_chemical_formula_sum   'K16 Ga16 O32'
_cell_volume   966.80011184
_cell_formula_units_Z   16
loop_
 _symmetry_equiv_pos_site_id
 _symmetry_equiv_pos_as_xyz
  1  'x, y, z'
loop_
 _atom_site_type_symbol
 _atom_site_label
 _atom_site_symmetry_multiplicity
 _atom_site_fract_x
 _atom_site_fract_y
 _atom_site_fract_z
 _atom_site_occupancy
  K  K0  1  0.29977491  0.26600470  0.31678763  1
  K  K1  1  0.79977491  0.23399530  0.68321237  1
  K  K2  1  0.70022509  0.76600470  0.18321237  1
  K  K3  1  0.20022509  0.73399530  0.81678763  1
  K  K4  1  0.70022509  0.73399530  0.68321237  1
  K  K5  1  0.20022509  0.76600470  0.31678763  1
  K  K6  1  0.29977491  0.23399530  0.81678763  1
  K  K7  1  0.79977491  0.26600470  0.18321237  1
  K  K8  1  0.25713590  0.01686387  0.43898257  1
  K  K9  1  0.75713590  0.48313613  0.56101743  1
  K  K10  1  0.74286410  0.51686387  0.06101743  1
  K  K11  1  0.24286410  0.98313613  0.93898257  1
  K  K12  1  0.74286410  0.98313613  0.56101743  1
  K  K13  1  0.24286410  0.51686387  0.43898257  1
  K  K14  1  0.25713590  0.48313613  0.93898257  1
  K  K15  1  0.75713590  0.01686387  0.06101743  1
  Ga  Ga16  1  0.78369023  0.26309418  0.43537521  1
  Ga  Ga17  1  0.28369023  0.23690582  0.56462479  1
  Ga  Ga18  1  0.21630977  0.76309418  0.06462479  1
  Ga  Ga19  1  0.71630977  0.73690582  0.93537521  1
  Ga  Ga20  1  0.21630977  0.73690582  0.56462479  1
  Ga  Ga21  1  0.71630977  0.76309418  0.43537521  1
  Ga  Ga22  1  0.78369023  0.23690582  0.93537521  1
  Ga  Ga23  1  0.28369023  0.26309418  0.06462479  1
  Ga  Ga24  1  0.76580735  0.00910971  0.31092827  1
  Ga  Ga25  1  0.26580735  0.49089029  0.68907173  1
  Ga  Ga26  1  0.23419265  0.50910971  0.18907173  1
  Ga  Ga27  1  0.73419265  0.99089029  0.81092827  1
  Ga  Ga28  1  0.23419265  0.99089029  0.68907173  1
  Ga  Ga29  1  0.73419265  0.50910971  0.31092827  1
  Ga  Ga30  1  0.76580735  0.49089029  0.81092827  1
  Ga  Ga31  1  0.26580735  0.00910971  0.18907173  1
  O  O32  1  0.44335882  0.97928449  0.28636828  1
  O  O33  1  0.94335882  0.52071551  0.71363172  1
  O  O34  1  0.55664118  0.47928449  0.21363172  1
  O  O35  1  0.05664118  0.02071551  0.78636828  1
  O  O36  1  0.55664118  0.02071551  0.71363172  1
  O  O37  1  0.05664118  0.47928449  0.28636828  1
  O  O38  1  0.44335882  0.52071551  0.78636828  1
  O  O39  1  0.94335882  0.97928449  0.21363172  1
  O  O40  1  0.83771516  0.16648743  0.34223391  1
  O  O41  1  0.33771516  0.33351257  0.65776609  1
  O  O42  1  0.16228484  0.66648743  0.15776609  1
  O  O43  1  0.66228484  0.83351257  0.84223391  1
  O  O44  1  0.16228484  0.83351257  0.65776609  1
  O  O45  1  0.66228484  0.66648743  0.34223391  1
  O  O46  1  0.83771516  0.33351257  0.84223391  1
  O  O47  1  0.57145272  0.30467501  0.01210716  1
  O  O48  1  0.64735772  0.40715767  0.39873166  1
  O  O49  1  0.14735772  0.09284233  0.60126834  1
  O  O50  1  0.35264228  0.90715767  0.10126834  1
  O  O51  1  0.85264228  0.59284233  0.89873166  1
  O  O52  1  0.35264228  0.59284233  0.60126834  1
  O  O53  1  0.85264228  0.90715767  0.39873166  1
  O  O54  1  0.64735772  0.09284233  0.89873166  1
  O  O55  1  0.14735772  0.40715767  0.10126834  1
  O  O56  1  0.07145272  0.30467501  0.48789284  1
  O  O57  1  0.57145272  0.19532499  0.51210716  1
  O  O58  1  0.92854728  0.80467501  0.01210716  1
  O  O59  1  0.42854728  0.69532499  0.98789284  1
  O  O60  1  0.92854728  0.69532499  0.51210716  1
  O  O61  1  0.42854728  0.80467501  0.48789284  1
  O  O62  1  0.07145272  0.19532499  0.98789284  1
  O  O63  1  0.33771516  0.16648743  0.15776609  1
