# generated using pymatgen
data_Rb2SeO4
_symmetry_space_group_name_H-M   'P 1'
_cell_length_a   6.15174812
_cell_length_b   7.97600487
_cell_length_c   10.78880138
_cell_angle_alpha   90.00000000
_cell_angle_beta   90.00000000
_cell_angle_gamma   90.00000000
_symmetry_Int_Tables_number   1
_chemical_formula_structural   Rb2SeO4
_chemical_formula_sum   'Rb8 Se4 O16'
_cell_volume   529.36735235
_cell_formula_units_Z   4
loop_
 _symmetry_equiv_pos_site_id
 _symmetry_equiv_pos_as_xyz
  1  'x, y, z'
loop_
 _atom_site_type_symbol
 _atom_site_label
 _atom_site_symmetry_multiplicity
 _atom_site_fract_x
 _atom_site_fract_y
 _atom_site_fract_z
 _atom_site_occupancy
  Rb  Rb0  1  0.25000000  0.00827667  0.29627887  1
  Rb  Rb1  1  0.75000000  0.99172333  0.70372113  1
  Rb  Rb2  1  0.25000000  0.50827667  0.20372113  1
  Rb  Rb3  1  0.75000000  0.49172333  0.79627887  1
  Rb  Rb4  1  0.25000000  0.33254163  0.58737662  1
  Rb  Rb5  1  0.75000000  0.66745837  0.41262338  1
  Rb  Rb6  1  0.25000000  0.83254163  0.91262338  1
  Rb  Rb7  1  0.75000000  0.16745837  0.08737662  1
  Se  Se8  1  0.25000000  0.77155907  0.58029851  1
  Se  Se9  1  0.75000000  0.22844093  0.41970149  1
  Se  Se10  1  0.25000000  0.27155907  0.91970149  1
  Se  Se11  1  0.75000000  0.72844093  0.08029851  1
  O  O12  1  0.53011110  0.29928039  0.34797741  1
  O  O13  1  0.03011110  0.70071961  0.65202259  1
  O  O14  1  0.96988890  0.79928039  0.15202259  1
  O  O15  1  0.46988890  0.20071961  0.84797741  1
  O  O16  1  0.46988890  0.70071961  0.65202259  1
  O  O17  1  0.96988890  0.29928039  0.34797741  1
  O  O18  1  0.03011110  0.20071961  0.84797741  1
  O  O19  1  0.53011110  0.79928039  0.15202259  1
  O  O20  1  0.25000000  0.69676317  0.43652418  1
  O  O21  1  0.75000000  0.30323683  0.56347582  1
  O  O22  1  0.25000000  0.19676317  0.06347582  1
  O  O23  1  0.75000000  0.80323683  0.93652418  1
  O  O24  1  0.75000000  0.52152557  0.08065894  1
  O  O25  1  0.25000000  0.47847443  0.91934106  1
  O  O26  1  0.75000000  0.02152557  0.41934106  1
  O  O27  1  0.25000000  0.97847443  0.58065894  1
