# generated using pymatgen
data_ZrTe3O8
_symmetry_space_group_name_H-M   'P 1'
_cell_length_a   9.82887939
_cell_length_b   9.82894256
_cell_length_c   9.82905212
_cell_angle_alpha   109.47206843
_cell_angle_beta   109.47025082
_cell_angle_gamma   109.47069422
_symmetry_Int_Tables_number   1
_chemical_formula_structural   ZrTe3O8
_chemical_formula_sum   'Zr4 Te12 O32'
_cell_volume   730.97752753
_cell_formula_units_Z   4
loop_
 _symmetry_equiv_pos_site_id
 _symmetry_equiv_pos_as_xyz
  1  'x, y, z'
loop_
 _atom_site_type_symbol
 _atom_site_label
 _atom_site_symmetry_multiplicity
 _atom_site_fract_x
 _atom_site_fract_y
 _atom_site_fract_z
 _atom_site_occupancy
  Zr  Zr0  1  0.50000400  0.00000042  0.00000074  1
  Zr  Zr1  1  -0.00000157  0.00000132  0.49999890  1
  Zr  Zr2  1  0.00000056  0.50000573  0.00000006  1
  Zr  Zr3  1  0.50000363  0.50000642  0.50000606  1
  Te  Te4  1  0.54522715  0.25001212  0.79522980  1
  Te  Te5  1  0.70479068  0.95475884  0.75001304  1
  Te  Te6  1  0.24999739  0.79523238  0.54522049  1
  Te  Te7  1  0.79522500  0.54521912  0.24999425  1
  Te  Te8  1  0.74999106  0.70477158  0.95477249  1
  Te  Te9  1  0.95475894  0.74999961  0.70477490  1
  Te  Te10  1  0.45477890  0.74999662  0.20477481  1
  Te  Te11  1  0.29521510  0.04522693  0.25000114  1
  Te  Te12  1  0.74997927  0.20475353  0.45476623  1
  Te  Te13  1  0.20477193  0.45478097  0.74999334  1
  Te  Te14  1  0.25000201  0.29521533  0.04523050  1
  Te  Te15  1  0.04524460  0.24999188  0.29521161  1
  O  O16  1  0.53859773  0.20331127  0.96332649  1
  O  O17  1  0.76000794  0.29668466  0.83527832  1
  O  O18  1  0.96140639  0.92472351  0.66472176  1
  O  O19  1  0.57526876  0.53668650  0.73999457  1
  O  O20  1  0.53668979  0.74000712  0.57527875  1
  O  O21  1  0.96332106  0.53858957  0.20330720  1
  O  O22  1  0.29668045  0.83527243  0.75999373  1
  O  O23  1  0.66472101  0.96141017  0.92472936  1
  O  O24  1  0.20330787  0.96332510  0.53859052  1
  O  O25  1  0.83527762  0.76000226  0.29668122  1
  O  O26  1  0.92473276  0.66472242  0.96141155  1
  O  O27  1  0.74000223  0.57527740  0.53668726  1
  O  O28  1  0.46140818  0.79669462  0.03667621  1
  O  O29  1  0.23999449  0.70331329  0.16471933  1
  O  O30  1  0.03859143  0.07527463  0.33527839  1
  O  O31  1  0.42472166  0.46331495  0.26000256  1
  O  O32  1  0.16628616  0.16628804  0.16628408  1
  O  O33  1  0.33371482  0.49999720  0.00000171  1
  O  O34  1  0.00000035  0.33371654  0.49999824  1
  O  O35  1  0.50000041  0.00000590  0.33372145  1
  O  O36  1  0.83372327  0.83372552  0.83372251  1
  O  O37  1  0.66627951  0.49999735  0.00000095  1
  O  O38  1  0.00000088  0.66628560  0.50000315  1
  O  O39  1  0.49999975  -0.00000272  0.66628020  1
  O  O40  1  0.25999449  0.42471686  0.46331124  1
  O  O41  1  0.07527099  0.33528014  0.03859396  1
  O  O42  1  0.16472345  0.23999906  0.70331656  1
  O  O43  1  0.79669391  0.03667720  0.46140890  1
  O  O44  1  0.33528373  0.03859339  0.07526668  1
  O  O45  1  0.70331402  0.16472533  0.24000490  1
  O  O46  1  0.03667427  0.46140724  0.79669243  1
  O  O47  1  0.46332195  0.26000466  0.42472744  1
