# generated using pymatgen
data_ErAgSe2
_symmetry_space_group_name_H-M   'P 1'
_cell_length_a   4.19417584
_cell_length_b   6.79976908
_cell_length_c   13.66657677
_cell_angle_alpha   90.00000000
_cell_angle_beta   90.00000000
_cell_angle_gamma   90.00000000
_symmetry_Int_Tables_number   1
_chemical_formula_structural   ErAgSe2
_chemical_formula_sum   'Er4 Ag4 Se8'
_cell_volume   389.76294117
_cell_formula_units_Z   4
loop_
 _symmetry_equiv_pos_site_id
 _symmetry_equiv_pos_as_xyz
  1  'x, y, z'
loop_
 _atom_site_type_symbol
 _atom_site_label
 _atom_site_symmetry_multiplicity
 _atom_site_fract_x
 _atom_site_fract_y
 _atom_site_fract_z
 _atom_site_occupancy
  Er  Er0  1  0.22507821  0.29236652  0.12806504  1
  Er  Er1  1  0.72507821  0.20763348  0.87193496  1
  Er  Er2  1  0.77492179  0.79236652  0.37193496  1
  Er  Er3  1  0.27492179  0.70763348  0.62806504  1
  Ag  Ag4  1  0.50737644  0.70823359  0.87432104  1
  Ag  Ag5  1  0.49262356  0.20823459  0.62567896  1
  Ag  Ag6  1  0.00737644  0.79176641  0.12567896  1
  Ag  Ag7  1  0.99262356  0.29176641  0.37432104  1
  Se  Se8  1  0.76942094  0.51275585  0.52675382  1
  Se  Se9  1  0.26942094  0.98724415  0.47324618  1
  Se  Se10  1  0.23057906  0.01275585  0.97324618  1
  Se  Se11  1  0.73057906  0.48724415  0.02675382  1
  Se  Se12  1  0.77449355  0.91295532  0.72583238  1
  Se  Se13  1  0.72550645  0.08704468  0.22583238  1
  Se  Se14  1  0.22550645  0.41295532  0.77416762  1
  Se  Se15  1  0.27449355  0.58704468  0.27416762  1
