# generated using pymatgen
data_CaSnO3
_symmetry_space_group_name_H-M   'P 1'
_cell_length_a   6.01584163
_cell_length_b   6.01584156
_cell_length_c   6.01584148
_cell_angle_alpha   54.58886767
_cell_angle_beta   54.58886888
_cell_angle_gamma   54.58886490
_symmetry_Int_Tables_number   1
_chemical_formula_structural   CaSnO3
_chemical_formula_sum   'Ca2 Sn2 O6'
_cell_volume   134.53390939
_cell_formula_units_Z   2
loop_
 _symmetry_equiv_pos_site_id
 _symmetry_equiv_pos_as_xyz
  1  'x, y, z'
loop_
 _atom_site_type_symbol
 _atom_site_label
 _atom_site_symmetry_multiplicity
 _atom_site_fract_x
 _atom_site_fract_y
 _atom_site_fract_z
 _atom_site_occupancy
  Ca  Ca0  1  0.36227676  0.36227676  0.36227676  1
  Ca  Ca1  1  0.63772324  0.63772324  0.63772324  1
  Sn  Sn2  1  0.15423012  0.15423012  0.15423012  1
  Sn  Sn3  1  0.84576988  0.84576988  0.84576988  1
  O  O4  1  0.79304230  0.44365957  0.03526645  1
  O  O5  1  0.44365957  0.03526645  0.79304230  1
  O  O6  1  0.03526645  0.79304230  0.44365957  1
  O  O7  1  0.20695770  0.55634043  0.96473355  1
  O  O8  1  0.96473355  0.20695770  0.55634043  1
  O  O9  1  0.55634043  0.96473355  0.20695770  1
