# generated using pymatgen
data_RbSb3Se5
_symmetry_space_group_name_H-M   'P 1'
_cell_length_a   8.80451087
_cell_length_b   9.69550567
_cell_length_c   13.15641808
_cell_angle_alpha   90.00000000
_cell_angle_beta   90.00000000
_cell_angle_gamma   96.79824545
_symmetry_Int_Tables_number   1
_chemical_formula_structural   RbSb3Se5
_chemical_formula_sum   'Rb4 Sb12 Se20'
_cell_volume   1115.19063365
_cell_formula_units_Z   4
loop_
 _symmetry_equiv_pos_site_id
 _symmetry_equiv_pos_as_xyz
  1  'x, y, z'
loop_
 _atom_site_type_symbol
 _atom_site_label
 _atom_site_symmetry_multiplicity
 _atom_site_fract_x
 _atom_site_fract_y
 _atom_site_fract_z
 _atom_site_occupancy
  Rb  Rb0  1  0.38030407  0.69903371  0.24900566  1
  Rb  Rb1  1  0.11969593  0.80096629  0.74900566  1
  Rb  Rb2  1  0.61969593  0.30096629  0.75099434  1
  Rb  Rb3  1  0.88030407  0.19903371  0.25099434  1
  Sb  Sb4  1  0.99098193  0.17850901  0.95963325  1
  Sb  Sb5  1  0.50901807  0.32149099  0.45963325  1
  Sb  Sb6  1  0.00901807  0.82149099  0.04036675  1
  Sb  Sb7  1  0.49098193  0.67850901  0.54036675  1
  Sb  Sb8  1  0.31881251  0.46006708  0.94368700  1
  Sb  Sb9  1  0.18118749  0.03993292  0.44368700  1
  Sb  Sb10  1  0.68118749  0.53993292  0.05631300  1
  Sb  Sb11  1  0.81881251  0.96006708  0.55631300  1
  Sb  Sb12  1  0.87939878  0.62479517  0.40136442  1
  Sb  Sb13  1  0.62060122  0.87520483  0.90136442  1
  Sb  Sb14  1  0.12060122  0.37520483  0.59863558  1
  Sb  Sb15  1  0.37939878  0.12479517  0.09863558  1
  Se  Se16  1  0.14206274  0.96106729  0.19048978  1
  Se  Se17  1  0.35793726  0.53893271  0.69048978  1
  Se  Se18  1  0.85793726  0.03893271  0.80951022  1
  Se  Se19  1  0.64206274  0.46106729  0.30951022  1
  Se  Se20  1  0.27666699  0.09802813  0.91323208  1
  Se  Se21  1  0.22333301  0.40197187  0.41323208  1
  Se  Se22  1  0.72333301  0.90197187  0.08676792  1
  Se  Se23  1  0.77666699  0.59802813  0.58676792  1
  Se  Se24  1  0.25200557  0.35484539  0.12693732  1
  Se  Se25  1  0.24799443  0.14515461  0.62693732  1
  Se  Se26  1  0.74799443  0.64515461  0.87306268  1
  Se  Se27  1  0.75200557  0.85484539  0.37306268  1
  Se  Se28  1  0.04732976  0.40921374  0.85895340  1
  Se  Se29  1  0.45267024  0.09078626  0.35895340  1
  Se  Se30  1  0.95267024  0.59078626  0.14104660  1
  Se  Se31  1  0.54732976  0.90921374  0.64104660  1
  Se  Se32  1  0.81100051  0.21691280  0.51745761  1
  Se  Se33  1  0.68899949  0.28308720  0.01745761  1
  Se  Se34  1  0.18899949  0.78308720  0.48254239  1
  Se  Se35  1  0.31100051  0.71691280  0.98254239  1
