# generated using pymatgen
data_Tl2SO4
_symmetry_space_group_name_H-M   'P 1'
_cell_length_a   5.86638852
_cell_length_b   7.78683168
_cell_length_c   10.62410941
_cell_angle_alpha   90.00000000
_cell_angle_beta   90.00000000
_cell_angle_gamma   90.00000000
_symmetry_Int_Tables_number   1
_chemical_formula_structural   Tl2SO4
_chemical_formula_sum   'Tl8 S4 O16'
_cell_volume   485.31547956
_cell_formula_units_Z   4
loop_
 _symmetry_equiv_pos_site_id
 _symmetry_equiv_pos_as_xyz
  1  'x, y, z'
loop_
 _atom_site_type_symbol
 _atom_site_label
 _atom_site_symmetry_multiplicity
 _atom_site_fract_x
 _atom_site_fract_y
 _atom_site_fract_z
 _atom_site_occupancy
  Tl  Tl0  1  0.25000000  0.99237378  0.29617365  1
  Tl  Tl1  1  0.75000000  0.00762622  0.70382635  1
  Tl  Tl2  1  0.25000000  0.49237378  0.20382635  1
  Tl  Tl3  1  0.75000000  0.50762622  0.79617365  1
  Tl  Tl4  1  0.25000000  0.66860054  0.58665260  1
  Tl  Tl5  1  0.75000000  0.33139946  0.41334740  1
  Tl  Tl6  1  0.25000000  0.16860054  0.91334740  1
  Tl  Tl7  1  0.75000000  0.83139946  0.08665260  1
  S  S8  1  0.25000000  0.22238402  0.57729875  1
  S  S9  1  0.75000000  0.77761598  0.42270125  1
  S  S10  1  0.25000000  0.72238402  0.92270125  1
  S  S11  1  0.75000000  0.27761598  0.07729875  1
  O  O12  1  0.54319017  0.70983119  0.35939350  1
  O  O13  1  0.04319017  0.29016881  0.64060650  1
  O  O14  1  0.95680983  0.20983119  0.14060650  1
  O  O15  1  0.45680983  0.79016881  0.85939350  1
  O  O16  1  0.45680983  0.29016881  0.64060650  1
  O  O17  1  0.95680983  0.70983119  0.35939350  1
  O  O18  1  0.04319017  0.79016881  0.85939350  1
  O  O19  1  0.54319017  0.20983119  0.14060650  1
  O  O20  1  0.25000000  0.28401819  0.44439751  1
  O  O21  1  0.75000000  0.71598181  0.55560249  1
  O  O22  1  0.25000000  0.78401819  0.05560249  1
  O  O23  1  0.75000000  0.21598181  0.94439751  1
  O  O24  1  0.75000000  0.46706689  0.08108123  1
  O  O25  1  0.25000000  0.53293311  0.91891877  1
  O  O26  1  0.75000000  0.96706689  0.41891877  1
  O  O27  1  0.25000000  0.03293311  0.58108123  1
