# generated using pymatgen
data_TlGaS2
_symmetry_space_group_name_H-M   'P 1'
_cell_length_a   7.33028807
_cell_length_b   7.33028807
_cell_length_c   15.23748108
_cell_angle_alpha   83.04825979
_cell_angle_beta   83.04825979
_cell_angle_gamma   90.01583198
_symmetry_Int_Tables_number   1
_chemical_formula_structural   TlGaS2
_chemical_formula_sum   'Tl8 Ga8 S16'
_cell_volume   806.67086763
_cell_formula_units_Z   8
loop_
 _symmetry_equiv_pos_site_id
 _symmetry_equiv_pos_as_xyz
  1  'x, y, z'
loop_
 _atom_site_type_symbol
 _atom_site_label
 _atom_site_symmetry_multiplicity
 _atom_site_fract_x
 _atom_site_fract_y
 _atom_site_fract_z
 _atom_site_occupancy
  Tl  Tl0  1  0.27714042  0.15452775  0.88436739  1
  Tl  Tl1  1  0.84547225  0.72285958  0.61563261  1
  Tl  Tl2  1  0.72285958  0.84547225  0.11563261  1
  Tl  Tl3  1  0.15452775  0.27714042  0.38436739  1
  Tl  Tl4  1  0.65172786  0.27522374  0.39047933  1
  Tl  Tl5  1  0.72477626  0.34827214  0.10952067  1
  Tl  Tl6  1  0.34827214  0.72477626  0.60952067  1
  Tl  Tl7  1  0.27522374  0.65172786  0.89047933  1
  Ga  Ga8  1  0.20917915  0.58681908  0.16360589  1
  Ga  Ga9  1  0.91934930  0.79050484  0.33753347  1
  Ga  Ga10  1  0.79050484  0.91934930  0.83753347  1
  Ga  Ga11  1  0.08065070  0.20949516  0.66246653  1
  Ga  Ga12  1  0.58681908  0.20917915  0.66360589  1
  Ga  Ga13  1  0.79082085  0.41318092  0.83639411  1
  Ga  Ga14  1  0.41318092  0.79082085  0.33639411  1
  Ga  Ga15  1  0.20949516  0.08065070  0.16246653  1
  S  S16  1  0.76936812  0.14394580  0.92921605  1
  S  S17  1  0.85605420  0.23063188  0.57078395  1
  S  S18  1  0.23063188  0.85605420  0.07078395  1
  S  S19  1  0.14394580  0.76936812  0.42921605  1
  S  S20  1  0.44408411  0.06764284  0.24871304  1
  S  S21  1  0.93235716  0.55591589  0.25128696  1
  S  S22  1  0.55591589  0.93235716  0.75128696  1
  S  S23  1  0.06764284  0.44408411  0.74871304  1
  S  S24  1  0.64305897  0.77054498  0.42572130  1
  S  S25  1  0.22945502  0.35694103  0.07427870  1
  S  S26  1  0.35694103  0.22945502  0.57427870  1
  S  S27  1  0.06751261  0.93248739  0.75000000  1
  S  S28  1  0.44349230  0.55650770  0.25000000  1
  S  S29  1  0.55650770  0.44349230  0.75000000  1
  S  S30  1  0.93248739  0.06751261  0.25000000  1
  S  S31  1  0.77054498  0.64305897  0.92572130  1
