# generated using pymatgen
data_Tm2CdS4
_symmetry_space_group_name_H-M   'P 1'
_cell_length_a   7.85950258
_cell_length_b   7.85950200
_cell_length_c   7.85950225
_cell_angle_alpha   59.99999891
_cell_angle_beta   60.00000135
_cell_angle_gamma   59.99999843
_symmetry_Int_Tables_number   1
_chemical_formula_structural   Tm2CdS4
_chemical_formula_sum   'Tm4 Cd2 S8'
_cell_volume   343.29709646
_cell_formula_units_Z   2
loop_
 _symmetry_equiv_pos_site_id
 _symmetry_equiv_pos_as_xyz
  1  'x, y, z'
loop_
 _atom_site_type_symbol
 _atom_site_label
 _atom_site_symmetry_multiplicity
 _atom_site_fract_x
 _atom_site_fract_y
 _atom_site_fract_z
 _atom_site_occupancy
  Tm  Tm0  1  0.50000000  0.50000000  -0.00000000  1
  Tm  Tm1  1  0.50000000  0.50000000  0.50000000  1
  Tm  Tm2  1  0.00000000  0.50000000  0.50000000  1
  Tm  Tm3  1  0.50000000  -0.00000000  0.50000000  1
  Cd  Cd4  1  0.12500000  0.12500000  0.12500000  1
  Cd  Cd5  1  0.87500000  0.87500000  0.87500000  1
  S  S6  1  0.74203915  0.74203915  0.74203915  1
  S  S7  1  0.25796085  0.25796085  0.72611444  1
  S  S8  1  0.25796085  0.72611444  0.25796085  1
  S  S9  1  0.72611444  0.25796085  0.25796085  1
  S  S10  1  0.74203915  0.27388556  0.74203915  1
  S  S11  1  0.27388556  0.74203915  0.74203915  1
  S  S12  1  0.25796085  0.25796085  0.25796085  1
  S  S13  1  0.74203915  0.74203915  0.27388556  1
