# generated using pymatgen
data_CdTe
_symmetry_space_group_name_H-M   'P 1'
_cell_length_a   4.64160844
_cell_length_b   4.64160917
_cell_length_c   4.64161015
_cell_angle_alpha   60.00000779
_cell_angle_beta   60.00000254
_cell_angle_gamma   60.00001118
_symmetry_Int_Tables_number   1
_chemical_formula_structural   CdTe
_chemical_formula_sum   'Cd1 Te1'
_cell_volume   70.71162283
_cell_formula_units_Z   1
loop_
 _symmetry_equiv_pos_site_id
 _symmetry_equiv_pos_as_xyz
  1  'x, y, z'
loop_
 _atom_site_type_symbol
 _atom_site_label
 _atom_site_symmetry_multiplicity
 _atom_site_fract_x
 _atom_site_fract_y
 _atom_site_fract_z
 _atom_site_occupancy
  Cd  Cd0  1  0.00000000  -0.00000000  0.00000000  1
  Te  Te1  1  0.25000000  0.25000000  0.25000000  1
