# generated using pymatgen
data_La2(SeO3)3
_symmetry_space_group_name_H-M   'P 1'
_cell_length_a   7.09207981
_cell_length_b   8.47619536
_cell_length_c   14.29668380
_cell_angle_alpha   90.00000000
_cell_angle_beta   90.00000000
_cell_angle_gamma   90.00000000
_symmetry_Int_Tables_number   1
_chemical_formula_structural   La2(SeO3)3
_chemical_formula_sum   'La8 Se12 O36'
_cell_volume   859.42876233
_cell_formula_units_Z   4
loop_
 _symmetry_equiv_pos_site_id
 _symmetry_equiv_pos_as_xyz
  1  'x, y, z'
loop_
 _atom_site_type_symbol
 _atom_site_label
 _atom_site_symmetry_multiplicity
 _atom_site_fract_x
 _atom_site_fract_y
 _atom_site_fract_z
 _atom_site_occupancy
  La  La0  1  0.18007346  0.30124841  0.06380523  1
  La  La1  1  0.68007346  0.19875159  0.93619477  1
  La  La2  1  0.31992654  0.80124841  0.43619477  1
  La  La3  1  0.81992654  0.69875159  0.56380523  1
  La  La4  1  0.81992654  0.69875159  0.93619477  1
  La  La5  1  0.31992654  0.80124841  0.06380523  1
  La  La6  1  0.68007346  0.19875159  0.56380523  1
  La  La7  1  0.18007346  0.30124841  0.43619477  1
  Se  Se8  1  0.18053726  0.04794371  0.87479925  1
  Se  Se9  1  0.68053726  0.45205629  0.12520075  1
  Se  Se10  1  0.31946274  0.54794371  0.62520075  1
  Se  Se11  1  0.81946274  0.95205629  0.37479925  1
  Se  Se12  1  0.59208060  0.95610559  0.75000000  1
  Se  Se13  1  0.09208060  0.54389441  0.25000000  1
  Se  Se14  1  0.90791940  0.45610559  0.75000000  1
  Se  Se15  1  0.40791940  0.04389441  0.25000000  1
  Se  Se16  1  0.81946274  0.95205629  0.12520075  1
  Se  Se17  1  0.31946274  0.54794371  0.87479925  1
  Se  Se18  1  0.68053726  0.45205629  0.37479925  1
  Se  Se19  1  0.18053726  0.04794371  0.62520075  1
  O  O20  1  0.73903602  0.94258744  0.84466676  1
  O  O21  1  0.23903602  0.55741256  0.15533324  1
  O  O22  1  0.76096398  0.44258744  0.65533324  1
  O  O23  1  0.26096398  0.05741256  0.34466676  1
  O  O24  1  0.26096398  0.05741256  0.15533324  1
  O  O25  1  0.76096398  0.44258744  0.84466676  1
  O  O26  1  0.23903602  0.55741256  0.34466676  1
  O  O27  1  0.73903602  0.94258744  0.65533324  1
  O  O28  1  0.43255405  0.84383371  0.25000000  1
  O  O29  1  0.93255405  0.65616629  0.75000000  1
  O  O30  1  0.06744595  0.34383371  0.25000000  1
  O  O31  1  0.56744595  0.15616629  0.75000000  1
  O  O32  1  0.08926593  0.88283170  0.92332363  1
  O  O33  1  0.58926593  0.61716830  0.07667637  1
  O  O34  1  0.41073407  0.38283170  0.57667637  1
  O  O35  1  0.91073407  0.11716830  0.42332363  1
  O  O36  1  0.03197449  0.19930785  0.59694893  1
  O  O37  1  0.53197449  0.30069215  0.40305107  1
  O  O38  1  0.46802551  0.69930785  0.90305107  1
  O  O39  1  0.96802551  0.80069215  0.09694893  1
  O  O40  1  0.96802551  0.80069215  0.40305107  1
  O  O41  1  0.46802551  0.69930785  0.59694893  1
  O  O42  1  0.53197449  0.30069215  0.09694893  1
  O  O43  1  0.03197449  0.19930785  0.90305107  1
  O  O44  1  0.35081348  0.07416269  0.53995282  1
  O  O45  1  0.85081348  0.42583731  0.46004718  1
  O  O46  1  0.14918652  0.57416269  0.96004718  1
  O  O47  1  0.64918652  0.92583731  0.03995282  1
  O  O48  1  0.64918652  0.92583731  0.46004718  1
  O  O49  1  0.14918652  0.57416269  0.53995282  1
  O  O50  1  0.85081348  0.42583731  0.03995282  1
  O  O51  1  0.35081348  0.07416269  0.96004718  1
  O  O52  1  0.08926593  0.88283170  0.57667637  1
  O  O53  1  0.58926593  0.61716830  0.42332363  1
  O  O54  1  0.41073407  0.38283170  0.92332363  1
  O  O55  1  0.91073407  0.11716830  0.07667637  1
