# generated using pymatgen
data_Li7VN4
_symmetry_space_group_name_H-M   'P 1'
_cell_length_a   9.49942669
_cell_length_b   9.49942669
_cell_length_c   9.49942669
_cell_angle_alpha   90.00000000
_cell_angle_beta   90.00000000
_cell_angle_gamma   90.00000000
_symmetry_Int_Tables_number   1
_chemical_formula_structural   Li7VN4
_chemical_formula_sum   'Li56 V8 N32'
_cell_volume   857.21978568
_cell_formula_units_Z   8
loop_
 _symmetry_equiv_pos_site_id
 _symmetry_equiv_pos_as_xyz
  1  'x, y, z'
loop_
 _atom_site_type_symbol
 _atom_site_label
 _atom_site_symmetry_multiplicity
 _atom_site_fract_x
 _atom_site_fract_y
 _atom_site_fract_z
 _atom_site_occupancy
  Li  Li0  1  0.86395789  0.38047651  0.39602203  1
  Li  Li1  1  0.36395789  0.11952349  0.60397797  1
  Li  Li2  1  0.13604211  0.88047651  0.10397797  1
  Li  Li3  1  0.11952349  0.60397797  0.36395789  1
  Li  Li4  1  0.10397797  0.13604211  0.88047651  1
  Li  Li5  1  0.60397797  0.36395789  0.11952349  1
  Li  Li6  1  0.38047651  0.39602203  0.86395789  1
  Li  Li7  1  0.39602203  0.86395789  0.38047651  1
  Li  Li8  1  0.88047651  0.10397797  0.13604211  1
  Li  Li9  1  0.61952349  0.89602203  0.63604211  1
  Li  Li10  1  0.89602203  0.63604211  0.61952349  1
  Li  Li11  1  0.63604211  0.61952349  0.89602203  1
  Li  Li12  1  0.13604211  0.61952349  0.60397797  1
  Li  Li13  1  0.63604211  0.88047651  0.39602203  1
  Li  Li14  1  0.86395789  0.11952349  0.89602203  1
  Li  Li15  1  0.88047651  0.39602203  0.63604211  1
  Li  Li16  1  0.89602203  0.86395789  0.11952349  1
  Li  Li17  1  0.39602203  0.63604211  0.88047651  1
  Li  Li18  1  0.61952349  0.60397797  0.13604211  1
  Li  Li19  1  0.60397797  0.13604211  0.61952349  1
  Li  Li20  1  0.11952349  0.89602203  0.86395789  1
  Li  Li21  1  0.38047651  0.10397797  0.36395789  1
  Li  Li22  1  0.10397797  0.36395789  0.38047651  1
  Li  Li23  1  0.86897710  0.63031664  0.11607938  1
  Li  Li24  1  0.36395789  0.38047651  0.10397797  1
  Li  Li25  1  0.13031664  0.11607938  0.63102290  1
  Li  Li26  1  0.36968336  0.88392062  0.13102290  1
  Li  Li27  1  0.11607938  0.63102290  0.13031664  1
  Li  Li28  1  0.13102290  0.36968336  0.88392062  1
  Li  Li29  1  0.63102290  0.13031664  0.11607938  1
  Li  Li30  1  0.38392062  0.36897710  0.63031664  1
  Li  Li31  1  0.36897710  0.63031664  0.38392062  1
  Li  Li32  1  0.88392062  0.13102290  0.36968336  1
  Li  Li33  1  0.61607938  0.86897710  0.86968336  1
  Li  Li34  1  0.86897710  0.86968336  0.61607938  1
  Li  Li35  1  0.86968336  0.61607938  0.86897710  1
  Li  Li36  1  0.36968336  0.61607938  0.63102290  1
  Li  Li37  1  0.86968336  0.88392062  0.36897710  1
  Li  Li38  1  0.63031664  0.11607938  0.86897710  1
  Li  Li39  1  0.88392062  0.36897710  0.86968336  1
  Li  Li40  1  0.13259564  0.13259564  0.13259564  1
  Li  Li41  1  0.36740436  0.86740436  0.63259564  1
  Li  Li42  1  0.63259564  0.36740436  0.86740436  1
  Li  Li43  1  0.86740436  0.63259564  0.36740436  1
  Li  Li44  1  0.86740436  0.86740436  0.86740436  1
  Li  Li45  1  0.63259564  0.13259564  0.36740436  1
  Li  Li46  1  0.36740436  0.63259564  0.13259564  1
  Li  Li47  1  0.13259564  0.36740436  0.63259564  1
  Li  Li48  1  0.13031664  0.38392062  0.13102290  1
  Li  Li49  1  0.13102290  0.13031664  0.38392062  1
  Li  Li50  1  0.38392062  0.13102290  0.13031664  1
  Li  Li51  1  0.11607938  0.86897710  0.63031664  1
  Li  Li52  1  0.63102290  0.36968336  0.61607938  1
  Li  Li53  1  0.61607938  0.63102290  0.36968336  1
  Li  Li54  1  0.36897710  0.86968336  0.88392062  1
  Li  Li55  1  0.63031664  0.38392062  0.36897710  1
  V  V56  1  0.37028406  0.12971594  0.87028406  1
  V  V57  1  0.12971594  0.87028406  0.37028406  1
  V  V58  1  0.87028406  0.37028406  0.12971594  1
  V  V59  1  0.62971594  0.62971594  0.62971594  1
  V  V60  1  0.62971594  0.87028406  0.12971594  1
  V  V61  1  0.87028406  0.12971594  0.62971594  1
  V  V62  1  0.12971594  0.62971594  0.87028406  1
  V  V63  1  0.37028406  0.37028406  0.37028406  1
  N  N64  1  0.98571309  0.25910306  0.02163065  1
  N  N65  1  0.48571309  0.24089694  0.97836935  1
  N  N66  1  0.01428691  0.75910306  0.47836935  1
  N  N67  1  0.24089694  0.97836935  0.48571309  1
  N  N68  1  0.47836935  0.01428691  0.75910306  1
  N  N69  1  0.97836935  0.48571309  0.24089694  1
  N  N70  1  0.25910306  0.02163065  0.98571309  1
  N  N71  1  0.02163065  0.98571309  0.25910306  1
  N  N72  1  0.75910306  0.47836935  0.01428691  1
  N  N73  1  0.74089694  0.52163065  0.51428691  1
  N  N74  1  0.52163065  0.51428691  0.74089694  1
  N  N75  1  0.51428691  0.74089694  0.52163065  1
  N  N76  1  0.01428691  0.74089694  0.97836935  1
  N  N77  1  0.51428691  0.75910306  0.02163065  1
  N  N78  1  0.98571309  0.24089694  0.52163065  1
  N  N79  1  0.75910306  0.02163065  0.51428691  1
  N  N80  1  0.52163065  0.98571309  0.24089694  1
  N  N81  1  0.02163065  0.51428691  0.75910306  1
  N  N82  1  0.74089694  0.97836935  0.01428691  1
  N  N83  1  0.97836935  0.01428691  0.74089694  1
  N  N84  1  0.24089694  0.52163065  0.98571309  1
  N  N85  1  0.25910306  0.47836935  0.48571309  1
  N  N86  1  0.47836935  0.48571309  0.25910306  1
  N  N87  1  0.48571309  0.25910306  0.47836935  1
  N  N88  1  0.26008511  0.23991489  0.76008511  1
  N  N89  1  0.23991489  0.76008511  0.26008511  1
  N  N90  1  0.76008511  0.26008511  0.23991489  1
  N  N91  1  0.73991489  0.73991489  0.73991489  1
  N  N92  1  0.73991489  0.76008511  0.23991489  1
  N  N93  1  0.76008511  0.23991489  0.73991489  1
  N  N94  1  0.23991489  0.73991489  0.76008511  1
  N  N95  1  0.26008511  0.26008511  0.26008511  1
