# generated using pymatgen
data_NdRhO3
_symmetry_space_group_name_H-M   'P 1'
_cell_length_a   5.36174282
_cell_length_b   5.83175504
_cell_length_c   7.79356720
_cell_angle_alpha   90.00000000
_cell_angle_beta   90.00000000
_cell_angle_gamma   90.00000000
_symmetry_Int_Tables_number   1
_chemical_formula_structural   NdRhO3
_chemical_formula_sum   'Nd4 Rh4 O12'
_cell_volume   243.69214839
_cell_formula_units_Z   4
loop_
 _symmetry_equiv_pos_site_id
 _symmetry_equiv_pos_as_xyz
  1  'x, y, z'
loop_
 _atom_site_type_symbol
 _atom_site_label
 _atom_site_symmetry_multiplicity
 _atom_site_fract_x
 _atom_site_fract_y
 _atom_site_fract_z
 _atom_site_occupancy
  Nd  Nd0  1  0.47541875  0.57625440  0.75000000  1
  Nd  Nd1  1  0.97541875  0.92374560  0.25000000  1
  Nd  Nd2  1  0.02458125  0.07625440  0.75000000  1
  Nd  Nd3  1  0.52458125  0.42374560  0.25000000  1
  Rh  Rh4  1  0.50000000  -0.00000000  0.50000000  1
  Rh  Rh5  1  -0.00000000  0.50000000  0.50000000  1
  Rh  Rh6  1  -0.00000000  0.50000000  0.00000000  1
  Rh  Rh7  1  0.50000000  -0.00000000  0.00000000  1
  O  O8  1  0.81524866  0.19592311  0.44745185  1
  O  O9  1  0.31524866  0.30407689  0.55254815  1
  O  O10  1  0.68475134  0.69592311  0.05254815  1
  O  O11  1  0.18475134  0.80407689  0.94745185  1
  O  O12  1  0.18475134  0.80407689  0.55254815  1
  O  O13  1  0.68475134  0.69592311  0.44745185  1
  O  O14  1  0.31524866  0.30407689  0.94745185  1
  O  O15  1  0.81524866  0.19592311  0.05254815  1
  O  O16  1  0.39075711  0.03374903  0.25000000  1
  O  O17  1  0.89075711  0.46625097  0.75000000  1
  O  O18  1  0.10924289  0.53374903  0.25000000  1
  O  O19  1  0.60924289  0.96625097  0.75000000  1
