# generated using pymatgen
data_TbPS4
_symmetry_space_group_name_H-M   'P 1'
_cell_length_a   12.20132743
_cell_length_b   12.20131329
_cell_length_c   12.20145819
_cell_angle_alpha   127.78471681
_cell_angle_beta   127.78490445
_cell_angle_gamma   76.97347076
_symmetry_Int_Tables_number   1
_chemical_formula_structural   TbPS4
_chemical_formula_sum   'Tb8 P8 S32'
_cell_volume   1101.36166026
_cell_formula_units_Z   8
loop_
 _symmetry_equiv_pos_site_id
 _symmetry_equiv_pos_as_xyz
  1  'x, y, z'
loop_
 _atom_site_type_symbol
 _atom_site_label
 _atom_site_symmetry_multiplicity
 _atom_site_fract_x
 _atom_site_fract_y
 _atom_site_fract_z
 _atom_site_occupancy
  Tb  Tb0  1  0.49999738  0.50001047  0.00000734  1
  Tb  Tb1  1  0.25000245  0.74999056  0.49999308  1
  Tb  Tb2  1  0.75000842  0.25000154  0.50000878  1
  Tb  Tb3  1  0.99999155  0.99999926  0.99999154  1
  Tb  Tb4  1  0.24999453  0.25000540  -0.00000055  1
  Tb  Tb5  1  0.99999390  0.50000875  0.50000130  1
  Tb  Tb6  1  0.50000614  0.99999397  0.50000036  1
  Tb  Tb7  1  0.75000525  0.74999099  -0.00000248  1
  P  P8  1  0.62499436  0.91295783  0.78795779  1
  P  P9  1  0.62499836  0.41299253  0.28799243  1
  P  P10  1  0.16296318  0.37499375  0.28795604  1
  P  P11  1  0.08701013  0.87499747  0.71200953  1
  P  P12  1  0.12500622  0.33704024  0.71204089  1
  P  P13  1  0.12500068  0.83700923  0.21200963  1
  P  P14  1  0.58703695  0.87500547  0.21204313  1
  P  P15  1  0.66299134  0.37500281  0.78799275  1
  S  S16  1  0.98501066  0.71036650  0.45169750  1
  S  S17  1  0.25865809  0.53333876  0.54829167  1
  S  S18  1  0.28333636  0.23504577  0.77467782  1
  S  S19  1  0.46036387  0.50868640  0.22534748  1
  S  S20  1  0.99131146  0.03963759  0.77465231  1
  S  S21  1  0.26495892  0.21666545  0.22532465  1
  S  S22  1  0.78963429  0.51498820  0.54830305  1
  S  S23  1  0.96666196  0.24134295  0.45170687  1
  S  S24  1  0.77962890  0.96770907  0.31977327  1
  S  S25  1  0.71770717  0.89793648  0.68807809  1
  S  S26  1  0.20984729  0.02957775  0.31185444  1
  S  S27  1  0.47041985  0.29015269  0.68814520  1
  S  S28  1  0.60206160  0.78229612  0.31192291  1
  S  S29  1  0.04015716  0.85204000  0.31975830  1
  S  S30  1  0.53229202  0.72036919  0.68022882  1
  S  S31  1  0.64795949  0.45984552  0.68024261  1
  S  S32  1  0.97037182  0.28229195  0.18022701  1
  S  S33  1  0.03229517  0.35206490  0.81192159  1
  S  S34  1  0.54014940  0.22041519  0.18814201  1
  S  S35  1  0.27958022  0.95984566  0.81185664  1
  S  S36  1  0.14794041  0.46770354  0.18807849  1
  S  S37  1  0.70984565  0.39795910  0.18023774  1
  S  S38  1  0.21770789  0.52962725  0.81976889  1
  S  S39  1  0.10203890  0.79015683  0.81975524  1
  S  S40  1  0.49134143  0.71666159  0.95170795  1
  S  S41  1  0.46666001  0.01495584  0.72532108  1
  S  S42  1  0.28963297  0.74131497  0.27465017  1
  S  S43  1  0.75868807  0.21036331  0.72534778  1
  S  S44  1  0.48504092  0.03333596  0.27467630  1
  S  S45  1  0.96036871  0.73501258  0.95170200  1
  S  S46  1  0.78333973  0.00865817  0.04829591  1
  S  S47  1  0.76498877  0.53963445  0.04830266  1
