# generated using pymatgen
data_Sm2As4O9
_symmetry_space_group_name_H-M   'P 1'
_cell_length_a   6.82574827
_cell_length_b   7.58545002
_cell_length_c   9.61435124
_cell_angle_alpha   96.14832566
_cell_angle_beta   103.98257997
_cell_angle_gamma   104.49197063
_symmetry_Int_Tables_number   1
_chemical_formula_structural   Sm2As4O9
_chemical_formula_sum   'Sm4 As8 O18'
_cell_volume   460.17785587
_cell_formula_units_Z   2
loop_
 _symmetry_equiv_pos_site_id
 _symmetry_equiv_pos_as_xyz
  1  'x, y, z'
loop_
 _atom_site_type_symbol
 _atom_site_label
 _atom_site_symmetry_multiplicity
 _atom_site_fract_x
 _atom_site_fract_y
 _atom_site_fract_z
 _atom_site_occupancy
  Sm  Sm0  1  0.24810706  0.94219359  0.61960628  1
  Sm  Sm1  1  0.75189294  0.05780641  0.38039372  1
  Sm  Sm2  1  0.72167108  0.53225697  0.40741352  1
  Sm  Sm3  1  0.27832892  0.46774303  0.59258648  1
  As  As4  1  0.67812008  0.77200075  0.06390156  1
  As  As5  1  0.32187992  0.22799925  0.93609844  1
  As  As6  1  0.17664331  0.75895330  0.91830128  1
  As  As7  1  0.82335669  0.24104670  0.08169872  1
  As  As8  1  0.74864984  0.92066093  0.71395228  1
  As  As9  1  0.25135016  0.07933907  0.28604772  1
  As  As10  1  0.80841793  0.35081974  0.70685241  1
  As  As11  1  0.19158207  0.64918026  0.29314759  1
  O  O12  1  0.72443091  0.74905109  0.24623493  1
  O  O13  1  0.27556909  0.25094891  0.75376507  1
  O  O14  1  0.31720700  0.98442221  0.88392147  1
  O  O15  1  0.68279300  0.01557779  0.11607853  1
  O  O16  1  0.60474677  0.31980562  0.99177145  1
  O  O17  1  0.39525323  0.68019438  0.00822855  1
  O  O18  1  0.13090818  0.66059485  0.73823289  1
  O  O19  1  0.86909182  0.33940515  0.26176711  1
  O  O20  1  0.84307959  0.87060089  0.56091896  1
  O  O21  1  0.15692041  0.12939911  0.43908104  1
  O  O22  1  0.49589490  0.77442286  0.67155860  1
  O  O23  1  0.50410510  0.22557714  0.32844140  1
  O  O24  1  0.37260013  0.53968189  0.37260090  1
  O  O25  1  0.62739987  0.46031811  0.62739910  1
  O  O26  1  0.09151014  0.66808937  0.44814509  1
  O  O27  1  0.90848986  0.33191063  0.55185491  1
  O  O28  1  0.36684754  0.89619967  0.35583757  1
  O  O29  1  0.63315246  0.10380033  0.64416243  1
