# generated using pymatgen
data_Ca3AsN
_symmetry_space_group_name_H-M   'P 1'
_cell_length_a   6.72350532
_cell_length_b   6.71622716
_cell_length_c   9.52706106
_cell_angle_alpha   90.00000000
_cell_angle_beta   90.00000000
_cell_angle_gamma   90.00000000
_symmetry_Int_Tables_number   1
_chemical_formula_structural   Ca3AsN
_chemical_formula_sum   'Ca12 As4 N4'
_cell_volume   430.20958105
_cell_formula_units_Z   4
loop_
 _symmetry_equiv_pos_site_id
 _symmetry_equiv_pos_as_xyz
  1  'x, y, z'
loop_
 _atom_site_type_symbol
 _atom_site_label
 _atom_site_symmetry_multiplicity
 _atom_site_fract_x
 _atom_site_fract_y
 _atom_site_fract_z
 _atom_site_occupancy
  Ca  Ca0  1  0.50766610  0.95509763  0.75000000  1
  Ca  Ca1  1  0.00766610  0.54490237  0.75000000  1
  Ca  Ca2  1  0.99233390  0.45509863  0.25000000  1
  Ca  Ca3  1  0.49233390  0.04490237  0.25000000  1
  Ca  Ca4  1  0.71683061  0.28311997  0.97660947  1
  Ca  Ca5  1  0.21683061  0.21688003  0.52339053  1
  Ca  Ca6  1  0.78316939  0.78311997  0.02339053  1
  Ca  Ca7  1  0.28316939  0.71688003  0.47660947  1
  Ca  Ca8  1  0.28316939  0.71688003  0.02339053  1
  Ca  Ca9  1  0.78316939  0.78311997  0.47660947  1
  Ca  Ca10  1  0.21683061  0.21688003  0.97660947  1
  Ca  Ca11  1  0.71683061  0.28311997  0.52339053  1
  As  As12  1  0.02039733  0.99707869  0.25000000  1
  As  As13  1  0.52039733  0.50292131  0.25000000  1
  As  As14  1  0.47960267  0.49707869  0.75000000  1
  As  As15  1  0.97960267  0.00292131  0.75000000  1
  N  N16  1  0.00000000  0.50000000  0.50000000  1
  N  N17  1  0.50000000  0.00000000  0.00000000  1
  N  N18  1  0.50000000  0.00000000  0.50000000  1
  N  N19  1  0.00000000  0.50000000  0.00000000  1
