# generated using pymatgen
data_RbZnF3
_symmetry_space_group_name_H-M   'P 1'
_cell_length_a   5.88797113
_cell_length_b   5.88797071
_cell_length_c   14.41410263
_cell_angle_alpha   90.00000098
_cell_angle_beta   89.99998830
_cell_angle_gamma   119.99944311
_symmetry_Int_Tables_number   1
_chemical_formula_structural   RbZnF3
_chemical_formula_sum   'Rb6 Zn6 F18'
_cell_volume   432.76486199
_cell_formula_units_Z   6
loop_
 _symmetry_equiv_pos_site_id
 _symmetry_equiv_pos_as_xyz
  1  'x, y, z'
loop_
 _atom_site_type_symbol
 _atom_site_label
 _atom_site_symmetry_multiplicity
 _atom_site_fract_x
 _atom_site_fract_y
 _atom_site_fract_z
 _atom_site_occupancy
  Rb  Rb0  1  0.33333310  0.66666697  0.40380587  1
  Rb  Rb1  1  0.66666697  0.33333316  0.90381810  1
  Rb  Rb2  1  0.66666685  0.33333306  0.59619327  1
  Rb  Rb3  1  0.33333316  0.66666686  0.09618182  1
  Rb  Rb4  1  -0.00000008  -0.00000009  0.75000642  1
  Rb  Rb5  1  0.00000020  -0.00000009  0.24999355  1
  Zn  Zn6  1  0.33333321  0.66666701  0.65349887  1
  Zn  Zn7  1  0.66666678  0.33333302  0.15353732  1
  Zn  Zn8  1  0.66666683  0.33333298  0.34650114  1
  Zn  Zn9  1  0.33333318  0.66666692  0.84646268  1
  Zn  Zn10  1  0.00000001  -0.00000003  0.50000007  1
  Zn  Zn11  1  -0.00000016  0.00000003  -0.00000000  1
  F  F12  1  0.83451019  0.16548993  0.42000396  1
  F  F13  1  0.83450989  0.66902032  0.42000386  1
  F  F14  1  0.33097992  0.16548992  0.42000386  1
  F  F15  1  0.66900019  0.83449964  0.91998871  1
  F  F16  1  0.16548990  0.33097980  0.57999605  1
  F  F17  1  0.16549958  0.83450038  0.91998861  1
  F  F18  1  0.16550050  0.33099996  0.91998871  1
  F  F19  1  0.83450050  0.16549926  0.08001128  1
  F  F20  1  0.33099974  0.16550049  0.08001135  1
  F  F21  1  0.66902000  0.83450986  0.57999605  1
  F  F22  1  0.16548988  0.83451046  0.57999601  1
  F  F23  1  0.83449968  0.66900022  0.08001135  1
  F  F24  1  0.51621746  0.03243394  0.25001847  1
  F  F25  1  0.48378203  0.51621804  0.74998155  1
  F  F26  1  0.03243447  0.51621718  0.74998158  1
  F  F27  1  0.96756546  0.48378270  0.25001848  1
  F  F28  1  0.51621776  0.48378186  0.25001847  1
  F  F29  1  0.48378280  0.96756623  0.74998154  1
