# generated using pymatgen
data_K4Ta2S11
_symmetry_space_group_name_H-M   'P 1'
_cell_length_a   7.42910982
_cell_length_b   13.25609210
_cell_length_c   18.02358851
_cell_angle_alpha   90.00000000
_cell_angle_beta   90.00000000
_cell_angle_gamma   90.00000000
_symmetry_Int_Tables_number   1
_chemical_formula_structural   K4Ta2S11
_chemical_formula_sum   'K16 Ta8 S44'
_cell_volume   1774.98037111
_cell_formula_units_Z   4
loop_
 _symmetry_equiv_pos_site_id
 _symmetry_equiv_pos_as_xyz
  1  'x, y, z'
loop_
 _atom_site_type_symbol
 _atom_site_label
 _atom_site_symmetry_multiplicity
 _atom_site_fract_x
 _atom_site_fract_y
 _atom_site_fract_z
 _atom_site_occupancy
  K  K0  1  0.34274709  0.77383613  0.56818030  1
  K  K1  1  0.65725291  0.22616387  0.06818030  1
  K  K2  1  0.65725291  0.27383613  0.56818030  1
  K  K3  1  0.34274709  0.72616387  0.06818030  1
  K  K4  1  0.20292794  0.71435033  0.32034895  1
  K  K5  1  0.79707206  0.28564967  0.82034895  1
  K  K6  1  0.79707206  0.21435033  0.32034895  1
  K  K7  1  0.21484784  0.46385696  0.67168097  1
  K  K8  1  0.18210257  0.09132474  0.46853688  1
  K  K9  1  0.81789743  0.90867526  0.96853688  1
  K  K10  1  0.81789743  0.59132474  0.46853688  1
  K  K11  1  0.18210257  0.40867526  0.96853688  1
  K  K12  1  0.20292794  0.78564967  0.82034895  1
  K  K13  1  0.78515216  0.96385696  0.67168097  1
  K  K14  1  0.78515216  0.53614304  0.17168097  1
  K  K15  1  0.21484784  0.03614304  0.17168097  1
  Ta  Ta16  1  0.26014591  0.05904989  0.91429525  1
  Ta  Ta17  1  0.73985409  0.94095011  0.41429525  1
  Ta  Ta18  1  0.73985409  0.55904989  0.91429525  1
  Ta  Ta19  1  0.26014591  0.44095011  0.41429525  1
  Ta  Ta20  1  0.20208195  0.11946568  0.72848602  1
  Ta  Ta21  1  0.79791805  0.88053432  0.22848602  1
  Ta  Ta22  1  0.79791805  0.61946568  0.72848602  1
  Ta  Ta23  1  0.20208195  0.38053432  0.22848602  1
  S  S24  1  0.25874211  0.17532133  0.02284087  1
  S  S25  1  0.74125789  0.82467867  0.52284087  1
  S  S26  1  0.74125789  0.67532133  0.02284087  1
  S  S27  1  0.25874211  0.32467867  0.52284087  1
  S  S28  1  0.24285076  0.95532269  0.67113526  1
  S  S29  1  0.75714924  0.04467731  0.17113526  1
  S  S30  1  0.75714924  0.45532269  0.67113526  1
  S  S31  1  0.24285076  0.54467731  0.17113526  1
  S  S32  1  0.02841366  0.48156137  0.31986707  1
  S  S33  1  0.97158634  0.51843863  0.81986707  1
  S  S34  1  0.97158634  0.98156137  0.31986707  1
  S  S35  1  0.02841366  0.01843863  0.81986707  1
  S  S36  1  0.22771465  0.25911520  0.33325049  1
  S  S37  1  0.77228535  0.74088480  0.83325049  1
  S  S38  1  0.77228535  0.75911520  0.33325049  1
  S  S39  1  0.22771465  0.24088480  0.83325049  1
  S  S40  1  0.97193934  0.31271350  0.16663444  1
  S  S41  1  0.60175279  0.56807524  0.62262568  1
  S  S42  1  0.02806066  0.81271350  0.16663444  1
  S  S43  1  0.97193934  0.18728650  0.66663444  1
  S  S44  1  0.47161730  0.48163793  0.31226532  1
  S  S45  1  0.52838270  0.51836207  0.81226532  1
  S  S46  1  0.52838270  0.98163793  0.31226532  1
  S  S47  1  0.47161730  0.01836207  0.81226532  1
  S  S48  1  0.25658158  0.58692086  0.47547420  1
  S  S49  1  0.74341842  0.41307914  0.97547420  1
  S  S50  1  0.74341842  0.08692086  0.47547420  1
  S  S51  1  0.25658158  0.91307914  0.97547420  1
  S  S52  1  0.39824721  0.43192476  0.12262568  1
  S  S53  1  0.01359462  0.15510413  0.97023712  1
  S  S54  1  0.60175279  0.93192476  0.12262568  1
  S  S55  1  0.39824721  0.06807524  0.62262568  1
  S  S56  1  0.58019902  0.40270226  0.40085349  1
  S  S57  1  0.41980098  0.59729774  0.90085349  1
  S  S58  1  0.41980098  0.90270226  0.40085349  1
  S  S59  1  0.58019902  0.09729774  0.90085349  1
  S  S60  1  0.40470638  0.23761376  0.24571869  1
  S  S61  1  0.59529362  0.76238624  0.74571869  1
  S  S62  1  0.59529362  0.73761376  0.24571869  1
  S  S63  1  0.40470638  0.26238624  0.74571869  1
  S  S64  1  0.01359462  0.34489587  0.47023712  1
  S  S65  1  0.98640538  0.65510413  0.97023712  1
  S  S66  1  0.98640538  0.84489587  0.47023712  1
  S  S67  1  0.02806066  0.68728650  0.66663444  1
