# generated using pymatgen
data_Sr3(GaO3)2
_symmetry_space_group_name_H-M   'P 1'
_cell_length_a   16.30477455
_cell_length_b   16.30477455
_cell_length_c   16.30477455
_cell_angle_alpha   90.00000000
_cell_angle_beta   90.00000000
_cell_angle_gamma   90.00000000
_symmetry_Int_Tables_number   1
_chemical_formula_structural   Sr3(GaO3)2
_chemical_formula_sum   'Sr72 Ga48 O144'
_cell_volume   4334.55376542
_cell_formula_units_Z   24
loop_
 _symmetry_equiv_pos_site_id
 _symmetry_equiv_pos_as_xyz
  1  'x, y, z'
loop_
 _atom_site_type_symbol
 _atom_site_label
 _atom_site_symmetry_multiplicity
 _atom_site_fract_x
 _atom_site_fract_y
 _atom_site_fract_z
 _atom_site_occupancy
  O  O0  1  0.27972466  0.12320523  0.00529954  1
  O  O1  1  0.00529954  0.27972466  0.12320523  1
  O  O2  1  0.12320523  0.00529954  0.27972466  1
  O  O3  1  0.37679477  0.99470046  0.77972466  1
  O  O4  1  0.50529954  0.22027534  0.87679477  1
  O  O5  1  0.87679477  0.50529954  0.22027534  1
  O  O6  1  0.49470046  0.72027534  0.62320523  1
  O  O7  1  0.99470046  0.77972466  0.37679477  1
  O  O8  1  0.62320523  0.49470046  0.72027534  1
  O  O9  1  0.77972466  0.37679477  0.99470046  1
  O  O10  1  0.72027534  0.62320523  0.49470046  1
  O  O11  1  0.22027534  0.87679477  0.50529954  1
  O  O12  1  0.72027534  0.87679477  0.99470046  1
  O  O13  1  0.99470046  0.72027534  0.87679477  1
  O  O14  1  0.87679477  0.99470046  0.72027534  1
  O  O15  1  0.62320523  0.00529954  0.22027534  1
  O  O16  1  0.49470046  0.77972466  0.12320523  1
  O  O17  1  0.12320523  0.49470046  0.77972466  1
  O  O18  1  0.50529954  0.27972466  0.37679477  1
  O  O19  1  0.00529954  0.22027534  0.62320523  1
  O  O20  1  0.37679477  0.50529954  0.27972466  1
  O  O21  1  0.22027534  0.62320523  0.00529954  1
  O  O22  1  0.27972466  0.37679477  0.50529954  1
  O  O23  1  0.77972466  0.12320523  0.49470046  1
  O  O24  1  0.48189061  0.13042122  0.25160535  1
  O  O25  1  0.25160535  0.48189061  0.13042122  1
  O  O26  1  0.13042122  0.25160535  0.48189061  1
  O  O27  1  0.36957878  0.74839465  0.98189061  1
  O  O28  1  0.75160535  0.01810939  0.86957878  1
  O  O29  1  0.86957878  0.75160535  0.01810939  1
  O  O30  1  0.24839465  0.51810939  0.63042122  1
  O  O31  1  0.74839465  0.98189061  0.36957878  1
  O  O32  1  0.63042122  0.24839465  0.51810939  1
  O  O33  1  0.98189061  0.36957878  0.74839465  1
  O  O34  1  0.51810939  0.63042122  0.24839465  1
  O  O35  1  0.01810939  0.86957878  0.75160535  1
  O  O36  1  0.51810939  0.86957878  0.74839465  1
  O  O37  1  0.74839465  0.51810939  0.86957878  1
  O  O38  1  0.86957878  0.74839465  0.51810939  1
  O  O39  1  0.63042122  0.25160535  0.01810939  1
  O  O40  1  0.24839465  0.98189061  0.13042122  1
  O  O41  1  0.13042122  0.24839465  0.98189061  1
  O  O42  1  0.75160535  0.48189061  0.36957878  1
  O  O43  1  0.25160535  0.01810939  0.63042122  1
  O  O44  1  0.36957878  0.75160535  0.48189061  1
  O  O45  1  0.01810939  0.63042122  0.25160535  1
  O  O46  1  0.48189061  0.36957878  0.75160535  1
  O  O47  1  0.98189061  0.13042122  0.24839465  1
  O  O48  1  0.26607769  0.28048467  0.10312568  1
  O  O49  1  0.10312568  0.26607769  0.28048467  1
  O  O50  1  0.28048467  0.10312568  0.26607769  1
  O  O51  1  0.21951533  0.89687432  0.76607769  1
  O  O52  1  0.60312568  0.23392231  0.71951533  1
  O  O53  1  0.71951533  0.60312568  0.23392231  1
  O  O54  1  0.39687432  0.73392231  0.78048467  1
  O  O55  1  0.89687432  0.76607769  0.21951533  1
  O  O56  1  0.78048467  0.39687432  0.73392231  1
  O  O57  1  0.76607769  0.21951533  0.89687432  1
  O  O58  1  0.73392231  0.78048467  0.39687432  1
  O  O59  1  0.23392231  0.71951533  0.60312568  1
  O  O60  1  0.73392231  0.71951533  0.89687432  1
  O  O61  1  0.89687432  0.73392231  0.71951533  1
  O  O62  1  0.71951533  0.89687432  0.73392231  1
  O  O63  1  0.78048467  0.10312568  0.23392231  1
  O  O64  1  0.39687432  0.76607769  0.28048467  1
  O  O65  1  0.28048467  0.39687432  0.76607769  1
  O  O66  1  0.60312568  0.26607769  0.21951533  1
  O  O67  1  0.10312568  0.23392231  0.78048467  1
  O  O68  1  0.21951533  0.60312568  0.26607769  1
  O  O69  1  0.23392231  0.78048467  0.10312568  1
  O  O70  1  0.26607769  0.21951533  0.60312568  1
  O  O71  1  0.76607769  0.28048467  0.39687432  1
  O  O72  1  0.23683567  0.40237485  0.28769523  1
  O  O73  1  0.28769523  0.23683567  0.40237485  1
  O  O74  1  0.40237485  0.28769523  0.23683567  1
  O  O75  1  0.09762515  0.71230477  0.73683567  1
  O  O76  1  0.78769523  0.26316433  0.59762515  1
  O  O77  1  0.59762515  0.78769523  0.26316433  1
  O  O78  1  0.21230477  0.76316433  0.90237485  1
  O  O79  1  0.71230477  0.73683567  0.09762515  1
  O  O80  1  0.90237485  0.21230477  0.76316433  1
  O  O81  1  0.73683567  0.09762515  0.71230477  1
  O  O82  1  0.76316433  0.90237485  0.21230477  1
  O  O83  1  0.26316433  0.59762515  0.78769523  1
  O  O84  1  0.76316433  0.59762515  0.71230477  1
  O  O85  1  0.71230477  0.76316433  0.59762515  1
  O  O86  1  0.59762515  0.71230477  0.76316433  1
  O  O87  1  0.90237485  0.28769523  0.26316433  1
  O  O88  1  0.21230477  0.73683567  0.40237485  1
  O  O89  1  0.40237485  0.21230477  0.73683567  1
  O  O90  1  0.78769523  0.23683567  0.09762515  1
  O  O91  1  0.28769523  0.26316433  0.90237485  1
  O  O92  1  0.09762515  0.78769523  0.23683567  1
  O  O93  1  0.26316433  0.90237485  0.28769523  1
  O  O94  1  0.23683567  0.09762515  0.78769523  1
  O  O95  1  0.73683567  0.40237485  0.21230477  1
  O  O96  1  0.34964249  0.96203810  0.98601981  1
  O  O97  1  0.98601981  0.34964249  0.96203810  1
  O  O98  1  0.96203810  0.98601981  0.34964249  1
  O  O99  1  0.53796190  0.01398019  0.84964249  1
  O  O100  1  0.48601981  0.15035751  0.03796190  1
  O  O101  1  0.03796190  0.48601981  0.15035751  1
  O  O102  1  0.51398019  0.65035751  0.46203810  1
  O  O103  1  0.01398019  0.84964249  0.53796190  1
  O  O104  1  0.46203810  0.51398019  0.65035751  1
  O  O105  1  0.84964249  0.53796190  0.01398019  1
  O  O106  1  0.65035751  0.46203810  0.51398019  1
  O  O107  1  0.15035751  0.03796190  0.48601981  1
  O  O108  1  0.65035751  0.03796190  0.01398019  1
  O  O109  1  0.01398019  0.65035751  0.03796190  1
  O  O110  1  0.03796190  0.01398019  0.65035751  1
  O  O111  1  0.46203810  0.98601981  0.15035751  1
  O  O112  1  0.51398019  0.84964249  0.96203810  1
  O  O113  1  0.96203810  0.51398019  0.84964249  1
  O  O114  1  0.48601981  0.34964249  0.53796190  1
  O  O115  1  0.98601981  0.15035751  0.46203810  1
  O  O116  1  0.53796190  0.48601981  0.34964249  1
  O  O117  1  0.15035751  0.46203810  0.98601981  1
  O  O118  1  0.34964249  0.53796190  0.48601981  1
  O  O119  1  0.84964249  0.96203810  0.51398019  1
  O  O120  1  0.15064304  0.98885291  0.97516549  1
  O  O121  1  0.97516549  0.15064304  0.98885291  1
  O  O122  1  0.98885291  0.97516549  0.15064304  1
  O  O123  1  0.51114709  0.02483451  0.65064304  1
  O  O124  1  0.47516549  0.34935696  0.01114709  1
  O  O125  1  0.01114709  0.47516549  0.34935696  1
  O  O126  1  0.52483451  0.84935696  0.48885291  1
  O  O127  1  0.02483451  0.65064304  0.51114709  1
  O  O128  1  0.48885291  0.52483451  0.84935696  1
  O  O129  1  0.65064304  0.51114709  0.02483451  1
  O  O130  1  0.84935696  0.48885291  0.52483451  1
  O  O131  1  0.34935696  0.01114709  0.47516549  1
  O  O132  1  0.84935696  0.01114709  0.02483451  1
  O  O133  1  0.02483451  0.84935696  0.01114709  1
  O  O134  1  0.01114709  0.02483451  0.84935696  1
  O  O135  1  0.48885291  0.97516549  0.34935696  1
  O  O136  1  0.52483451  0.65064304  0.98885291  1
  O  O137  1  0.98885291  0.52483451  0.65064304  1
  O  O138  1  0.47516549  0.15064304  0.51114709  1
  O  O139  1  0.97516549  0.34935696  0.48885291  1
  O  O140  1  0.51114709  0.47516549  0.15064304  1
  O  O141  1  0.34935696  0.48885291  0.97516549  1
  O  O142  1  0.15064304  0.51114709  0.47516549  1
  O  O143  1  0.65064304  0.98885291  0.52483451  1
  Ga  Ga144  1  0.25181868  0.01215040  0.01781731  1
  Ga  Ga145  1  0.01781731  0.25181868  0.01215040  1
  Ga  Ga146  1  0.01215040  0.01781731  0.25181868  1
  Ga  Ga147  1  0.48784960  0.98218269  0.75181868  1
  Ga  Ga148  1  0.51781731  0.24818132  0.98784960  1
  Ga  Ga149  1  0.98784960  0.51781731  0.24818132  1
  Ga  Ga150  1  0.48218269  0.74818132  0.51215040  1
  Ga  Ga151  1  0.98218269  0.75181868  0.48784960  1
  Ga  Ga152  1  0.51215040  0.48218269  0.74818132  1
  Ga  Ga153  1  0.75181868  0.48784960  0.98218269  1
  Ga  Ga154  1  0.74818132  0.51215040  0.48218269  1
  Ga  Ga155  1  0.24818132  0.98784960  0.51781731  1
  Ga  Ga156  1  0.74818132  0.98784960  0.98218269  1
  Ga  Ga157  1  0.98218269  0.74818132  0.98784960  1
  Ga  Ga158  1  0.98784960  0.98218269  0.74818132  1
  Ga  Ga159  1  0.51215040  0.01781731  0.24818132  1
  Ga  Ga160  1  0.48218269  0.75181868  0.01215040  1
  Ga  Ga161  1  0.01215040  0.48218269  0.75181868  1
  Ga  Ga162  1  0.51781731  0.25181868  0.48784960  1
  Ga  Ga163  1  0.01781731  0.24818132  0.51215040  1
  Ga  Ga164  1  0.48784960  0.51781731  0.25181868  1
  Ga  Ga165  1  0.24818132  0.51215040  0.01781731  1
  Ga  Ga166  1  0.25181868  0.48784960  0.51781731  1
  Ga  Ga167  1  0.75181868  0.01215040  0.48218269  1
  Ga  Ga168  1  0.24363499  0.23352228  0.00328848  1
  Ga  Ga169  1  0.00328848  0.24363499  0.23352228  1
  Ga  Ga170  1  0.23352228  0.00328848  0.24363499  1
  Ga  Ga171  1  0.26647772  0.99671152  0.74363499  1
  Ga  Ga172  1  0.50328848  0.25636501  0.76647772  1
  Ga  Ga173  1  0.76647772  0.50328848  0.25636501  1
  Ga  Ga174  1  0.49671152  0.75636501  0.73352228  1
  Ga  Ga175  1  0.99671152  0.74363499  0.26647772  1
  Ga  Ga176  1  0.73352228  0.49671152  0.75636501  1
  Ga  Ga177  1  0.74363499  0.26647772  0.99671152  1
  Ga  Ga178  1  0.75636501  0.73352228  0.49671152  1
  Ga  Ga179  1  0.25636501  0.76647772  0.50328848  1
  Ga  Ga180  1  0.75636501  0.76647772  0.99671152  1
  Ga  Ga181  1  0.99671152  0.75636501  0.76647772  1
  Ga  Ga182  1  0.76647772  0.99671152  0.75636501  1
  Ga  Ga183  1  0.73352228  0.00328848  0.25636501  1
  Ga  Ga184  1  0.49671152  0.74363499  0.23352228  1
  Ga  Ga185  1  0.23352228  0.49671152  0.74363499  1
  Ga  Ga186  1  0.50328848  0.24363499  0.26647772  1
  Ga  Ga187  1  0.00328848  0.25636501  0.73352228  1
  Ga  Ga188  1  0.26647772  0.50328848  0.24363499  1
  Ga  Ga189  1  0.25636501  0.73352228  0.00328848  1
  Ga  Ga190  1  0.24363499  0.26647772  0.50328848  1
  Ga  Ga191  1  0.74363499  0.23352228  0.49671152  1
  Sr  Sr192  1  0.00000000  0.00000000  0.00000000  1
  Sr  Sr193  1  0.50000000  0.00000000  0.50000000  1
  Sr  Sr194  1  0.50000000  0.50000000  0.00000000  1
  Sr  Sr195  1  0.00000000  0.50000000  0.50000000  1
  Sr  Sr196  1  0.50000000  0.00000000  0.00000000  1
  Sr  Sr197  1  0.00000000  0.50000000  0.00000000  1
  Sr  Sr198  1  0.00000000  0.00000000  0.50000000  1
  Sr  Sr199  1  0.50000000  0.50000000  0.50000000  1
  Sr  Sr200  1  0.25207826  0.25207826  0.25207826  1
  Sr  Sr201  1  0.24792174  0.74792174  0.75207826  1
  Sr  Sr202  1  0.75207826  0.24792174  0.74792174  1
  Sr  Sr203  1  0.74792174  0.75207826  0.24792174  1
  Sr  Sr204  1  0.74792174  0.74792174  0.74792174  1
  Sr  Sr205  1  0.75207826  0.25207826  0.24792174  1
  Sr  Sr206  1  0.24792174  0.75207826  0.25207826  1
  Sr  Sr207  1  0.25207826  0.24792174  0.75207826  1
  Sr  Sr208  1  0.37323512  0.37323512  0.37323512  1
  Sr  Sr209  1  0.12676488  0.62676488  0.87323512  1
  Sr  Sr210  1  0.87323512  0.12676488  0.62676488  1
  Sr  Sr211  1  0.62676488  0.87323512  0.12676488  1
  Sr  Sr212  1  0.62676488  0.62676488  0.62676488  1
  Sr  Sr213  1  0.87323512  0.37323512  0.12676488  1
  Sr  Sr214  1  0.12676488  0.87323512  0.37323512  1
  Sr  Sr215  1  0.37323512  0.12676488  0.87323512  1
  Sr  Sr216  1  0.13662568  0.37516385  0.12159699  1
  Sr  Sr217  1  0.12159699  0.13662568  0.37516385  1
  Sr  Sr218  1  0.37516385  0.12159699  0.13662568  1
  Sr  Sr219  1  0.12483615  0.87840301  0.63662568  1
  Sr  Sr220  1  0.62159699  0.36337432  0.62483615  1
  Sr  Sr221  1  0.62483615  0.62159699  0.36337432  1
  Sr  Sr222  1  0.37840301  0.86337432  0.87516385  1
  Sr  Sr223  1  0.87840301  0.63662568  0.12483615  1
  Sr  Sr224  1  0.87516385  0.37840301  0.86337432  1
  Sr  Sr225  1  0.63662568  0.12483615  0.87840301  1
  Sr  Sr226  1  0.86337432  0.87516385  0.37840301  1
  Sr  Sr227  1  0.36337432  0.62483615  0.62159699  1
  Sr  Sr228  1  0.86337432  0.62483615  0.87840301  1
  Sr  Sr229  1  0.87840301  0.86337432  0.62483615  1
  Sr  Sr230  1  0.62483615  0.87840301  0.86337432  1
  Sr  Sr231  1  0.87516385  0.12159699  0.36337432  1
  Sr  Sr232  1  0.37840301  0.63662568  0.37516385  1
  Sr  Sr233  1  0.37516385  0.37840301  0.63662568  1
  Sr  Sr234  1  0.62159699  0.13662568  0.12483615  1
  Sr  Sr235  1  0.12159699  0.36337432  0.87516385  1
  Sr  Sr236  1  0.12483615  0.62159699  0.13662568  1
  Sr  Sr237  1  0.36337432  0.87516385  0.12159699  1
  Sr  Sr238  1  0.13662568  0.12483615  0.62159699  1
  Sr  Sr239  1  0.63662568  0.37516385  0.37840301  1
  Sr  Sr240  1  0.37883888  0.38274677  0.12392414  1
  Sr  Sr241  1  0.12392414  0.37883888  0.38274677  1
  Sr  Sr242  1  0.38274677  0.12392414  0.37883888  1
  Sr  Sr243  1  0.11725323  0.87607586  0.87883888  1
  Sr  Sr244  1  0.62392414  0.12116112  0.61725323  1
  Sr  Sr245  1  0.61725323  0.62392414  0.12116112  1
  Sr  Sr246  1  0.37607586  0.62116112  0.88274677  1
  Sr  Sr247  1  0.87607586  0.87883888  0.11725323  1
  Sr  Sr248  1  0.88274677  0.37607586  0.62116112  1
  Sr  Sr249  1  0.87883888  0.11725323  0.87607586  1
  Sr  Sr250  1  0.62116112  0.88274677  0.37607586  1
  Sr  Sr251  1  0.12116112  0.61725323  0.62392414  1
  Sr  Sr252  1  0.62116112  0.61725323  0.87607586  1
  Sr  Sr253  1  0.87607586  0.62116112  0.61725323  1
  Sr  Sr254  1  0.61725323  0.87607586  0.62116112  1
  Sr  Sr255  1  0.88274677  0.12392414  0.12116112  1
  Sr  Sr256  1  0.37607586  0.87883888  0.38274677  1
  Sr  Sr257  1  0.38274677  0.37607586  0.87883888  1
  Sr  Sr258  1  0.62392414  0.37883888  0.11725323  1
  Sr  Sr259  1  0.12392414  0.12116112  0.88274677  1
  Sr  Sr260  1  0.11725323  0.62392414  0.37883888  1
  Sr  Sr261  1  0.12116112  0.88274677  0.12392414  1
  Sr  Sr262  1  0.37883888  0.11725323  0.62392414  1
  Sr  Sr263  1  0.87883888  0.38274677  0.37607586  1
