# generated using pymatgen
data_Sr2SnO4
_symmetry_space_group_name_H-M   'P 1'
_cell_length_a   5.72395786
_cell_length_b   5.81373830
_cell_length_c   6.90464677
_cell_angle_alpha   90.00000000
_cell_angle_beta   114.48785449
_cell_angle_gamma   90.00000000
_symmetry_Int_Tables_number   1
_chemical_formula_structural   Sr2SnO4
_chemical_formula_sum   'Sr4 Sn2 O8'
_cell_volume   209.10201791
_cell_formula_units_Z   2
loop_
 _symmetry_equiv_pos_site_id
 _symmetry_equiv_pos_as_xyz
  1  'x, y, z'
loop_
 _atom_site_type_symbol
 _atom_site_label
 _atom_site_symmetry_multiplicity
 _atom_site_fract_x
 _atom_site_fract_y
 _atom_site_fract_z
 _atom_site_occupancy
  Sr  Sr0  1  0.14690198  0.48782758  0.29380497  1
  Sr  Sr1  1  0.85309802  0.51217242  0.70619603  1
  Sr  Sr2  1  0.35309802  0.98782758  0.70619603  1
  Sr  Sr3  1  0.64690198  0.01217242  0.29380497  1
  Sn  Sn4  1  0.50000000  0.50000000  -0.00000000  1
  Sn  Sn5  1  -0.00000000  -0.00000000  -0.00000000  1
  O  O6  1  0.33727366  0.54714000  0.67454932  1
  O  O7  1  0.66272634  0.45286000  0.32545068  1
  O  O8  1  0.16272634  0.04714000  0.32545068  1
  O  O9  1  0.83727366  0.95286000  0.67454932  1
  O  O10  1  0.23305084  0.25000000  0.96610368  1
  O  O11  1  0.26694916  0.75000000  0.03389632  1
  O  O12  1  0.73305084  0.25000000  0.96610368  1
  O  O13  1  0.76694916  0.75000000  0.03389632  1
