# generated using pymatgen
data_HoTaO4
_symmetry_space_group_name_H-M   'P 1'
_cell_length_a   5.05083264
_cell_length_b   5.29953956
_cell_length_c   6.47320146
_cell_angle_alpha   111.87127597
_cell_angle_beta   110.58741784
_cell_angle_gamma   95.41100316
_symmetry_Int_Tables_number   1
_chemical_formula_structural   HoTaO4
_chemical_formula_sum   'Ho2 Ta2 O8'
_cell_volume   145.37873408
_cell_formula_units_Z   2
loop_
 _symmetry_equiv_pos_site_id
 _symmetry_equiv_pos_as_xyz
  1  'x, y, z'
loop_
 _atom_site_type_symbol
 _atom_site_label
 _atom_site_symmetry_multiplicity
 _atom_site_fract_x
 _atom_site_fract_y
 _atom_site_fract_z
 _atom_site_occupancy
  Ho  Ho0  1  0.38154505  0.63156953  0.26314474  1
  Ho  Ho1  1  0.61845495  0.36843047  0.73685626  1
  Ta  Ta2  1  0.85227474  0.10231143  0.20469443  1
  Ta  Ta3  1  0.14772526  0.89768857  0.79530557  1
  O  O4  1  0.00231345  0.78747751  0.06277491  1
  O  O5  1  0.56045340  0.27527594  0.06274211  1
  O  O6  1  0.99768655  0.21252249  0.93722509  1
  O  O7  1  0.43954660  0.72472406  0.93725789  1
  O  O8  1  0.20912208  0.37008994  0.42149511  1
  O  O9  1  0.71236190  0.05138121  0.42153226  1
  O  O10  1  0.79087792  0.62991006  0.57850489  1
  O  O11  1  0.28763810  0.94861879  0.57846774  1
