# generated using pymatgen
data_Li2SeO4
_symmetry_space_group_name_H-M   'P 1'
_cell_length_a   8.61882476
_cell_length_b   8.61882476
_cell_length_c   8.61882491
_cell_angle_alpha   107.80369941
_cell_angle_beta   107.80369940
_cell_angle_gamma   107.80369968
_symmetry_Int_Tables_number   1
_chemical_formula_structural   Li2SeO4
_chemical_formula_sum   'Li12 Se6 O24'
_cell_volume   521.06797266
_cell_formula_units_Z   6
loop_
 _symmetry_equiv_pos_site_id
 _symmetry_equiv_pos_as_xyz
  1  'x, y, z'
loop_
 _atom_site_type_symbol
 _atom_site_label
 _atom_site_symmetry_multiplicity
 _atom_site_fract_x
 _atom_site_fract_y
 _atom_site_fract_z
 _atom_site_occupancy
  Li  Li0  1  0.29509654  0.06539129  0.89232337  1
  Li  Li1  1  0.06539129  0.89232337  0.29509654  1
  Li  Li2  1  0.89232337  0.29509654  0.06539129  1
  Li  Li3  1  0.70490346  0.93460871  0.10767663  1
  Li  Li4  1  0.93460871  0.10767663  0.70490346  1
  Li  Li5  1  0.10767663  0.70490346  0.93460871  1
  Li  Li6  1  0.62237670  0.39977621  0.22237186  1
  Li  Li7  1  0.39977621  0.22237186  0.62237670  1
  Li  Li8  1  0.22237186  0.62237670  0.39977621  1
  Li  Li9  1  0.37762330  0.60022379  0.77762814  1
  Li  Li10  1  0.60022379  0.77762814  0.37762330  1
  Li  Li11  1  0.77762814  0.37762330  0.60022379  1
  Se  Se12  1  0.96182292  0.73609522  0.55099345  1
  Se  Se13  1  0.44900655  0.03817708  0.26390478  1
  Se  Se14  1  0.26390478  0.44900655  0.03817708  1
  Se  Se15  1  0.03817708  0.26390478  0.44900655  1
  Se  Se16  1  0.55099345  0.96182292  0.73609522  1
  Se  Se17  1  0.73609522  0.55099345  0.96182292  1
  O  O18  1  0.52473732  0.47236925  0.81112939  1
  O  O19  1  0.52763075  0.18887061  0.47526268  1
  O  O20  1  0.47526268  0.52763075  0.18887061  1
  O  O21  1  0.18887061  0.47526268  0.52763075  1
  O  O22  1  0.47236925  0.81112939  0.52473732  1
  O  O23  1  0.14722014  0.13788495  0.46645993  1
  O  O24  1  0.85277986  0.86211505  0.53354007  1
  O  O25  1  0.86211505  0.53354007  0.85277986  1
  O  O26  1  0.53354007  0.85277986  0.86211505  1
  O  O27  1  0.92356751  0.25162012  0.57011096  1
  O  O28  1  0.13788495  0.46645993  0.14722014  1
  O  O29  1  0.46645993  0.14722014  0.13788495  1
  O  O30  1  0.07643249  0.74837988  0.42988904  1
  O  O31  1  0.74837988  0.42988904  0.07643249  1
  O  O32  1  0.42988904  0.07643249  0.74837988  1
  O  O33  1  0.23355830  0.89713790  0.18536551  1
  O  O34  1  0.25162012  0.57011096  0.92356751  1
  O  O35  1  0.57011096  0.92356751  0.25162012  1
  O  O36  1  0.10286210  0.81463449  0.76644170  1
  O  O37  1  0.81463449  0.76644170  0.10286210  1
  O  O38  1  0.76644170  0.10286210  0.81463449  1
  O  O39  1  0.89713790  0.18536551  0.23355830  1
  O  O40  1  0.18536551  0.23355830  0.89713790  1
  O  O41  1  0.81112939  0.52473732  0.47236925  1
