# generated using pymatgen
data_Sr2Sb2O7
_symmetry_space_group_name_H-M   'P 1'
_cell_length_a   7.47837755
_cell_length_b   7.47837806
_cell_length_c   7.47837807
_cell_angle_alpha   119.96914218
_cell_angle_beta   117.85153218
_cell_angle_gamma   91.90742880
_symmetry_Int_Tables_number   1
_chemical_formula_structural   Sr2Sb2O7
_chemical_formula_sum   'Sr4 Sb4 O14'
_cell_volume   300.30559622
_cell_formula_units_Z   2
loop_
 _symmetry_equiv_pos_site_id
 _symmetry_equiv_pos_as_xyz
  1  'x, y, z'
loop_
 _atom_site_type_symbol
 _atom_site_label
 _atom_site_symmetry_multiplicity
 _atom_site_fract_x
 _atom_site_fract_y
 _atom_site_fract_z
 _atom_site_occupancy
  Sr  Sr0  1  0.49999989  0.49999995  0.49999990  1
  Sr  Sr1  1  0.50000001  -0.00000005  -0.00000000  1
  Sr  Sr2  1  0.50000000  0.50000001  -0.00000003  1
  Sr  Sr3  1  -0.00000003  0.00000002  0.00000008  1
  Sb  Sb4  1  0.00000000  0.49999998  0.00000002  1
  Sb  Sb5  1  0.00000005  0.00000004  0.50000004  1
  Sb  Sb6  1  0.00000018  0.50000007  0.50000012  1
  Sb  Sb7  1  0.50000003  -0.00000000  0.50000009  1
  O  O8  1  0.95048967  0.58397940  0.77227876  1
  O  O9  1  0.04951032  0.82178915  0.63348980  1
  O  O10  1  0.68829951  0.91602057  0.36651046  1
  O  O11  1  0.31170060  0.67821082  0.22772119  1
  O  O12  1  0.04951032  0.41602056  0.22772117  1
  O  O13  1  0.95048974  0.17821087  0.36651026  1
  O  O14  1  0.31170048  0.08397945  0.63348952  1
  O  O15  1  0.68829940  0.32178921  0.77227886  1
  O  O16  1  0.09661817  0.25000010  0.84661814  1
  O  O17  1  0.90338187  0.74999994  0.15338191  1
  O  O18  1  0.69075673  0.40880370  0.28195268  1
  O  O19  1  0.30924312  0.59119622  0.71804708  1
  O  O20  1  0.37314892  0.09119589  0.28195261  1
  O  O21  1  0.62685101  0.90880410  0.71804733  1
