# generated using pymatgen
data_Zr(SO4)2
_symmetry_space_group_name_H-M   'P 1'
_cell_length_a   5.45387804
_cell_length_b   8.61849205
_cell_length_c   10.92225815
_cell_angle_alpha   90.00000000
_cell_angle_beta   90.00000000
_cell_angle_gamma   90.00000000
_symmetry_Int_Tables_number   1
_chemical_formula_structural   Zr(SO4)2
_chemical_formula_sum   'Zr4 S8 O32'
_cell_volume   513.39205601
_cell_formula_units_Z   4
loop_
 _symmetry_equiv_pos_site_id
 _symmetry_equiv_pos_as_xyz
  1  'x, y, z'
loop_
 _atom_site_type_symbol
 _atom_site_label
 _atom_site_symmetry_multiplicity
 _atom_site_fract_x
 _atom_site_fract_y
 _atom_site_fract_z
 _atom_site_occupancy
  Zr  Zr0  1  0.25000000  0.25466360  0.89537903  1
  Zr  Zr1  1  0.75000000  0.74533640  0.10462097  1
  Zr  Zr2  1  0.25000000  0.75466360  0.60462097  1
  Zr  Zr3  1  0.75000000  0.24533640  0.39537903  1
  S  S4  1  0.75000000  0.49950660  0.84388982  1
  S  S5  1  0.25000000  0.50049340  0.15611018  1
  S  S6  1  0.75000000  0.99950660  0.65611018  1
  S  S7  1  0.25000000  0.00049340  0.34388982  1
  S  S8  1  0.25000000  0.35293998  0.59200536  1
  S  S9  1  0.75000000  0.64706002  0.40799464  1
  S  S10  1  0.25000000  0.85293998  0.90799464  1
  S  S11  1  0.75000000  0.14706002  0.09200536  1
  O  O12  1  0.25000000  0.42879939  0.03385892  1
  O  O13  1  0.75000000  0.57120061  0.96614108  1
  O  O14  1  0.25000000  0.92879939  0.46614108  1
  O  O15  1  0.75000000  0.07120061  0.53385892  1
  O  O16  1  0.25000000  0.39281872  0.25478156  1
  O  O17  1  0.75000000  0.60718128  0.74521844  1
  O  O18  1  0.25000000  0.89281872  0.24521844  1
  O  O19  1  0.75000000  0.10718128  0.75478156  1
  O  O20  1  0.52996942  0.66701187  0.48300414  1
  O  O21  1  0.02996942  0.33298813  0.51699586  1
  O  O22  1  0.97003058  0.16701187  0.01699586  1
  O  O23  1  0.47003058  0.83298813  0.98300414  1
  O  O24  1  0.03352080  0.10431078  0.33780472  1
  O  O25  1  0.53352080  0.89568922  0.66219528  1
  O  O26  1  0.46647920  0.60431078  0.16219528  1
  O  O27  1  0.96647920  0.39568922  0.83780472  1
  O  O28  1  0.96647920  0.89568922  0.66219528  1
  O  O29  1  0.46647920  0.10431078  0.33780472  1
  O  O30  1  0.53352080  0.39568922  0.83780472  1
  O  O31  1  0.03352080  0.60431078  0.16219528  1
  O  O32  1  0.75000000  0.26175170  0.19126545  1
  O  O33  1  0.25000000  0.73824830  0.80873455  1
  O  O34  1  0.75000000  0.76175170  0.30873455  1
  O  O35  1  0.25000000  0.23824830  0.69126545  1
  O  O36  1  0.75000000  0.48888773  0.35711379  1
  O  O37  1  0.25000000  0.51111227  0.64288621  1
  O  O38  1  0.75000000  0.98888773  0.14288621  1
  O  O39  1  0.25000000  0.01111227  0.85711379  1
  O  O40  1  0.52996942  0.16701187  0.01699586  1
  O  O41  1  0.02996942  0.83298813  0.98300414  1
  O  O42  1  0.97003058  0.66701187  0.48300414  1
  O  O43  1  0.47003058  0.33298813  0.51699586  1
