# generated using pymatgen
data_Ca3Er3Ge2BO13
_symmetry_space_group_name_H-M   'P 1'
_cell_length_a   7.33760017
_cell_length_b   7.34663183
_cell_length_c   10.39205278
_cell_angle_alpha   90.00000000
_cell_angle_beta   90.00000000
_cell_angle_gamma   90.00000000
_symmetry_Int_Tables_number   1
_chemical_formula_structural   Ca3Er3Ge2BO13
_chemical_formula_sum   'Ca6 Er6 Ge4 B2 O26'
_cell_volume   560.20072045
_cell_formula_units_Z   2
loop_
 _symmetry_equiv_pos_site_id
 _symmetry_equiv_pos_as_xyz
  1  'x, y, z'
loop_
 _atom_site_type_symbol
 _atom_site_label
 _atom_site_symmetry_multiplicity
 _atom_site_fract_x
 _atom_site_fract_y
 _atom_site_fract_z
 _atom_site_occupancy
  Ca  Ca0  1  0.72882270  0.77037625  0.50196888  1
  Ca  Ca1  1  -0.00000000  0.50000000  0.23054787  1
  Ca  Ca2  1  0.77117730  0.27037625  0.00196888  1
  Ca  Ca3  1  0.50000000  0.00000000  0.73054787  1
  Ca  Ca4  1  0.22882270  0.72962375  0.00196888  1
  Ca  Ca5  1  0.27117730  0.22962375  0.50196888  1
  Er  Er6  1  0.22751424  0.27286485  0.00176837  1
  Er  Er7  1  0.72751424  0.22713515  0.50176837  1
  Er  Er8  1  0.50000000  0.00000000  0.27457409  1
  Er  Er9  1  0.27248576  0.77286485  0.50176837  1
  Er  Er10  1  0.77248576  0.72713515  0.00176837  1
  Er  Er11  1  -0.00000000  0.50000000  0.77457409  1
  Ge  Ge12  1  0.50000000  0.50000000  0.24741176  1
  Ge  Ge13  1  -0.00000000  0.00000000  0.74741176  1
  Ge  Ge14  1  0.50000000  0.50000000  0.74560528  1
  Ge  Ge15  1  -0.00000000  0.00000000  0.24560528  1
  B  B16  1  0.50000000  0.00000000  0.00429535  1
  B  B17  1  -0.00000000  0.50000000  0.50429535  1
  O  O18  1  -0.00000000  0.50000000  0.99134897  1
  O  O19  1  0.00888898  0.19922749  0.84635808  1
  O  O20  1  0.50000000  0.00000000  0.49134897  1
  O  O21  1  0.80410155  0.00912162  0.64795523  1
  O  O22  1  0.99111102  0.80077251  0.84635808  1
  O  O23  1  0.49111102  0.69922749  0.34635808  1
  O  O24  1  0.83474660  0.49298586  0.42482529  1
  O  O25  1  0.30410155  0.49087838  0.14795523  1
  O  O26  1  0.69589845  0.50912162  0.14795523  1
  O  O27  1  0.50888898  0.30077251  0.34635808  1
  O  O28  1  0.49441112  0.16321703  0.08929351  1
  O  O29  1  0.66525340  0.99298586  0.92482529  1
  O  O30  1  0.33474660  0.00701414  0.92482529  1
  O  O31  1  0.19589845  0.99087838  0.64795523  1
  O  O32  1  0.80352671  0.01468068  0.34283112  1
  O  O33  1  0.50558888  0.83678297  0.08929351  1
  O  O34  1  0.48435687  0.69310695  0.64813736  1
  O  O35  1  0.00558888  0.66321703  0.58929351  1
  O  O36  1  0.69647329  0.51468068  0.84283112  1
  O  O37  1  0.16525340  0.50701414  0.42482529  1
  O  O38  1  0.30352671  0.48531932  0.84283112  1
  O  O39  1  0.99441112  0.33678297  0.58929351  1
  O  O40  1  0.51564313  0.30689305  0.64813736  1
  O  O41  1  0.01564313  0.19310695  0.14813736  1
  O  O42  1  0.19647329  0.98531932  0.34283112  1
  O  O43  1  0.98435687  0.80689305  0.14813736  1
