# generated using pymatgen
data_Tl2SeO4
_symmetry_space_group_name_H-M   'P 1'
_cell_length_a   5.84525762
_cell_length_b   7.96051042
_cell_length_c   11.34329400
_cell_angle_alpha   90.00000000
_cell_angle_beta   90.00000000
_cell_angle_gamma   90.00000000
_symmetry_Int_Tables_number   1
_chemical_formula_structural   Tl2SeO4
_chemical_formula_sum   'Tl8 Se4 O16'
_cell_volume   527.81746962
_cell_formula_units_Z   4
loop_
 _symmetry_equiv_pos_site_id
 _symmetry_equiv_pos_as_xyz
  1  'x, y, z'
loop_
 _atom_site_type_symbol
 _atom_site_label
 _atom_site_symmetry_multiplicity
 _atom_site_fract_x
 _atom_site_fract_y
 _atom_site_fract_z
 _atom_site_occupancy
  Tl  Tl0  1  0.25000000  0.17790313  0.91164424  1
  Tl  Tl1  1  0.75000000  0.82209687  0.08835576  1
  Tl  Tl2  1  0.25000000  0.67790313  0.58835576  1
  Tl  Tl3  1  0.75000000  0.32209687  0.41164424  1
  Tl  Tl4  1  0.25000000  0.97408154  0.27357756  1
  Tl  Tl5  1  0.75000000  0.02591846  0.72642244  1
  Tl  Tl6  1  0.25000000  0.47408154  0.22642244  1
  Tl  Tl7  1  0.75000000  0.52591846  0.77357756  1
  Se  Se8  1  0.25000000  0.21301477  0.57137175  1
  Se  Se9  1  0.75000000  0.78698523  0.42862825  1
  Se  Se10  1  0.25000000  0.71301477  0.92862825  1
  Se  Se11  1  0.75000000  0.28698523  0.07137175  1
  O  O12  1  0.25000000  0.01556137  0.61660994  1
  O  O13  1  0.75000000  0.98443863  0.38339006  1
  O  O14  1  0.25000000  0.51556137  0.88339006  1
  O  O15  1  0.75000000  0.48443863  0.11660994  1
  O  O16  1  0.25000000  0.22757785  0.42489947  1
  O  O17  1  0.75000000  0.77242215  0.57510053  1
  O  O18  1  0.25000000  0.72757785  0.07510053  1
  O  O19  1  0.75000000  0.27242215  0.92489947  1
  O  O20  1  0.51527319  0.69116182  0.38026557  1
  O  O21  1  0.01527319  0.30883818  0.61973443  1
  O  O22  1  0.98472681  0.19116182  0.11973443  1
  O  O23  1  0.48472681  0.80883818  0.88026557  1
  O  O24  1  0.51527319  0.19116182  0.11973443  1
  O  O25  1  0.01527319  0.80883818  0.88026557  1
  O  O26  1  0.98472681  0.69116182  0.38026557  1
  O  O27  1  0.48472681  0.30883818  0.61973443  1
