# generated using pymatgen
data_In14Ga3Pt2O8F15
_symmetry_space_group_name_H-M   'P 1'
_cell_length_a   15.79182239
_cell_length_b   15.79182239
_cell_length_c   15.79182221
_cell_angle_alpha   26.10504835
_cell_angle_beta   26.10504836
_cell_angle_gamma   26.10504919
_symmetry_Int_Tables_number   1
_chemical_formula_structural   In14Ga3Pt2O8F15
_chemical_formula_sum   'In14 Ga3 Pt2 O8 F15'
_cell_volume   671.75579222
_cell_formula_units_Z   1
loop_
 _symmetry_equiv_pos_site_id
 _symmetry_equiv_pos_as_xyz
  1  'x, y, z'
loop_
 _atom_site_type_symbol
 _atom_site_label
 _atom_site_symmetry_multiplicity
 _atom_site_fract_x
 _atom_site_fract_y
 _atom_site_fract_z
 _atom_site_occupancy
  In  In0  1  0.14879383  0.14879383  0.14879383  1
  In  In1  1  0.70291384  0.19273043  0.19408311  1
  In  In2  1  0.19408311  0.70291384  0.19273043  1
  In  In3  1  0.19273043  0.19408311  0.70291384  1
  In  In4  1  0.61225113  0.58412392  0.09149150  1
  In  In5  1  0.09149150  0.61225113  0.58412392  1
  In  In6  1  0.58412392  0.09149150  0.61225113  1
  In  In7  1  0.90850850  0.38774887  0.41587608  1
  In  In8  1  0.41587608  0.90850850  0.38774887  1
  In  In9  1  0.38774887  0.41587608  0.90850850  1
  In  In10  1  0.80726957  0.80591689  0.29708616  1
  In  In11  1  0.80591689  0.29708616  0.80726957  1
  In  In12  1  0.29708616  0.80726957  0.80591689  1
  In  In13  1  0.85120617  0.85120617  0.85120617  1
  Ga  Ga14  1  0.29997791  0.29997791  0.29997791  1
  Ga  Ga15  1  0.50000000  0.50000000  0.50000000  1
  Ga  Ga16  1  0.70002209  0.70002209  0.70002209  1
  Pt  Pt17  1  0.39651794  0.39651794  0.39651794  1
  Pt  Pt18  1  0.60348206  0.60348206  0.60348206  1
  O  O19  1  0.25884428  0.25884428  0.25884428  1
  O  O20  1  0.59747792  0.17190880  0.17246071  1
  O  O21  1  0.17246071  0.59747792  0.17190880  1
  O  O22  1  0.17190880  0.17246071  0.59747792  1
  O  O23  1  0.82809120  0.82753929  0.40252208  1
  O  O24  1  0.40252208  0.82809120  0.82753929  1
  O  O25  1  0.82753929  0.40252208  0.82809120  1
  O  O26  1  0.74115572  0.74115572  0.74115572  1
  F  F27  1  -0.00000000  0.00000000  0.00000000  1
  F  F28  1  0.05421322  0.05421322  0.05421322  1
  F  F29  1  0.54763513  0.06975425  0.04178520  1
  F  F30  1  0.04178520  0.54763513  0.06975425  1
  F  F31  1  0.06975425  0.04178520  0.54763513  1
  F  F32  1  0.63249299  0.57128349  0.22546903  1
  F  F33  1  0.22546903  0.63249299  0.57128349  1
  F  F34  1  0.57128349  0.22546903  0.63249299  1
  F  F35  1  0.42871651  0.77453097  0.36750701  1
  F  F36  1  0.77453097  0.36750701  0.42871651  1
  F  F37  1  0.36750701  0.42871651  0.77453097  1
  F  F38  1  0.93024575  0.95821480  0.45236487  1
  F  F39  1  0.45236487  0.93024575  0.95821480  1
  F  F40  1  0.95821480  0.45236487  0.93024575  1
  F  F41  1  0.94578678  0.94578678  0.94578678  1
