# generated using pymatgen
data_Li2ZrO3
_symmetry_space_group_name_H-M   'P 1'
_cell_length_a   5.24719916
_cell_length_b   5.24719971
_cell_length_c   5.38495908
_cell_angle_alpha   100.90240721
_cell_angle_beta   100.90240758
_cell_angle_gamma   118.70868150
_symmetry_Int_Tables_number   1
_chemical_formula_structural   Li2ZrO3
_chemical_formula_sum   'Li4 Zr2 O6'
_cell_volume   120.75560586
_cell_formula_units_Z   2
loop_
 _symmetry_equiv_pos_site_id
 _symmetry_equiv_pos_as_xyz
  1  'x, y, z'
loop_
 _atom_site_type_symbol
 _atom_site_label
 _atom_site_symmetry_multiplicity
 _atom_site_fract_x
 _atom_site_fract_y
 _atom_site_fract_z
 _atom_site_occupancy
  Li  Li0  1  0.74026147  0.25973853  0.25000000  1
  Li  Li1  1  0.25973853  0.74026147  0.75000000  1
  Li  Li2  1  0.42416294  0.57583706  0.25000000  1
  Li  Li3  1  0.57583706  0.42416294  0.75000000  1
  Zr  Zr4  1  0.09130171  0.90869829  0.25000000  1
  Zr  Zr5  1  0.90869829  0.09130171  0.75000000  1
  O  O6  1  0.00000000  0.50000000  -0.00000000  1
  O  O7  1  0.69200019  0.84375491  0.98826426  1
  O  O8  1  0.84375491  0.69200019  0.48826426  1
  O  O9  1  0.30799981  0.15624509  0.01173574  1
  O  O10  1  0.15624509  0.30799981  0.51173574  1
  O  O11  1  0.50000000  0.00000000  0.50000000  1
