# generated using pymatgen
data_CaSiO3
_symmetry_space_group_name_H-M   'P 1'
_cell_length_a   7.08438356
_cell_length_b   7.32527090
_cell_length_c   7.93316009
_cell_angle_alpha   103.39798125
_cell_angle_beta   95.28069284
_cell_angle_gamma   90.04923166
_symmetry_Int_Tables_number   1
_chemical_formula_structural   CaSiO3
_chemical_formula_sum   'Ca6 Si6 O18'
_cell_volume   398.68262690
_cell_formula_units_Z   6
loop_
 _symmetry_equiv_pos_site_id
 _symmetry_equiv_pos_as_xyz
  1  'x, y, z'
loop_
 _atom_site_type_symbol
 _atom_site_label
 _atom_site_symmetry_multiplicity
 _atom_site_fract_x
 _atom_site_fract_y
 _atom_site_fract_z
 _atom_site_occupancy
  Ca  Ca0  1  0.52918590  0.75068446  0.50524472  1
  Ca  Ca1  1  0.47081410  0.24931554  0.49475528  1
  Ca  Ca2  1  0.76364872  0.92989891  0.20442793  1
  Ca  Ca3  1  0.23635128  0.07010109  0.79557207  1
  Ca  Ca4  1  0.76065113  0.42335871  0.20003600  1
  Ca  Ca5  1  0.23934887  0.57664129  0.79996400  1
  Si  Si6  1  0.05696622  0.72341271  0.39696491  1
  Si  Si7  1  0.94303378  0.27658729  0.60303509  1
  Si  Si8  1  0.26950533  0.95395497  0.18492554  1
  Si  Si9  1  0.73049467  0.04604503  0.81507446  1
  Si  Si10  1  0.26908285  0.38778266  0.18469877  1
  Si  Si11  1  0.73091715  0.61221734  0.81530123  1
  O  O12  1  0.09297010  0.51255413  0.27230772  1
  O  O13  1  0.90702990  0.48744587  0.72769228  1
  O  O14  1  0.09394758  0.87094549  0.27102482  1
  O  O15  1  0.90605242  0.12905451  0.72897518  1
  O  O16  1  0.22706610  0.17916455  0.21953336  1
  O  O17  1  0.77293390  0.82083545  0.78046664  1
  O  O18  1  0.83045361  0.72642752  0.40268110  1
  O  O19  1  0.16954639  0.27357248  0.59731890  1
  O  O20  1  0.26379068  0.86708374  0.98041180  1
  O  O21  1  0.73620932  0.13291626  0.01958820  1
  O  O22  1  0.26528931  0.37297299  0.98136777  1
  O  O23  1  0.73471069  0.62702701  0.01863223  1
  O  O24  1  0.53607222  0.53630885  0.69666629  1
  O  O25  1  0.46392778  0.46369115  0.30333371  1
  O  O26  1  0.53495123  0.06323748  0.69833771  1
  O  O27  1  0.46504877  0.93676252  0.30166229  1
  O  O28  1  0.79944559  0.23163364  0.42895211  1
  O  O29  1  0.20055441  0.76836636  0.57104789  1
