# generated using pymatgen
data_NaTaO3
_symmetry_space_group_name_H-M   'P 1'
_cell_length_a   5.49189032
_cell_length_b   5.49188983
_cell_length_c   7.82031063
_cell_angle_alpha   90.00000000
_cell_angle_beta   90.00000000
_cell_angle_gamma   90.60646770
_symmetry_Int_Tables_number   1
_chemical_formula_structural   NaTaO3
_chemical_formula_sum   'Na4 Ta4 O12'
_cell_volume   235.85405428
_cell_formula_units_Z   4
loop_
 _symmetry_equiv_pos_site_id
 _symmetry_equiv_pos_as_xyz
  1  'x, y, z'
loop_
 _atom_site_type_symbol
 _atom_site_label
 _atom_site_symmetry_multiplicity
 _atom_site_fract_x
 _atom_site_fract_y
 _atom_site_fract_z
 _atom_site_occupancy
  Na  Na0  1  0.98815264  0.01184736  0.75000000  1
  Na  Na1  1  0.01184736  0.98815264  0.25000000  1
  Na  Na2  1  0.49755946  0.50244054  0.75000000  1
  Na  Na3  1  0.50244054  0.49755946  0.25000000  1
  Ta  Ta4  1  0.50000000  0.00000000  0.00000000  1
  Ta  Ta5  1  0.50000000  0.00000000  0.50000000  1
  Ta  Ta6  1  0.00000000  0.50000000  0.00000000  1
  Ta  Ta7  1  0.00000000  0.50000000  0.50000000  1
  O  O8  1  0.96485753  0.45191542  0.75000000  1
  O  O9  1  0.03514247  0.54808458  0.25000000  1
  O  O10  1  0.45191542  0.96485753  0.25000000  1
  O  O11  1  0.54808458  0.03514247  0.75000000  1
  O  O12  1  0.20843685  0.79156315  0.54036991  1
  O  O13  1  0.79156315  0.20843685  0.04036991  1
  O  O14  1  0.79156315  0.20843685  0.45963009  1
  O  O15  1  0.20843685  0.79156315  0.95963009  1
  O  O16  1  0.29348096  0.29348096  0.00000000  1
  O  O17  1  0.70651904  0.70651904  0.50000000  1
  O  O18  1  0.70651904  0.70651904  0.00000000  1
  O  O19  1  0.29348096  0.29348096  0.50000000  1
