# generated using pymatgen
data_Sm3S3N
_symmetry_space_group_name_H-M   'P 1'
_cell_length_a   3.94811565
_cell_length_b   12.17627999
_cell_length_c   13.02505979
_cell_angle_alpha   90.00000000
_cell_angle_beta   90.00000000
_cell_angle_gamma   90.00000000
_symmetry_Int_Tables_number   1
_chemical_formula_structural   Sm3S3N
_chemical_formula_sum   'Sm12 S12 N4'
_cell_volume   626.15840898
_cell_formula_units_Z   4
loop_
 _symmetry_equiv_pos_site_id
 _symmetry_equiv_pos_as_xyz
  1  'x, y, z'
loop_
 _atom_site_type_symbol
 _atom_site_label
 _atom_site_symmetry_multiplicity
 _atom_site_fract_x
 _atom_site_fract_y
 _atom_site_fract_z
 _atom_site_occupancy
  Sm  Sm0  1  0.25000000  0.54533390  0.64653703  1
  Sm  Sm1  1  0.75000000  0.45466610  0.35346297  1
  Sm  Sm2  1  0.25000000  0.04533390  0.85346297  1
  Sm  Sm3  1  0.75000000  0.95466610  0.14653703  1
  Sm  Sm4  1  0.25000000  0.71547030  0.36316657  1
  Sm  Sm5  1  0.75000000  0.28452970  0.63683343  1
  Sm  Sm6  1  0.25000000  0.21547030  0.13683343  1
  Sm  Sm7  1  0.75000000  0.78452970  0.86316657  1
  Sm  Sm8  1  0.25000000  0.07329491  0.36997396  1
  Sm  Sm9  1  0.75000000  0.92670509  0.63002604  1
  Sm  Sm10  1  0.25000000  0.57329491  0.13002604  1
  Sm  Sm11  1  0.75000000  0.42670509  0.86997396  1
  S  S12  1  0.75000000  0.72606841  0.19333536  1
  S  S13  1  0.75000000  0.91148764  0.39505082  1
  S  S14  1  0.25000000  0.58851236  0.89505082  1
  S  S15  1  0.25000000  0.08851236  0.60494918  1
  S  S16  1  0.25000000  0.86535672  0.99282221  1
  S  S17  1  0.75000000  0.13464328  0.00717779  1
  S  S18  1  0.25000000  0.36535672  0.50717779  1
  S  S19  1  0.75000000  0.63464328  0.49282221  1
  S  S20  1  0.25000000  0.27393159  0.80666464  1
  S  S21  1  0.75000000  0.22606841  0.30666464  1
  S  S22  1  0.25000000  0.77393159  0.69333536  1
  S  S23  1  0.75000000  0.41148764  0.10494918  1
  N  N24  1  0.75000000  0.95993294  0.79816737  1
  N  N25  1  0.25000000  0.54006706  0.29816737  1
  N  N26  1  0.75000000  0.45993294  0.70183263  1
  N  N27  1  0.25000000  0.04006706  0.20183263  1
