# generated using pymatgen
data_Tl3SbSe3
_symmetry_space_group_name_H-M   'P 1'
_cell_length_a   9.58904355
_cell_length_b   9.58904355
_cell_length_c   9.58904355
_cell_angle_alpha   90.00000000
_cell_angle_beta   90.00000000
_cell_angle_gamma   90.00000000
_symmetry_Int_Tables_number   1
_chemical_formula_structural   Tl3SbSe3
_chemical_formula_sum   'Tl12 Sb4 Se12'
_cell_volume   881.71021665
_cell_formula_units_Z   4
loop_
 _symmetry_equiv_pos_site_id
 _symmetry_equiv_pos_as_xyz
  1  'x, y, z'
loop_
 _atom_site_type_symbol
 _atom_site_label
 _atom_site_symmetry_multiplicity
 _atom_site_fract_x
 _atom_site_fract_y
 _atom_site_fract_z
 _atom_site_occupancy
  Tl  Tl0  1  0.68990332  0.81009668  0.18990332  1
  Tl  Tl1  1  0.81009668  0.18990332  0.68990332  1
  Tl  Tl2  1  0.18990332  0.68990332  0.81009668  1
  Tl  Tl3  1  0.31009668  0.31009668  0.31009668  1
  Tl  Tl4  1  0.45006958  0.04993042  0.95006958  1
  Tl  Tl5  1  0.04993042  0.95006958  0.45006958  1
  Tl  Tl6  1  0.95006958  0.45006958  0.04993042  1
  Tl  Tl7  1  0.54993042  0.54993042  0.54993042  1
  Tl  Tl8  1  0.91218564  0.58781436  0.41218564  1
  Tl  Tl9  1  0.58781436  0.41218564  0.91218564  1
  Tl  Tl10  1  0.41218564  0.91218564  0.58781436  1
  Tl  Tl11  1  0.08781436  0.08781436  0.08781436  1
  Sb  Sb12  1  0.80025043  0.80025043  0.80025043  1
  Sb  Sb13  1  0.69974957  0.19974957  0.30025043  1
  Sb  Sb14  1  0.30025043  0.69974957  0.19974957  1
  Sb  Sb15  1  0.19974957  0.30025043  0.69974957  1
  Se  Se16  1  0.89260252  0.55330461  0.73967777  1
  Se  Se17  1  0.39260252  0.94669539  0.26032223  1
  Se  Se18  1  0.10739748  0.05330461  0.76032223  1
  Se  Se19  1  0.94669539  0.26032223  0.39260252  1
  Se  Se20  1  0.76032223  0.10739748  0.05330461  1
  Se  Se21  1  0.26032223  0.39260252  0.94669539  1
  Se  Se22  1  0.55330461  0.73967777  0.89260252  1
  Se  Se23  1  0.73967777  0.89260252  0.55330461  1
  Se  Se24  1  0.05330461  0.76032223  0.10739748  1
  Se  Se25  1  0.44669539  0.23967777  0.60739748  1
  Se  Se26  1  0.23967777  0.60739748  0.44669539  1
  Se  Se27  1  0.60739748  0.44669539  0.23967777  1
