# generated using pymatgen
data_Th(MoO4)2
_symmetry_space_group_name_H-M   'P 1'
_cell_length_a   9.98866588
_cell_length_b   10.28865824
_cell_length_c   14.51900968
_cell_angle_alpha   90.00000000
_cell_angle_beta   90.00000000
_cell_angle_gamma   90.00000000
_symmetry_Int_Tables_number   1
_chemical_formula_structural   Th(MoO4)2
_chemical_formula_sum   'Th8 Mo16 O64'
_cell_volume   1492.11818217
_cell_formula_units_Z   8
loop_
 _symmetry_equiv_pos_site_id
 _symmetry_equiv_pos_as_xyz
  1  'x, y, z'
loop_
 _atom_site_type_symbol
 _atom_site_label
 _atom_site_symmetry_multiplicity
 _atom_site_fract_x
 _atom_site_fract_y
 _atom_site_fract_z
 _atom_site_occupancy
  Th  Th0  1  0.71822222  0.03164869  0.39037432  1
  Th  Th1  1  0.21822222  0.96835131  0.10962568  1
  Th  Th2  1  0.78177778  0.53164869  0.60962568  1
  Th  Th3  1  0.28177778  0.46835131  0.89037432  1
  Th  Th4  1  0.28177778  0.96835131  0.60962568  1
  Th  Th5  1  0.78177778  0.03164869  0.89037432  1
  Th  Th6  1  0.21822222  0.46835131  0.39037432  1
  Th  Th7  1  0.71822222  0.53164869  0.10962568  1
  Mo  Mo8  1  0.00271583  0.78039797  0.44071924  1
  Mo  Mo9  1  0.50271583  0.21960203  0.05928076  1
  Mo  Mo10  1  0.49728417  0.28039797  0.55928076  1
  Mo  Mo11  1  0.99728417  0.71960203  0.94071924  1
  Mo  Mo12  1  0.99728417  0.21960203  0.55928076  1
  Mo  Mo13  1  0.49728417  0.78039797  0.94071924  1
  Mo  Mo14  1  0.50271583  0.71960203  0.44071924  1
  Mo  Mo15  1  0.00271583  0.28039797  0.05928076  1
  Mo  Mo16  1  0.83382907  0.39102887  0.34400503  1
  Mo  Mo17  1  0.33382907  0.60897113  0.15599497  1
  Mo  Mo18  1  0.66617093  0.89102887  0.65599497  1
  Mo  Mo19  1  0.16617093  0.10897113  0.84400503  1
  Mo  Mo20  1  0.16617093  0.60897113  0.65599497  1
  Mo  Mo21  1  0.66617093  0.39102887  0.84400503  1
  Mo  Mo22  1  0.33382907  0.10897113  0.34400503  1
  Mo  Mo23  1  0.83382907  0.89102887  0.15599497  1
  O  O24  1  0.78809987  0.22815825  0.32241237  1
  O  O25  1  0.28809987  0.77184175  0.17758763  1
  O  O26  1  0.71190013  0.72815825  0.67758763  1
  O  O27  1  0.21190013  0.27184175  0.82241237  1
  O  O28  1  0.21190013  0.77184175  0.67758763  1
  O  O29  1  0.71190013  0.22815825  0.82241237  1
  O  O30  1  0.28809987  0.27184175  0.32241237  1
  O  O31  1  0.78809987  0.72815825  0.17758763  1
  O  O32  1  0.59933671  0.32445408  0.12838753  1
  O  O33  1  0.09933671  0.67554592  0.37161247  1
  O  O34  1  0.90066329  0.82445408  0.87161247  1
  O  O35  1  0.40066329  0.17554592  0.62838753  1
  O  O36  1  0.40066329  0.67554592  0.87161247  1
  O  O37  1  0.90066329  0.32445408  0.62838753  1
  O  O38  1  0.09933671  0.17554592  0.12838753  1
  O  O39  1  0.59933671  0.82445408  0.37161247  1
  O  O40  1  0.50629939  0.08554433  0.32625452  1
  O  O41  1  0.00629939  0.91445567  0.17374548  1
  O  O42  1  0.99370061  0.58554433  0.67374548  1
  O  O43  1  0.49370061  0.41445567  0.82625452  1
  O  O44  1  0.49370061  0.91445567  0.67374548  1
  O  O45  1  0.89769722  0.18280464  0.99074073  1
  O  O46  1  0.99370061  0.08554433  0.82625452  1
  O  O47  1  0.50629939  0.58554433  0.17374548  1
  O  O48  1  0.74114386  0.49471071  0.27199783  1
  O  O49  1  0.24114386  0.50528929  0.22800217  1
  O  O50  1  0.75885614  0.99471071  0.72800217  1
  O  O51  1  0.25885614  0.00528929  0.77199783  1
  O  O52  1  0.25885614  0.50528929  0.72800217  1
  O  O53  1  0.75885614  0.49471071  0.77199783  1
  O  O54  1  0.24114386  0.00528929  0.27199783  1
  O  O55  1  0.74114386  0.99471071  0.22800217  1
  O  O56  1  0.90063146  0.88528909  0.37322365  1
  O  O57  1  0.40063146  0.11471091  0.12677635  1
  O  O58  1  0.59936854  0.38528909  0.62677635  1
  O  O59  1  0.09936854  0.61471091  0.87322365  1
  O  O60  1  0.09936854  0.11471091  0.62677635  1
  O  O61  1  0.59936854  0.88528909  0.87322365  1
  O  O62  1  0.40063146  0.61471091  0.37322365  1
  O  O63  1  0.90063146  0.38528909  0.12677635  1
  O  O64  1  0.89468893  0.62521512  0.01307300  1
  O  O65  1  0.39468893  0.37478488  0.48692700  1
  O  O66  1  0.60531107  0.12521512  0.98692700  1
  O  O67  1  0.10531107  0.87478488  0.51307300  1
  O  O68  1  0.10531107  0.37478488  0.98692700  1
  O  O69  1  0.60531107  0.62521512  0.51307300  1
  O  O70  1  0.39468893  0.87478488  0.01307300  1
  O  O71  1  0.89468893  0.12521512  0.48692700  1
  O  O72  1  0.79899908  0.92680526  0.03944529  1
  O  O73  1  0.29899908  0.07319474  0.46055471  1
  O  O74  1  0.70100092  0.42680526  0.96055471  1
  O  O75  1  0.20100092  0.57319474  0.53944529  1
  O  O76  1  0.20100092  0.07319474  0.96055471  1
  O  O77  1  0.70100092  0.92680526  0.53944529  1
  O  O78  1  0.29899908  0.57319474  0.03944529  1
  O  O79  1  0.79899908  0.42680526  0.46055471  1
  O  O80  1  0.89769722  0.68280464  0.50925927  1
  O  O81  1  0.39769722  0.31719536  0.99074073  1
  O  O82  1  0.60230278  0.18280464  0.49074073  1
  O  O83  1  0.10230278  0.81719536  0.00925927  1
  O  O84  1  0.10230278  0.31719536  0.49074073  1
  O  O85  1  0.60230278  0.68280464  0.00925927  1
  O  O86  1  0.39769722  0.81719536  0.50925927  1
  O  O87  1  0.00629939  0.41445567  0.32625452  1
