# generated using pymatgen
data_K4Sn3Se8
_symmetry_space_group_name_H-M   'P 1'
_cell_length_a   14.59914803
_cell_length_b   14.59914803
_cell_length_c   8.28397833
_cell_angle_alpha   90.00000000
_cell_angle_beta   90.00000000
_cell_angle_gamma   146.91549732
_symmetry_Int_Tables_number   1
_chemical_formula_structural   K4Sn3Se8
_chemical_formula_sum   'K8 Sn6 Se16'
_cell_volume   963.80120760
_cell_formula_units_Z   2
loop_
 _symmetry_equiv_pos_site_id
 _symmetry_equiv_pos_as_xyz
  1  'x, y, z'
loop_
 _atom_site_type_symbol
 _atom_site_label
 _atom_site_symmetry_multiplicity
 _atom_site_fract_x
 _atom_site_fract_y
 _atom_site_fract_z
 _atom_site_occupancy
  K  K0  1  0.10465255  0.89534745  -0.00000000  1
  K  K1  1  0.89534745  0.10465255  -0.00000000  1
  K  K2  1  0.39534745  0.60465255  0.50000000  1
  K  K3  1  0.60465255  0.39534745  0.50000000  1
  K  K4  1  0.76703960  0.23296040  -0.00000000  1
  K  K5  1  0.23296040  0.76703960  -0.00000000  1
  K  K6  1  0.73296040  0.26703960  0.50000000  1
  K  K7  1  0.26703960  0.73296040  0.50000000  1
  Sn  Sn8  1  0.62640846  0.37359154  -0.00000000  1
  Sn  Sn9  1  0.37359154  0.62640846  -0.00000000  1
  Sn  Sn10  1  0.87359154  0.12640846  0.50000000  1
  Sn  Sn11  1  0.12640846  0.87359154  0.50000000  1
  Sn  Sn12  1  0.50000000  0.50000000  -0.00000000  1
  Sn  Sn13  1  -0.00000000  -0.00000000  0.50000000  1
  Se  Se14  1  0.77717308  0.89882828  0.66195832  1
  Se  Se15  1  0.89882828  0.77717308  0.33804168  1
  Se  Se16  1  0.27717308  0.39882828  0.83804168  1
  Se  Se17  1  0.10117172  0.22282692  0.33804168  1
  Se  Se18  1  0.39882828  0.27717308  0.16195832  1
  Se  Se19  1  0.60117172  0.72282692  0.16195832  1
  Se  Se20  1  0.99249581  0.64618965  0.68039193  1
  Se  Se21  1  0.00750419  0.35381035  0.68039193  1
  Se  Se22  1  0.64618965  0.99249581  0.31960807  1
  Se  Se23  1  0.35381035  0.00750419  0.31960807  1
  Se  Se24  1  0.50750419  0.85381035  0.81960807  1
  Se  Se25  1  0.49249581  0.14618965  0.81960807  1
  Se  Se26  1  0.85381035  0.50750419  0.18039193  1
  Se  Se27  1  0.14618965  0.49249581  0.18039193  1
  Se  Se28  1  0.72282692  0.60117172  0.83804168  1
  Se  Se29  1  0.22282692  0.10117172  0.66195832  1
