# generated using pymatgen
data_Nd2S3
_symmetry_space_group_name_H-M   'P 1'
_cell_length_a   4.05422156
_cell_length_b   7.51249909
_cell_length_c   15.66627676
_cell_angle_alpha   90.00000000
_cell_angle_beta   90.00000000
_cell_angle_gamma   90.00000000
_symmetry_Int_Tables_number   1
_chemical_formula_structural   Nd2S3
_chemical_formula_sum   'Nd8 S12'
_cell_volume   477.15305170
_cell_formula_units_Z   4
loop_
 _symmetry_equiv_pos_site_id
 _symmetry_equiv_pos_as_xyz
  1  'x, y, z'
loop_
 _atom_site_type_symbol
 _atom_site_label
 _atom_site_symmetry_multiplicity
 _atom_site_fract_x
 _atom_site_fract_y
 _atom_site_fract_z
 _atom_site_occupancy
  Nd  Nd0  1  0.75000000  0.73515985  0.04415771  1
  Nd  Nd1  1  0.25000000  0.26484015  0.95584229  1
  Nd  Nd2  1  0.75000000  0.23515985  0.45584229  1
  Nd  Nd3  1  0.25000000  0.76484015  0.54415771  1
  Nd  Nd4  1  0.25000000  0.64485735  0.29573608  1
  Nd  Nd5  1  0.75000000  0.35514265  0.70426392  1
  Nd  Nd6  1  0.25000000  0.14485735  0.20426392  1
  Nd  Nd7  1  0.75000000  0.85514265  0.79573608  1
  S  S8  1  0.25000000  0.50979264  0.10908145  1
  S  S9  1  0.75000000  0.49020736  0.89091855  1
  S  S10  1  0.25000000  0.00979264  0.39091855  1
  S  S11  1  0.75000000  0.99020736  0.60908145  1
  S  S12  1  0.75000000  0.85390063  0.21889337  1
  S  S13  1  0.25000000  0.14609937  0.78110663  1
  S  S14  1  0.75000000  0.35390063  0.28110663  1
  S  S15  1  0.25000000  0.64609937  0.71889337  1
  S  S16  1  0.25000000  0.87361945  0.93275149  1
  S  S17  1  0.75000000  0.12638055  0.06724851  1
  S  S18  1  0.25000000  0.37361945  0.56724851  1
  S  S19  1  0.75000000  0.62638055  0.43275149  1
