# generated using pymatgen
data_Ca(AsO3)2
_symmetry_space_group_name_H-M   'P 1'
_cell_length_a   4.84855585
_cell_length_b   4.84855543
_cell_length_c   5.10058609
_cell_angle_alpha   90.00000000
_cell_angle_beta   90.00000000
_cell_angle_gamma   119.99999610
_symmetry_Int_Tables_number   1
_chemical_formula_structural   Ca(AsO3)2
_chemical_formula_sum   'Ca1 As2 O6'
_cell_volume   103.84258688
_cell_formula_units_Z   1
loop_
 _symmetry_equiv_pos_site_id
 _symmetry_equiv_pos_as_xyz
  1  'x, y, z'
loop_
 _atom_site_type_symbol
 _atom_site_label
 _atom_site_symmetry_multiplicity
 _atom_site_fract_x
 _atom_site_fract_y
 _atom_site_fract_z
 _atom_site_occupancy
  Ca  Ca0  1  0.00000000  0.00000000  -0.00000000  1
  As  As1  1  0.33333300  0.66666700  0.50000000  1
  As  As2  1  0.66666700  0.33333300  0.50000000  1
  O  O3  1  0.37747983  0.37747983  0.70207237  1
  O  O4  1  0.62252017  0.00000000  0.70207237  1
  O  O5  1  0.00000000  0.62252017  0.70207237  1
  O  O6  1  0.37747983  -0.00000000  0.29792763  1
  O  O7  1  -0.00000000  0.37747983  0.29792763  1
  O  O8  1  0.62252017  0.62252017  0.29792763  1
