# generated using pymatgen
data_Sr(NO3)2
_symmetry_space_group_name_H-M   'P 1'
_cell_length_a   7.75544901
_cell_length_b   7.75544901
_cell_length_c   7.75544901
_cell_angle_alpha   90.00000000
_cell_angle_beta   90.00000000
_cell_angle_gamma   90.00000000
_symmetry_Int_Tables_number   1
_chemical_formula_structural   Sr(NO3)2
_chemical_formula_sum   'Sr4 N8 O24'
_cell_volume   466.46690898
_cell_formula_units_Z   4
loop_
 _symmetry_equiv_pos_site_id
 _symmetry_equiv_pos_as_xyz
  1  'x, y, z'
loop_
 _atom_site_type_symbol
 _atom_site_label
 _atom_site_symmetry_multiplicity
 _atom_site_fract_x
 _atom_site_fract_y
 _atom_site_fract_z
 _atom_site_occupancy
  Sr  Sr0  1  0.00000000  0.50000000  0.50000000  1
  Sr  Sr1  1  0.50000000  0.50000000  -0.00000000  1
  Sr  Sr2  1  0.50000000  0.00000000  0.50000000  1
  Sr  Sr3  1  0.00000000  0.00000000  -0.00000000  1
  N  N4  1  0.34198393  0.34198393  0.34198393  1
  N  N5  1  0.34198393  0.15801607  0.84198393  1
  N  N6  1  0.15801607  0.84198393  0.34198393  1
  N  N7  1  0.84198393  0.34198393  0.15801607  1
  N  N8  1  0.65801607  0.65801607  0.65801607  1
  N  N9  1  0.15801607  0.65801607  0.84198393  1
  N  N10  1  0.84198393  0.15801607  0.65801607  1
  N  N11  1  0.65801607  0.84198393  0.15801607  1
  O  O12  1  0.77090628  0.28061122  0.02556315  1
  O  O13  1  0.21938878  0.97443685  0.27090628  1
  O  O14  1  0.22909372  0.78061122  0.47443685  1
  O  O15  1  0.27090628  0.21938878  0.97443685  1
  O  O16  1  0.27090628  0.28061122  0.47443685  1
  O  O17  1  0.47443685  0.27090628  0.28061122  1
  O  O18  1  0.28061122  0.47443685  0.27090628  1
  O  O19  1  0.21938878  0.52556315  0.77090628  1
  O  O20  1  0.97443685  0.22909372  0.71938878  1
  O  O21  1  0.71938878  0.97443685  0.22909372  1
  O  O22  1  0.02556315  0.72909372  0.78061122  1
  O  O23  1  0.52556315  0.77090628  0.21938878  1
  O  O24  1  0.78061122  0.02556315  0.72909372  1
  O  O25  1  0.77090628  0.21938878  0.52556315  1
  O  O26  1  0.72909372  0.78061122  0.02556315  1
  O  O27  1  0.22909372  0.71938878  0.97443685  1
  O  O28  1  0.72909372  0.71938878  0.52556315  1
  O  O29  1  0.52556315  0.72909372  0.71938878  1
  O  O30  1  0.71938878  0.52556315  0.72909372  1
  O  O31  1  0.78061122  0.47443685  0.22909372  1
  O  O32  1  0.02556315  0.77090628  0.28061122  1
  O  O33  1  0.28061122  0.02556315  0.77090628  1
  O  O34  1  0.97443685  0.27090628  0.21938878  1
  O  O35  1  0.47443685  0.22909372  0.78061122  1
