# generated using pymatgen
data_Na5GeP3
_symmetry_space_group_name_H-M   'P 1'
_cell_length_a   7.32421424
_cell_length_b   8.02030305
_cell_length_c   15.33973517
_cell_angle_alpha   58.53972455
_cell_angle_beta   90.00000000
_cell_angle_gamma   90.00000000
_symmetry_Int_Tables_number   1
_chemical_formula_structural   Na5GeP3
_chemical_formula_sum   'Na20 Ge4 P12'
_cell_volume   768.63444262
_cell_formula_units_Z   4
loop_
 _symmetry_equiv_pos_site_id
 _symmetry_equiv_pos_as_xyz
  1  'x, y, z'
loop_
 _atom_site_type_symbol
 _atom_site_label
 _atom_site_symmetry_multiplicity
 _atom_site_fract_x
 _atom_site_fract_y
 _atom_site_fract_z
 _atom_site_occupancy
  Na  Na0  1  0.85164687  0.16701038  0.75798173  1
  Na  Na1  1  0.16304798  0.15915328  0.91886865  1
  Na  Na2  1  0.66304798  0.84084672  0.58113135  1
  Na  Na3  1  0.83695202  0.84084672  0.08113135  1
  Na  Na4  1  0.50630306  0.56159069  0.25804894  1
  Na  Na5  1  0.00630306  0.43840931  0.24195106  1
  Na  Na6  1  0.49369694  0.43840931  0.74195106  1
  Na  Na7  1  0.99369694  0.56159069  0.75804894  1
  Na  Na8  1  0.98296532  0.91366265  0.41242296  1
  Na  Na9  1  0.48296532  0.08633735  0.08757704  1
  Na  Na10  1  0.01703468  0.08633735  0.58757704  1
  Na  Na11  1  0.51703468  0.91366265  0.91242296  1
  Na  Na12  1  0.53270484  0.24813337  0.58426452  1
  Na  Na13  1  0.03270484  0.75186663  0.91573548  1
  Na  Na14  1  0.46729516  0.75186663  0.41573548  1
  Na  Na15  1  0.35164687  0.83298962  0.74201827  1
  Na  Na16  1  0.14835313  0.83298962  0.24201827  1
  Na  Na17  1  0.64835313  0.16701038  0.25798173  1
  Na  Na18  1  0.96729516  0.24813337  0.08426452  1
  Na  Na19  1  0.33695202  0.15915328  0.41886865  1
  Ge  Ge20  1  0.64297959  0.51469264  0.91335070  1
  Ge  Ge21  1  0.14297959  0.48530736  0.58664930  1
  Ge  Ge22  1  0.35702041  0.48530736  0.08664930  1
  Ge  Ge23  1  0.85702041  0.51469264  0.41335070  1
  P  P24  1  0.76262271  0.23723650  0.91889902  1
  P  P25  1  0.76373591  0.81271728  0.27273918  1
  P  P26  1  0.26373591  0.18728272  0.22726082  1
  P  P27  1  0.23626409  0.18728272  0.72726082  1
  P  P28  1  0.18669022  0.47898774  0.43351342  1
  P  P29  1  0.68669022  0.52101226  0.06648658  1
  P  P30  1  0.81330978  0.52101226  0.56648658  1
  P  P31  1  0.31330978  0.47898774  0.93351342  1
  P  P32  1  0.73626409  0.81271728  0.77273918  1
  P  P33  1  0.23737729  0.76276350  0.08110098  1
  P  P34  1  0.26262271  0.76276350  0.58110098  1
  P  P35  1  0.73737729  0.23723650  0.41889902  1
