# generated using pymatgen
data_LaAsO4
_symmetry_space_group_name_H-M   'P 1'
_cell_length_a   7.22861075
_cell_length_b   6.78661193
_cell_length_c   8.44050881
_cell_angle_alpha   53.66040357
_cell_angle_beta   90.00000000
_cell_angle_gamma   90.00000000
_symmetry_Int_Tables_number   1
_chemical_formula_structural   LaAsO4
_chemical_formula_sum   'La4 As4 O16'
_cell_volume   333.54332093
_cell_formula_units_Z   4
loop_
 _symmetry_equiv_pos_site_id
 _symmetry_equiv_pos_as_xyz
  1  'x, y, z'
loop_
 _atom_site_type_symbol
 _atom_site_label
 _atom_site_symmetry_multiplicity
 _atom_site_fract_x
 _atom_site_fract_y
 _atom_site_fract_z
 _atom_site_occupancy
  La  La0  1  0.65367677  0.81668722  0.28197199  1
  La  La1  1  0.15367677  0.18331278  0.21802801  1
  La  La2  1  0.34632323  0.18331278  0.71802801  1
  La  La3  1  0.84632323  0.81668722  0.78197199  1
  As  As4  1  0.66288350  0.30907388  0.30434149  1
  As  As5  1  0.16288350  0.69092612  0.19565851  1
  As  As6  1  0.33711650  0.69092612  0.69565851  1
  As  As7  1  0.83711650  0.30907388  0.80434149  1
  O  O8  1  0.60852573  0.34241068  0.48328213  1
  O  O9  1  0.10852573  0.65758932  0.01671787  1
  O  O10  1  0.39147427  0.65758932  0.51671787  1
  O  O11  1  0.89147427  0.34241068  0.98328213  1
  O  O12  1  0.84099632  0.10587995  0.39069594  1
  O  O13  1  0.34099632  0.89412005  0.10930406  1
  O  O14  1  0.15900368  0.89412005  0.60930406  1
  O  O15  1  0.65900368  0.10587995  0.89069594  1
  O  O16  1  0.78611972  0.60234485  0.61844293  1
  O  O17  1  0.28611972  0.39765515  0.88155707  1
  O  O18  1  0.21388028  0.39765515  0.38155707  1
  O  O19  1  0.71388028  0.60234485  0.11844293  1
  O  O20  1  0.00310059  0.17691541  0.75396727  1
  O  O21  1  0.50310059  0.82308459  0.74603273  1
  O  O22  1  0.99689941  0.82308459  0.24603273  1
  O  O23  1  0.49689941  0.17691541  0.25396727  1
