# generated using pymatgen
data_RbReO4
_symmetry_space_group_name_H-M   'P 1'
_cell_length_a   7.72638194
_cell_length_b   7.72756883
_cell_length_c   7.72768107
_cell_angle_alpha   135.28287434
_cell_angle_beta   135.28727694
_cell_angle_gamma   65.09194771
_symmetry_Int_Tables_number   1
_chemical_formula_structural   RbReO4
_chemical_formula_sum   'Rb2 Re2 O8'
_cell_volume   225.10202228
_cell_formula_units_Z   2
loop_
 _symmetry_equiv_pos_site_id
 _symmetry_equiv_pos_as_xyz
  1  'x, y, z'
loop_
 _atom_site_type_symbol
 _atom_site_label
 _atom_site_symmetry_multiplicity
 _atom_site_fract_x
 _atom_site_fract_y
 _atom_site_fract_z
 _atom_site_occupancy
  Rb  Rb0  1  0.75001955  0.24998443  0.50003319  1
  Rb  Rb1  1  -0.00001509  0.00001543  0.99997793  1
  Re  Re2  1  0.24995753  0.74980501  0.49985300  1
  Re  Re3  1  0.50003981  0.50019930  1.00014770  1
  O  O4  1  0.21028402  0.54096042  0.90421725  1
  O  O5  1  0.29098849  0.88645149  0.83043148  1
  O  O6  1  0.05594462  0.46025559  0.16926500  1
  O  O7  1  0.63671391  0.30628163  0.09585395  1
  O  O8  1  0.11333707  0.94382805  0.40431306  1
  O  O9  1  0.69395031  0.78980307  0.33067530  1
  O  O10  1  0.45912175  0.36348299  0.66961086  1
  O  O11  1  0.53965802  0.70893259  0.59562129  1
