# generated using pymatgen
data_Cd2SiO4
_symmetry_space_group_name_H-M   'P 1'
_cell_length_a   5.76563583
_cell_length_b   5.76563678
_cell_length_c   6.67764827
_cell_angle_alpha   103.60063583
_cell_angle_beta   103.60065205
_cell_angle_gamma   117.08429627
_symmetry_Int_Tables_number   1
_chemical_formula_structural   Cd2SiO4
_chemical_formula_sum   'Cd4 Si2 O8'
_cell_volume   176.43791618
_cell_formula_units_Z   2
loop_
 _symmetry_equiv_pos_site_id
 _symmetry_equiv_pos_as_xyz
  1  'x, y, z'
loop_
 _atom_site_type_symbol
 _atom_site_label
 _atom_site_symmetry_multiplicity
 _atom_site_fract_x
 _atom_site_fract_y
 _atom_site_fract_z
 _atom_site_occupancy
  Cd  Cd0  1  0.80921851  0.19078149  0.75000000  1
  Cd  Cd1  1  0.44078149  0.55921851  0.75000000  1
  Cd  Cd2  1  0.19078149  0.80921851  0.25000000  1
  Cd  Cd3  1  0.55921851  0.44078149  0.25000000  1
  Si  Si4  1  0.12500000  0.87500000  0.75000000  1
  Si  Si5  1  0.87500000  0.12500000  0.25000000  1
  O  O6  1  0.25053894  0.20815028  0.89731714  1
  O  O7  1  0.31083314  0.85322279  0.60268286  1
  O  O8  1  0.79184972  0.74946106  0.60268286  1
  O  O9  1  0.14677721  0.68916686  0.89731714  1
  O  O10  1  0.74946106  0.79184972  0.10268286  1
  O  O11  1  0.68916686  0.14677721  0.39731714  1
  O  O12  1  0.85322279  0.31083314  0.10268286  1
  O  O13  1  0.20815028  0.25053894  0.39731714  1
