# generated using pymatgen
data_Sr4PtO6
_symmetry_space_group_name_H-M   'P 1'
_cell_length_a   6.90109135
_cell_length_b   6.90109135
_cell_length_c   6.90109084
_cell_angle_alpha   90.04547315
_cell_angle_beta   90.04547315
_cell_angle_gamma   90.04547170
_symmetry_Int_Tables_number   1
_chemical_formula_structural   Sr4PtO6
_chemical_formula_sum   'Sr8 Pt2 O12'
_cell_volume   328.66456732
_cell_formula_units_Z   2
loop_
 _symmetry_equiv_pos_site_id
 _symmetry_equiv_pos_as_xyz
  1  'x, y, z'
loop_
 _atom_site_type_symbol
 _atom_site_label
 _atom_site_symmetry_multiplicity
 _atom_site_fract_x
 _atom_site_fract_y
 _atom_site_fract_z
 _atom_site_occupancy
  Sr  Sr0  1  0.75000000  0.11808859  0.38191141  1
  Sr  Sr1  1  0.38191141  0.75000000  0.11808859  1
  Sr  Sr2  1  0.11808859  0.38191141  0.75000000  1
  Sr  Sr3  1  0.25000000  0.88191141  0.61808859  1
  Sr  Sr4  1  0.61808859  0.25000000  0.88191141  1
  Sr  Sr5  1  0.88191141  0.61808859  0.25000000  1
  Sr  Sr6  1  0.75000000  0.75000000  0.75000000  1
  Sr  Sr7  1  0.25000000  0.25000000  0.25000000  1
  Pt  Pt8  1  0.50000000  0.50000000  0.50000000  1
  Pt  Pt9  1  -0.00000000  -0.00000000  0.00000000  1
  O  O10  1  0.57233458  0.78559148  0.44207344  1
  O  O11  1  0.44207344  0.57233458  0.78559148  1
  O  O12  1  0.78559148  0.44207344  0.57233458  1
  O  O13  1  0.92766542  0.05792656  0.71440852  1
  O  O14  1  0.71440852  0.92766542  0.05792656  1
  O  O15  1  0.05792656  0.71440852  0.92766542  1
  O  O16  1  0.42766542  0.21440852  0.55792656  1
  O  O17  1  0.55792656  0.42766542  0.21440852  1
  O  O18  1  0.21440852  0.55792656  0.42766542  1
  O  O19  1  0.07233458  0.94207344  0.28559148  1
  O  O20  1  0.94207344  0.28559148  0.07233458  1
  O  O21  1  0.28559148  0.07233458  0.94207344  1
