# generated using pymatgen
data_DyAgTe2
_symmetry_space_group_name_H-M   'P 1'
_cell_length_a   4.67198298
_cell_length_b   7.14200866
_cell_length_c   7.14200866
_cell_angle_alpha   90.00000000
_cell_angle_beta   90.00000000
_cell_angle_gamma   90.00000000
_symmetry_Int_Tables_number   1
_chemical_formula_structural   DyAgTe2
_chemical_formula_sum   'Dy2 Ag2 Te4'
_cell_volume   238.30985197
_cell_formula_units_Z   2
loop_
 _symmetry_equiv_pos_site_id
 _symmetry_equiv_pos_as_xyz
  1  'x, y, z'
loop_
 _atom_site_type_symbol
 _atom_site_label
 _atom_site_symmetry_multiplicity
 _atom_site_fract_x
 _atom_site_fract_y
 _atom_site_fract_z
 _atom_site_occupancy
  Dy  Dy0  1  0.20299334  0.50000000  0.00000000  1
  Dy  Dy1  1  0.79700666  0.00000000  0.50000000  1
  Ag  Ag2  1  0.00000000  0.00000000  0.00000000  1
  Ag  Ag3  1  0.00000000  0.50000000  0.50000000  1
  Te  Te4  1  0.28307495  0.20163132  0.70163132  1
  Te  Te5  1  0.71692505  0.70163132  0.79836868  1
  Te  Te6  1  0.28307495  0.79836868  0.29836868  1
  Te  Te7  1  0.71692505  0.29836868  0.20163132  1
