# generated using pymatgen
data_K2NbF7
_symmetry_space_group_name_H-M   'P 1'
_cell_length_a   12.66924211
_cell_length_b   5.77449063
_cell_length_c   8.49252305
_cell_angle_alpha   90.03383735
_cell_angle_beta   90.00000000
_cell_angle_gamma   90.00000000
_symmetry_Int_Tables_number   1
_chemical_formula_structural   K2NbF7
_chemical_formula_sum   'K8 Nb4 F28'
_cell_volume   621.29945879
_cell_formula_units_Z   4
loop_
 _symmetry_equiv_pos_site_id
 _symmetry_equiv_pos_as_xyz
  1  'x, y, z'
loop_
 _atom_site_type_symbol
 _atom_site_label
 _atom_site_symmetry_multiplicity
 _atom_site_fract_x
 _atom_site_fract_y
 _atom_site_fract_z
 _atom_site_occupancy
  K  K0  1  0.78186184  0.76270898  0.05486766  1
  K  K1  1  0.28186184  0.23729102  0.44513234  1
  K  K2  1  0.21813816  0.23729102  0.94513234  1
  K  K3  1  0.71813816  0.76270898  0.55486766  1
  K  K4  1  0.93959809  0.23823958  0.31967292  1
  K  K5  1  0.43959809  0.76176042  0.18032708  1
  K  K6  1  0.06040191  0.76176042  0.68032708  1
  K  K7  1  0.56040191  0.23823958  0.81967292  1
  Nb  Nb8  1  0.62786660  0.27325121  0.27959023  1
  Nb  Nb9  1  0.12786660  0.72674879  0.22040977  1
  Nb  Nb10  1  0.37213340  0.72674879  0.72040977  1
  Nb  Nb11  1  0.87213340  0.27325121  0.77959023  1
  F  F12  1  0.57589659  0.56846120  0.37174879  1
  F  F13  1  0.07589659  0.43153880  0.12825121  1
  F  F14  1  0.42410341  0.43153880  0.62825121  1
  F  F15  1  0.92410341  0.56846120  0.87174879  1
  F  F16  1  0.62278556  0.18851744  0.50317084  1
  F  F17  1  0.12278556  0.81148256  -0.00317084  1
  F  F18  1  0.37721444  0.81148256  0.49682916  1
  F  F19  1  0.87721444  0.18851744  0.00317084  1
  F  F20  1  0.47506371  0.21050715  0.28847358  1
  F  F21  1  0.97506371  0.78949285  0.21152642  1
  F  F22  1  0.52493629  0.78949285  0.71152642  1
  F  F23  1  0.02493629  0.21050715  0.78847358  1
  F  F24  1  0.75549184  0.04172263  0.80193135  1
  F  F25  1  0.25549184  0.95827737  0.69806865  1
  F  F26  1  0.24450816  0.95827737  0.19806865  1
  F  F27  1  0.74450816  0.04172263  0.30193135  1
  F  F28  1  0.74193687  0.46588532  0.79402419  1
  F  F29  1  0.24193687  0.53411468  0.70597581  1
  F  F30  1  0.25806313  0.53411468  0.20597581  1
  F  F31  1  0.75806313  0.46588532  0.29402419  1
  F  F32  1  0.89344295  0.04071893  0.60848921  1
  F  F33  1  0.39344295  0.95928107  0.89151079  1
  F  F34  1  0.10655705  0.95928107  0.39151079  1
  F  F35  1  0.60655705  0.04071893  0.10848921  1
  F  F36  1  0.89061835  0.46944731  0.58891858  1
  F  F37  1  0.39061835  0.53055269  0.91108142  1
  F  F38  1  0.10938165  0.53055269  0.41108142  1
  F  F39  1  0.60938165  0.46944731  0.08891858  1
