# generated using pymatgen
data_Ho2CdSe4
_symmetry_space_group_name_H-M   'P 1'
_cell_length_a   8.26450705
_cell_length_b   8.26452639
_cell_length_c   8.26453853
_cell_angle_alpha   59.99998876
_cell_angle_beta   59.99982933
_cell_angle_gamma   59.99990612
_symmetry_Int_Tables_number   1
_chemical_formula_structural   Ho2CdSe4
_chemical_formula_sum   'Ho4 Cd2 Se8'
_cell_volume   399.15137656
_cell_formula_units_Z   2
loop_
 _symmetry_equiv_pos_site_id
 _symmetry_equiv_pos_as_xyz
  1  'x, y, z'
loop_
 _atom_site_type_symbol
 _atom_site_label
 _atom_site_symmetry_multiplicity
 _atom_site_fract_x
 _atom_site_fract_y
 _atom_site_fract_z
 _atom_site_occupancy
  Ho  Ho0  1  0.62499581  0.62501224  0.12499002  1
  Ho  Ho1  1  0.62498220  0.12500989  0.62499787  1
  Ho  Ho2  1  0.12493659  0.62502108  0.62502078  1
  Ho  Ho3  1  0.62498983  0.62500049  0.62499700  1
  Cd  Cd4  1  0.00001624  0.99999255  0.99999808  1
  Cd  Cd5  1  0.25001918  0.24999170  0.24999722  1
  Se  Se6  1  0.38202828  0.85390384  0.38203628  1
  Se  Se7  1  0.86799560  0.86797803  0.39604816  1
  Se  Se8  1  0.86799471  0.86798083  0.86798171  1
  Se  Se9  1  0.39607109  0.86797499  0.86797769  1
  Se  Se10  1  0.38202678  0.38203423  0.38203514  1
  Se  Se11  1  0.85392114  0.38202397  0.38202704  1
  Se  Se12  1  0.86799610  0.39604378  0.86798279  1
  Se  Se13  1  0.38202644  0.38203139  0.85390822  1
