# generated using pymatgen
data_Ag3SbS3
_symmetry_space_group_name_H-M   'P 1'
_cell_length_a   7.00642863
_cell_length_b   7.00642916
_cell_length_c   7.00642890
_cell_angle_alpha   101.76926589
_cell_angle_beta   101.76928038
_cell_angle_gamma   101.76925423
_symmetry_Int_Tables_number   1
_chemical_formula_structural   Ag3SbS3
_chemical_formula_sum   'Ag6 Sb2 S6'
_cell_volume   318.63121791
_cell_formula_units_Z   2
loop_
 _symmetry_equiv_pos_site_id
 _symmetry_equiv_pos_as_xyz
  1  'x, y, z'
loop_
 _atom_site_type_symbol
 _atom_site_label
 _atom_site_symmetry_multiplicity
 _atom_site_fract_x
 _atom_site_fract_y
 _atom_site_fract_z
 _atom_site_occupancy
  Ag  Ag0  1  0.41447437  0.73987505  0.95178555  1
  Ag  Ag1  1  0.95178555  0.41447437  0.73987505  1
  Ag  Ag2  1  0.91447437  0.45178555  0.23987505  1
  Ag  Ag3  1  0.45178555  0.23987505  0.91447437  1
  Ag  Ag4  1  0.73987505  0.95178555  0.41447437  1
  Ag  Ag5  1  0.23987505  0.91447437  0.45178555  1
  Sb  Sb6  1  0.50634957  0.50634957  0.50634957  1
  Sb  Sb7  1  0.00634957  0.00634957  0.00634957  1
  S  S8  1  0.09757356  0.76488465  0.75095725  1
  S  S9  1  0.76488465  0.75095725  0.09757356  1
  S  S10  1  0.26488465  0.59757356  0.25095725  1
  S  S11  1  0.59757356  0.25095725  0.26488465  1
  S  S12  1  0.75095725  0.09757356  0.76488465  1
  S  S13  1  0.25095725  0.26488465  0.59757356  1
