# generated using pymatgen
data_SrNb2O6
_symmetry_space_group_name_H-M   'P 1'
_cell_length_a   5.63239079
_cell_length_b   7.73780725
_cell_length_c   11.16099409
_cell_angle_alpha   89.71701257
_cell_angle_beta   90.00000000
_cell_angle_gamma   90.00000000
_symmetry_Int_Tables_number   1
_chemical_formula_structural   SrNb2O6
_chemical_formula_sum   'Sr4 Nb8 O24'
_cell_volume   486.41646602
_cell_formula_units_Z   4
loop_
 _symmetry_equiv_pos_site_id
 _symmetry_equiv_pos_as_xyz
  1  'x, y, z'
loop_
 _atom_site_type_symbol
 _atom_site_label
 _atom_site_symmetry_multiplicity
 _atom_site_fract_x
 _atom_site_fract_y
 _atom_site_fract_z
 _atom_site_occupancy
  Sr  Sr0  1  0.46463796  0.24990551  0.96057682  1
  Sr  Sr1  1  0.96463796  0.75009449  0.53942318  1
  Sr  Sr2  1  0.53536204  0.75009449  0.03942318  1
  Sr  Sr3  1  0.03536204  0.24990551  0.46057682  1
  Nb  Nb4  1  0.52545583  0.00954404  0.35589118  1
  Nb  Nb5  1  0.02545583  0.99045596  0.14410882  1
  Nb  Nb6  1  0.47454417  0.99045596  0.64410882  1
  Nb  Nb7  1  0.97454417  0.00954404  0.85589118  1
  Nb  Nb8  1  0.53191256  0.52217605  0.35698472  1
  Nb  Nb9  1  0.03191256  0.47782395  0.14301528  1
  Nb  Nb10  1  0.46808744  0.47782395  0.64301528  1
  Nb  Nb11  1  0.96808744  0.52217605  0.85698472  1
  O  O12  1  0.64680612  0.75210033  0.37200980  1
  O  O13  1  0.14680612  0.24789967  0.12799020  1
  O  O14  1  0.35319388  0.24789967  0.62799020  1
  O  O15  1  0.85319388  0.75210033  0.87200980  1
  O  O16  1  0.46620485  0.25170647  0.35412937  1
  O  O17  1  0.96620485  0.74829353  0.14587063  1
  O  O18  1  0.53379515  0.74829353  0.64587063  1
  O  O19  1  0.03379515  0.25170647  0.85412937  1
  O  O20  1  0.64072014  0.44665660  0.78765345  1
  O  O21  1  0.14072014  0.55334340  0.71234655  1
  O  O22  1  0.35927986  0.55334340  0.21234655  1
  O  O23  1  0.85927986  0.44665660  0.28765345  1
  O  O24  1  0.77962951  0.03505577  0.02605893  1
  O  O25  1  0.27962951  0.96494423  0.47394107  1
  O  O26  1  0.22037049  0.96494423  0.97394107  1
  O  O27  1  0.72037049  0.03505577  0.52605893  1
  O  O28  1  0.72116534  0.46528951  0.52592058  1
  O  O29  1  0.22116534  0.53471049  0.97407942  1
  O  O30  1  0.27883466  0.53471049  0.47407942  1
  O  O31  1  0.77883466  0.46528951  0.02592058  1
  O  O32  1  0.63557936  0.05049944  0.78845572  1
  O  O33  1  0.13557936  0.94950056  0.71154428  1
  O  O34  1  0.36442064  0.94950056  0.21154428  1
  O  O35  1  0.86442064  0.05049944  0.28845572  1
