# generated using pymatgen
data_CoAsS
_symmetry_space_group_name_H-M   'P 1'
_cell_length_a   5.55797365
_cell_length_b   5.56353410
_cell_length_c   5.55363067
_cell_angle_alpha   90.00000000
_cell_angle_beta   90.00000000
_cell_angle_gamma   90.00000000
_symmetry_Int_Tables_number   1
_chemical_formula_structural   CoAsS
_chemical_formula_sum   'Co4 As4 S4'
_cell_volume   171.72923389
_cell_formula_units_Z   4
loop_
 _symmetry_equiv_pos_site_id
 _symmetry_equiv_pos_as_xyz
  1  'x, y, z'
loop_
 _atom_site_type_symbol
 _atom_site_label
 _atom_site_symmetry_multiplicity
 _atom_site_fract_x
 _atom_site_fract_y
 _atom_site_fract_z
 _atom_site_occupancy
  Co  Co0  1  0.49459960  0.24068333  0.50182445  1
  Co  Co1  1  0.99459960  0.75931667  0.50182445  1
  Co  Co2  1  0.00539940  0.24068333  0.00182445  1
  Co  Co3  1  0.50540040  0.75931667  0.00182445  1
  As  As4  1  0.87990635  0.36954253  0.38405903  1
  As  As5  1  0.62009365  0.36954253  0.88405903  1
  As  As6  1  0.37990635  0.63045747  0.38405903  1
  As  As7  1  0.12009365  0.63045747  0.88405903  1
  S  S8  1  0.11727722  0.13069645  0.62111651  1
  S  S9  1  0.38272278  0.13069645  0.12111651  1
  S  S10  1  0.88272278  0.86930355  0.12111651  1
  S  S11  1  0.61727722  0.86930355  0.62111651  1
