# generated using pymatgen
data_ScCuO2
_symmetry_space_group_name_H-M   'P 1'
_cell_length_a   5.98617589
_cell_length_b   5.98617679
_cell_length_c   5.98617525
_cell_angle_alpha   31.23584853
_cell_angle_beta   31.23582468
_cell_angle_gamma   31.23584369
_symmetry_Int_Tables_number   1
_chemical_formula_structural   ScCuO2
_chemical_formula_sum   'Sc1 Cu1 O2'
_cell_volume   51.19027908
_cell_formula_units_Z   1
loop_
 _symmetry_equiv_pos_site_id
 _symmetry_equiv_pos_as_xyz
  1  'x, y, z'
loop_
 _atom_site_type_symbol
 _atom_site_label
 _atom_site_symmetry_multiplicity
 _atom_site_fract_x
 _atom_site_fract_y
 _atom_site_fract_z
 _atom_site_occupancy
  Sc  Sc0  1  0.50000000  0.50000000  0.50000000  1
  Cu  Cu1  1  -0.00000000  -0.00000000  -0.00000000  1
  O  O2  1  0.89317000  0.89317000  0.89317000  1
  O  O3  1  0.10682900  0.10682900  0.10682900  1
