# generated using pymatgen
data_CdI2
_symmetry_space_group_name_H-M   'P 1'
_cell_length_a   4.28204023
_cell_length_b   4.28204060
_cell_length_c   57.27985182
_cell_angle_alpha   90.00000000
_cell_angle_beta   90.00000000
_cell_angle_gamma   119.99999724
_symmetry_Int_Tables_number   1
_chemical_formula_structural   CdI2
_chemical_formula_sum   'Cd8 I16'
_cell_volume   909.56565511
_cell_formula_units_Z   8
loop_
 _symmetry_equiv_pos_site_id
 _symmetry_equiv_pos_as_xyz
  1  'x, y, z'
loop_
 _atom_site_type_symbol
 _atom_site_label
 _atom_site_symmetry_multiplicity
 _atom_site_fract_x
 _atom_site_fract_y
 _atom_site_fract_z
 _atom_site_occupancy
  Cd  Cd0  1  0.33333300  0.66666700  0.53129135  1
  Cd  Cd1  1  0.66666700  0.33333300  0.90629673  1
  Cd  Cd2  1  0.33333300  0.66666700  0.78127343  1
  Cd  Cd3  1  0.66666700  0.33333300  0.03128739  1
  Cd  Cd4  1  0.66666700  0.33333300  0.40628192  1
  Cd  Cd5  1  0.00000000  -0.00000000  0.15626798  1
  Cd  Cd6  1  0.66666700  0.33333300  0.65633045  1
  Cd  Cd7  1  0.33333300  0.66666700  0.28115672  1
  I  I8  1  0.00000000  -0.00000000  0.00116418  1
  I  I9  1  0.33333300  0.66666700  0.68633715  1
  I  I10  1  0.66666700  0.33333300  0.12616410  1
  I  I11  1  0.00000000  -0.00000000  0.25094743  1
  I  I12  1  0.00000000  -0.00000000  0.37616417  1
  I  I13  1  0.33333300  0.66666700  0.06133693  1
  I  I14  1  0.66666700  0.33333300  0.81133716  1
  I  I15  1  0.33333300  0.66666700  0.18633701  1
  I  I16  1  0.66666700  0.33333300  0.56133679  1
  I  I17  1  0.00000000  -0.00000000  0.62617752  1
  I  I18  1  0.33333300  0.66666700  0.43633717  1
  I  I19  1  0.33333300  0.66666700  0.93633710  1
  I  I20  1  0.00000000  -0.00000000  0.87617302  1
  I  I21  1  0.66666700  0.33333300  0.31133584  1
  I  I22  1  0.00000000  -0.00000000  0.50116405  1
  I  I23  1  0.00000000  -0.00000000  0.75116440  1
