# generated using pymatgen
data_Sc2TeO6
_symmetry_space_group_name_H-M   'P 1'
_cell_length_a   8.76694724
_cell_length_b   8.76694714
_cell_length_c   4.81777938
_cell_angle_alpha   90.00002303
_cell_angle_beta   89.99994385
_cell_angle_gamma   120.00007835
_symmetry_Int_Tables_number   1
_chemical_formula_structural   Sc2TeO6
_chemical_formula_sum   'Sc6 Te3 O18'
_cell_volume   320.68155331
_cell_formula_units_Z   3
loop_
 _symmetry_equiv_pos_site_id
 _symmetry_equiv_pos_as_xyz
  1  'x, y, z'
loop_
 _atom_site_type_symbol
 _atom_site_label
 _atom_site_symmetry_multiplicity
 _atom_site_fract_x
 _atom_site_fract_y
 _atom_site_fract_z
 _atom_site_occupancy
  Sc  Sc0  1  0.29309090  0.00000052  0.49999961  1
  Sc  Sc1  1  0.62876303  -0.00000005  -0.00000060  1
  Sc  Sc2  1  0.70690814  0.70690791  0.50000047  1
  Sc  Sc3  1  -0.00000003  0.62876288  0.00000035  1
  Sc  Sc4  1  0.37123728  0.37123711  -0.00000025  1
  Sc  Sc5  1  0.00000028  0.29309079  0.50000014  1
  Te  Te6  1  0.00000027  -0.00000009  0.00000037  1
  Te  Te7  1  0.66666715  0.33333363  0.49698569  1
  Te  Te8  1  0.33333330  0.66666682  0.50301397  1
  O  O9  1  0.88055056  0.08969777  0.21901083  1
  O  O10  1  0.45647517  0.58137328  0.72623586  1
  O  O11  1  0.22249950  0.76571291  0.27999388  1
  O  O12  1  0.76571322  0.22249950  0.72000588  1
  O  O13  1  0.54321315  0.77750051  0.27999359  1
  O  O14  1  0.23428748  0.45678692  0.27999393  1
  O  O15  1  0.12489755  0.54352444  0.72623604  1
  O  O16  1  0.58137339  0.45647501  0.27376433  1
  O  O17  1  0.54352463  0.12489754  0.27376370  1
  O  O18  1  0.87510271  0.41862691  0.27376350  1
  O  O19  1  0.45678707  0.23428734  0.72000580  1
  O  O20  1  0.20914699  0.11944979  0.21901087  1
  O  O21  1  0.91030213  0.79085308  0.21901189  1
  O  O22  1  0.11944983  0.20914692  0.78098911  1
  O  O23  1  0.79085315  0.91030251  0.78098866  1
  O  O24  1  0.08969750  0.88055060  0.78098988  1
  O  O25  1  0.41862707  0.87510255  0.72623641  1
  O  O26  1  0.77750057  0.54321290  0.72000608  1
