# generated using pymatgen
data_ZnS
_symmetry_space_group_name_H-M   'P 1'
_cell_length_a   3.80489759
_cell_length_b   3.80489759
_cell_length_c   80.90001676
_cell_angle_alpha   90.00000000
_cell_angle_beta   90.00000000
_cell_angle_gamma   120.00001172
_symmetry_Int_Tables_number   1
_chemical_formula_structural   ZnS
_chemical_formula_sum   'Zn26 S26'
_cell_volume   1014.29699102
_cell_formula_units_Z   26
loop_
 _symmetry_equiv_pos_site_id
 _symmetry_equiv_pos_as_xyz
  1  'x, y, z'
loop_
 _atom_site_type_symbol
 _atom_site_label
 _atom_site_symmetry_multiplicity
 _atom_site_fract_x
 _atom_site_fract_y
 _atom_site_fract_z
 _atom_site_occupancy
  Zn  Zn0  1  -0.00000000  0.00000000  0.69258375  1
  Zn  Zn1  1  0.33333300  0.66666700  0.11541277  1
  Zn  Zn2  1  0.33333300  0.66666700  0.30770608  1
  Zn  Zn3  1  0.33333300  0.66666700  0.92303267  1
  Zn  Zn4  1  -0.00000000  0.00000000  0.96149625  1
  Zn  Zn5  1  0.66666700  0.33333300  0.88453798  1
  Zn  Zn6  1  0.66666700  0.33333300  0.38465245  1
  Zn  Zn7  1  0.66666700  0.33333300  0.26920810  1
  Zn  Zn8  1  -0.00000000  0.00000000  0.46147897  1
  Zn  Zn9  1  0.33333300  0.66666700  0.80742438  1
  Zn  Zn10  1  0.33333300  0.66666700  0.73128839  1
  Zn  Zn11  1  -0.00000000  0.00000000  0.07696079  1
  Zn  Zn12  1  -0.00000000  -0.00000000  0.34618196  1
  Zn  Zn13  1  -0.00000000  0.00000000  0.84591888  1
  Zn  Zn14  1  0.33333300  0.66666700  0.65392658  1
  Zn  Zn15  1  0.33333300  0.66666700  -0.00002617  1
  Zn  Zn16  1  0.66666700  0.33333300  0.61545110  1
  Zn  Zn17  1  0.66666700  0.33333300  0.15385668  1
  Zn  Zn18  1  0.66666700  0.33333300  0.03844753  1
  Zn  Zn19  1  -0.00000000  -0.00000000  0.57695835  1
  Zn  Zn20  1  0.66666700  0.33333300  0.53840513  1
  Zn  Zn21  1  0.33333300  0.66666700  0.23068312  1
  Zn  Zn22  1  0.33333300  0.66666700  0.49996817  1
  Zn  Zn23  1  -0.00000000  0.00000000  0.19226672  1
  Zn  Zn24  1  0.33333300  0.66666700  0.42303875  1
  Zn  Zn25  1  -0.00000000  0.00000000  0.77007139  1
  S  S26  1  0.33333300  0.66666700  0.02883985  1
  S  S27  1  0.33333300  0.66666700  0.76026495  1
  S  S28  1  0.33333300  0.66666700  0.45185049  1
  S  S29  1  0.66666700  0.33333300  0.64430799  1
  S  S30  1  0.66666700  0.33333300  0.79653715  1
  S  S31  1  -0.00000000  -0.00000000  0.22112000  1
  S  S32  1  -0.00000000  0.00000000  0.72151474  1
  S  S33  1  0.66666700  0.33333300  0.06732554  1
  S  S34  1  -0.00000000  0.00000000  0.10580110  1
  S  S35  1  -0.00000000  0.00000000  0.37503054  1
  S  S36  1  0.33333300  0.66666700  0.68283427  1
  S  S37  1  -0.00000000  0.00000000  0.99039034  1
  S  S38  1  0.66666700  0.33333300  0.29811133  1
  S  S39  1  0.33333300  0.66666700  0.14425404  1
  S  S40  1  0.66666700  0.33333300  0.18269988  1
  S  S41  1  -0.00000000  0.00000000  0.87483766  1
  S  S42  1  0.33333300  0.66666700  0.33656088  1
  S  S43  1  0.33333300  0.66666700  0.83624553  1
  S  S44  1  0.66666700  0.33333300  0.41346763  1
  S  S45  1  0.33333300  0.66666700  0.52881373  1
  S  S46  1  0.33333300  0.66666700  0.95184918  1
  S  S47  1  0.66666700  0.33333300  0.56726496  1
  S  S48  1  0.66666700  0.33333300  0.91339826  1
  S  S49  1  -0.00000000  0.00000000  0.49036915  1
  S  S50  1  0.33333300  0.66666700  0.25955363  1
  S  S51  1  -0.00000000  0.00000000  0.60582842  1
