# generated using pymatgen
data_Cd(PO3)2
_symmetry_space_group_name_H-M   'P 1'
_cell_length_a   7.38449867
_cell_length_b   7.41743377
_cell_length_c   8.53578204
_cell_angle_alpha   90.00000000
_cell_angle_beta   90.00000000
_cell_angle_gamma   90.00000000
_symmetry_Int_Tables_number   1
_chemical_formula_structural   Cd(PO3)2
_chemical_formula_sum   'Cd4 P8 O24'
_cell_volume   467.53917991
_cell_formula_units_Z   4
loop_
 _symmetry_equiv_pos_site_id
 _symmetry_equiv_pos_as_xyz
  1  'x, y, z'
loop_
 _atom_site_type_symbol
 _atom_site_label
 _atom_site_symmetry_multiplicity
 _atom_site_fract_x
 _atom_site_fract_y
 _atom_site_fract_z
 _atom_site_occupancy
  Cd  Cd0  1  0.02281493  0.14164052  0.20663647  1
  Cd  Cd1  1  0.97718507  0.64164052  0.29336353  1
  Cd  Cd2  1  0.52281493  0.35835948  0.79336353  1
  Cd  Cd3  1  0.47718507  0.85835948  0.70663647  1
  P  P4  1  0.88209133  0.05994888  0.83910077  1
  P  P5  1  0.38209133  0.44005112  0.16089923  1
  P  P6  1  0.61790867  0.94005112  0.33910077  1
  P  P7  1  0.15557144  0.16219190  0.59524110  1
  P  P8  1  0.11790867  0.55994888  0.66089923  1
  P  P9  1  0.65557144  0.33780810  0.40475890  1
  P  P10  1  0.34442856  0.83780810  0.09524110  1
  P  P11  1  0.84442856  0.66219190  0.90475890  1
  O  O12  1  0.16177426  0.09834314  0.43217169  1
  O  O13  1  0.04177298  0.68688591  0.54381808  1
  O  O14  1  0.67250269  0.64684894  0.81304416  1
  O  O15  1  0.54177298  0.81311409  0.45618192  1
  O  O16  1  0.17250269  0.85315106  0.18695584  1
  O  O17  1  0.49609843  0.44120106  0.31832870  1
  O  O18  1  0.91685744  0.86294171  0.90195218  1
  O  O19  1  0.99609843  0.05879894  0.68167130  1
  O  O20  1  0.50390157  0.94120106  0.18167130  1
  O  O21  1  0.45822702  0.31311409  0.04381808  1
  O  O22  1  0.31281692  0.58026765  0.70634317  1
  O  O23  1  0.95822702  0.18688591  0.95618192  1
  O  O24  1  0.83822574  0.59834314  0.06782831  1
  O  O25  1  0.18718308  0.41973235  0.20634317  1
  O  O26  1  0.82749731  0.35315106  0.31304416  1
  O  O27  1  0.00390157  0.55879894  0.81832870  1
  O  O28  1  0.66177426  0.40165686  0.56782831  1
  O  O29  1  0.32749731  0.14684894  0.68695584  1
  O  O30  1  0.58314256  0.13705829  0.40195218  1
  O  O31  1  0.81281692  0.91973235  0.29365683  1
  O  O32  1  0.68718308  0.08026765  0.79365683  1
  O  O33  1  0.41685744  0.63705829  0.09804782  1
  O  O34  1  0.33822574  0.90165686  0.93217169  1
  O  O35  1  0.08314256  0.36294171  0.59804782  1
