# generated using pymatgen
data_MnSiO3
_symmetry_space_group_name_H-M   'P 1'
_cell_length_a   6.69162285
_cell_length_b   7.61089527
_cell_length_c   11.85264433
_cell_angle_alpha   105.50403504
_cell_angle_beta   92.44071505
_cell_angle_gamma   94.38126199
_symmetry_Int_Tables_number   1
_chemical_formula_structural   MnSiO3
_chemical_formula_sum   'Mn10 Si10 O30'
_cell_volume   578.73228732
_cell_formula_units_Z   10
loop_
 _symmetry_equiv_pos_site_id
 _symmetry_equiv_pos_as_xyz
  1  'x, y, z'
loop_
 _atom_site_type_symbol
 _atom_site_label
 _atom_site_symmetry_multiplicity
 _atom_site_fract_x
 _atom_site_fract_y
 _atom_site_fract_z
 _atom_site_occupancy
  Mn  Mn0  1  0.12832656  0.31674218  0.44509596  1
  Mn  Mn1  1  0.65518239  0.03359565  0.70590181  1
  Mn  Mn2  1  0.02843218  0.12195800  0.14716273  1
  Mn  Mn3  1  0.34481761  0.96640435  0.29409819  1
  Mn  Mn4  1  0.20424624  0.70053155  0.02811023  1
  Mn  Mn5  1  0.79575376  0.29946845  0.97188977  1
  Mn  Mn6  1  0.81511405  0.49022712  0.27034997  1
  Mn  Mn7  1  0.18488595  0.50977288  0.72965003  1
  Mn  Mn8  1  0.97156782  0.87804200  0.85283727  1
  Mn  Mn9  1  0.87167344  0.68325782  0.55490404  1
  Si  Si10  1  0.49644765  0.22178518  0.12315412  1
  Si  Si11  1  0.24474993  0.25561286  0.90975312  1
  Si  Si12  1  0.70088064  0.45171103  0.73357394  1
  Si  Si13  1  0.29911936  0.54828897  0.26642606  1
  Si  Si14  1  0.75525007  0.74438714  0.09024688  1
  Si  Si15  1  0.36339222  0.74030551  0.53375517  1
  Si  Si16  1  0.15083494  0.07695398  0.65369284  1
  Si  Si17  1  0.63660778  0.25969449  0.46624483  1
  Si  Si18  1  0.50355235  0.77821482  0.87684588  1
  Si  Si19  1  0.84916506  0.92304602  0.34630716  1
  O  O20  1  0.89059511  0.59578868  0.73133129  1
  O  O21  1  0.41787177  0.23062734  0.39947456  1
  O  O22  1  0.48439099  0.42535958  0.21663343  1
  O  O23  1  0.94270847  0.84422289  0.04026695  1
  O  O24  1  0.33759021  0.06705183  0.14399501  1
  O  O25  1  0.19545003  0.59883177  0.56621079  1
  O  O26  1  0.26603082  0.80074710  0.86987278  1
  O  O27  1  0.26087059  0.69712841  0.19543908  1
  O  O28  1  0.70306082  0.85866513  0.22295898  1
  O  O29  1  0.66240979  0.93294817  0.85600499  1
  O  O30  1  0.29693918  0.14133487  0.77704102  1
  O  O31  1  0.10940489  0.40421132  0.26866871  1
  O  O32  1  0.89465684  0.74700694  0.38978514  1
  O  O33  1  0.28399140  0.94590823  0.55957164  1
  O  O34  1  0.71600860  0.05409177  0.44042836  1
  O  O35  1  0.05729153  0.15577711  0.95973305  1
  O  O36  1  0.10534316  0.25299306  0.61021486  1
  O  O37  1  0.95710513  0.95523326  0.68039442  1
  O  O38  1  0.38956444  0.67607962  0.39354409  1
  O  O39  1  0.44779068  0.25772676  0.99326254  1
  O  O40  1  0.61043556  0.32392038  0.60645591  1
  O  O41  1  0.18716488  0.45377947  0.90364296  1
  O  O42  1  0.73396918  0.19925290  0.13012722  1
  O  O43  1  0.73912941  0.30287159  0.80456092  1
  O  O44  1  0.55220932  0.74227324  0.00673746  1
  O  O45  1  0.81283512  0.54622053  0.09635704  1
  O  O46  1  0.04289487  0.04476674  0.31960558  1
  O  O47  1  0.51560901  0.57464042  0.78336657  1
  O  O48  1  0.80454997  0.40116823  0.43378921  1
  O  O49  1  0.58212823  0.76937266  0.60052544  1
