# generated using pymatgen
data_ZnS
_symmetry_space_group_name_H-M   'P 1'
_cell_length_a   3.81038924
_cell_length_b   3.81038905
_cell_length_c   87.13030274
_cell_angle_alpha   90.00000000
_cell_angle_beta   90.00000000
_cell_angle_gamma   120.00001048
_symmetry_Int_Tables_number   1
_chemical_formula_structural   ZnS
_chemical_formula_sum   'Zn28 S28'
_cell_volume   1095.56581333
_cell_formula_units_Z   28
loop_
 _symmetry_equiv_pos_site_id
 _symmetry_equiv_pos_as_xyz
  1  'x, y, z'
loop_
 _atom_site_type_symbol
 _atom_site_label
 _atom_site_symmetry_multiplicity
 _atom_site_fract_x
 _atom_site_fract_y
 _atom_site_fract_z
 _atom_site_occupancy
  Zn  Zn0  1  0.66666700  0.33333300  0.07143950  1
  Zn  Zn1  1  0.00000000  -0.00000000  0.92854178  1
  Zn  Zn2  1  -0.00000000  -0.00000000  0.32139231  1
  Zn  Zn3  1  -0.00000000  -0.00000000  0.21432839  1
  Zn  Zn4  1  0.33333300  0.66666700  0.14287895  1
  Zn  Zn5  1  0.33333300  0.66666700  0.35711066  1
  Zn  Zn6  1  0.66666700  0.33333300  0.39286960  1
  Zn  Zn7  1  0.33333300  0.66666700  0.46431244  1
  Zn  Zn8  1  -0.00000000  -0.00000000  0.64286699  1
  Zn  Zn9  1  0.33333300  0.66666700  0.57144674  1
  Zn  Zn10  1  0.33333300  0.66666700  0.78575423  1
  Zn  Zn11  1  0.00000000  -0.00000000  0.53575191  1
  Zn  Zn12  1  0.66666700  0.33333300  0.96429872  1
  Zn  Zn13  1  0.33333300  0.66666700  0.89285757  1
  Zn  Zn14  1  0.66666700  0.33333300  0.28571786  1
  Zn  Zn15  1  0.66666700  0.33333300  0.60714168  1
  Zn  Zn16  1  0.33333300  0.66666700  0.67855086  1
  Zn  Zn17  1  0.66666700  0.33333300  0.71432811  1
  Zn  Zn18  1  0.66666700  0.33333300  0.82141607  1
  Zn  Zn19  1  0.00000000  -0.00000000  0.10715377  1
  Zn  Zn20  1  0.33333300  0.66666700  0.03573583  1
  Zn  Zn21  1  0.66666700  0.33333300  0.17855462  1
  Zn  Zn22  1  -0.00000000  0.00000000  -0.00002525  1
  Zn  Zn23  1  0.66666700  0.33333300  0.49998672  1
  Zn  Zn24  1  -0.00000000  0.00000000  0.85713906  1
  Zn  Zn25  1  0.00000000  0.00000000  0.42854855  1
  Zn  Zn26  1  0.33333300  0.66666700  0.24997955  1
  Zn  Zn27  1  0.00000000  -0.00000000  0.74999499  1
  S  S28  1  0.66666700  0.33333300  0.20536533  1
  S  S29  1  0.00000000  -0.00000000  0.34817272  1
  S  S30  1  0.33333300  0.66666700  0.81251412  1
  S  S31  1  0.33333300  0.66666700  0.70536543  1
  S  S32  1  0.00000000  0.00000000  0.45534229  1
  S  S33  1  0.66666700  0.33333300  0.63393109  1
  S  S34  1  0.00000000  -0.00000000  0.02677328  1
  S  S35  1  0.66666700  0.33333300  0.84820039  1
  S  S36  1  0.66666700  0.33333300  0.41963274  1
  S  S37  1  0.66666700  0.33333300  0.52677535  1
  S  S38  1  0.66666700  0.33333300  0.09823422  1
  S  S39  1  0.00000000  -0.00000000  0.13393765  1
  S  S40  1  0.66666700  0.33333300  0.31249335  1
  S  S41  1  0.33333300  0.66666700  0.16965013  1
  S  S42  1  0.00000000  -0.00000000  0.66965210  1
  S  S43  1  0.00000000  -0.00000000  0.77680084  1
  S  S44  1  0.33333300  0.66666700  0.59821320  1
  S  S45  1  0.00000000  -0.00000000  0.88389708  1
  S  S46  1  -0.00000000  -0.00000000  0.24110774  1
  S  S47  1  0.00000000  -0.00000000  0.95531290  1
  S  S48  1  0.66666700  0.33333300  0.99108371  1
  S  S49  1  0.33333300  0.66666700  0.91965184  1
  S  S50  1  0.66666700  0.33333300  0.74109588  1
  S  S51  1  0.33333300  0.66666700  0.38391276  1
  S  S52  1  0.33333300  0.66666700  0.27677973  1
  S  S53  1  0.33333300  0.66666700  0.06250985  1
  S  S54  1  0.33333300  0.66666700  0.49105769  1
  S  S55  1  0.00000000  -0.00000000  0.56251937  1
