# generated using pymatgen
data_CsIOF4
_symmetry_space_group_name_H-M   'P 1'
_cell_length_a   6.02853760
_cell_length_b   6.14359505
_cell_length_c   15.30066279
_cell_angle_alpha   90.00000000
_cell_angle_beta   90.00000000
_cell_angle_gamma   90.00000000
_symmetry_Int_Tables_number   1
_chemical_formula_structural   CsIOF4
_chemical_formula_sum   'Cs4 I4 O4 F16'
_cell_volume   566.68902218
_cell_formula_units_Z   4
loop_
 _symmetry_equiv_pos_site_id
 _symmetry_equiv_pos_as_xyz
  1  'x, y, z'
loop_
 _atom_site_type_symbol
 _atom_site_label
 _atom_site_symmetry_multiplicity
 _atom_site_fract_x
 _atom_site_fract_y
 _atom_site_fract_z
 _atom_site_occupancy
  Cs  Cs0  1  0.75000000  0.78450140  0.89807579  1
  Cs  Cs1  1  0.75000000  0.28450140  0.60192421  1
  Cs  Cs2  1  0.25000000  0.71549860  0.39807579  1
  Cs  Cs3  1  0.25000000  0.21549860  0.10192421  1
  I  I4  1  0.75000000  0.77116631  0.16192067  1
  I  I5  1  0.75000000  0.27116631  0.33807933  1
  I  I6  1  0.25000000  0.22883369  0.83807933  1
  I  I7  1  0.25000000  0.72883369  0.66192067  1
  O  O8  1  0.25000000  0.98877059  0.89978490  1
  O  O9  1  0.25000000  0.48877059  0.60021510  1
  O  O10  1  0.75000000  0.01122941  0.10021510  1
  O  O11  1  0.75000000  0.51122941  0.39978490  1
  F  F12  1  0.01988124  0.84858450  0.58375726  1
  F  F13  1  0.51988124  0.65141550  0.08375726  1
  F  F14  1  0.98011876  0.65141550  0.08375726  1
  F  F15  1  0.51584635  0.90270487  0.23856427  1
  F  F16  1  0.48011876  0.84858450  0.58375726  1
  F  F17  1  0.98415365  0.40270487  0.26143573  1
  F  F18  1  0.01988124  0.34858450  0.91624274  1
  F  F19  1  0.01584635  0.59729513  0.73856427  1
  F  F20  1  0.98011876  0.15141550  0.41624274  1
  F  F21  1  0.48415365  0.59729513  0.73856427  1
  F  F22  1  0.48011876  0.34858450  0.91624274  1
  F  F23  1  0.48415365  0.09729513  0.76143573  1
  F  F24  1  0.51584635  0.40270487  0.26143573  1
  F  F25  1  0.98415365  0.90270487  0.23856427  1
  F  F26  1  0.51988124  0.15141550  0.41624274  1
  F  F27  1  0.01584635  0.09729513  0.76143573  1
