# generated using pymatgen
data_As(IF3)2
_symmetry_space_group_name_H-M   'P 1'
_cell_length_a   5.98128109
_cell_length_b   7.88212968
_cell_length_c   7.88212978
_cell_angle_alpha   79.48847884
_cell_angle_beta   79.32241927
_cell_angle_gamma   79.32242399
_symmetry_Int_Tables_number   1
_chemical_formula_structural   As(IF3)2
_chemical_formula_sum   'As2 I4 F12'
_cell_volume   354.60233239
_cell_formula_units_Z   2
loop_
 _symmetry_equiv_pos_site_id
 _symmetry_equiv_pos_as_xyz
  1  'x, y, z'
loop_
 _atom_site_type_symbol
 _atom_site_label
 _atom_site_symmetry_multiplicity
 _atom_site_fract_x
 _atom_site_fract_y
 _atom_site_fract_z
 _atom_site_occupancy
  As  As0  1  0.55932162  0.69321633  0.69321633  1
  As  As1  1  0.44067838  0.30678367  0.30678367  1
  I  I2  1  0.11007761  0.91880704  0.24144173  1
  I  I3  1  0.11007761  0.24144173  0.91880704  1
  I  I4  1  0.88992239  0.75855827  0.08119296  1
  I  I5  1  0.88992239  0.08119296  0.75855827  1
  F  F6  1  0.62514300  0.20808966  0.45460056  1
  F  F7  1  0.74808358  0.84540054  0.60098145  1
  F  F8  1  0.71133157  0.55276188  0.55276188  1
  F  F9  1  0.62514300  0.45460056  0.20808966  1
  F  F10  1  0.25191642  0.39901855  0.15459946  1
  F  F11  1  0.25191642  0.15459946  0.39901855  1
  F  F12  1  0.57824947  0.16156195  0.16156195  1
  F  F13  1  0.37485700  0.79191034  0.54539944  1
  F  F14  1  0.37485700  0.54539944  0.79191034  1
  F  F15  1  0.42175053  0.83843805  0.83843805  1
  F  F16  1  0.28866843  0.44723812  0.44723812  1
  F  F17  1  0.74808358  0.60098145  0.84540054  1
