# generated using pymatgen
data_S
_symmetry_space_group_name_H-M   'P 1'
_cell_length_a   11.05343181
_cell_length_b   10.98819822
_cell_length_c   11.21436719
_cell_angle_alpha   90.00000000
_cell_angle_beta   96.42092543
_cell_angle_gamma   90.00000000
_symmetry_Int_Tables_number   1
_chemical_formula_structural   S
_chemical_formula_sum   S48
_cell_volume   1353.52270711
_cell_formula_units_Z   48
loop_
 _symmetry_equiv_pos_site_id
 _symmetry_equiv_pos_as_xyz
  1  'x, y, z'
loop_
 _atom_site_type_symbol
 _atom_site_label
 _atom_site_symmetry_multiplicity
 _atom_site_fract_x
 _atom_site_fract_y
 _atom_site_fract_z
 _atom_site_occupancy
  S  S0  1  0.78242114  0.68995033  0.72785546  1
  S  S1  1  0.04219458  0.98231604  0.95665667  1
  S  S2  1  0.21757886  0.18995033  0.27214454  1
  S  S3  1  0.34947369  0.91933611  0.24628546  1
  S  S4  1  0.53972716  0.84712805  0.94613217  1
  S  S5  1  0.27211102  0.14013227  0.74392221  1
  S  S6  1  0.14336102  0.41194277  0.77464382  1
  S  S7  1  0.23694266  0.81165155  0.13324509  1
  S  S8  1  0.24546937  0.02152926  0.34880718  1
  S  S9  1  0.16469073  0.55067713  0.32884250  1
  S  S10  1  0.70349821  0.93686808  0.95237817  1
  S  S11  1  0.24293562  0.30894315  0.66857882  1
  S  S12  1  0.95780542  0.48231604  0.04334333  1
  S  S13  1  0.26037782  0.51929311  0.88352861  1
  S  S14  1  0.85663898  0.91194277  0.22535618  1
  S  S15  1  0.95079824  0.69027021  0.82527118  1
  S  S16  1  0.06978440  0.16243920  0.99733986  1
  S  S17  1  0.83530927  0.05067713  0.67115750  1
  S  S18  1  0.06147748  0.76640626  0.50114561  1
  S  S19  1  0.45035500  0.61742093  0.44315202  1
  S  S20  1  0.65052631  0.41933611  0.75371454  1
  S  S21  1  0.34782071  0.83355484  0.61295325  1
  S  S22  1  0.93852252  0.26640626  0.49885439  1
  S  S23  1  0.55655512  0.63926626  0.16402273  1
  S  S24  1  0.04959180  0.58560376  0.45588797  1
  S  S25  1  0.72788898  0.64013227  0.25607779  1
  S  S26  1  0.79276261  0.39473649  0.03100307  1
  S  S27  1  0.04920176  0.19027121  0.17472882  1
  S  S28  1  0.29650179  0.43686808  0.04762183  1
  S  S29  1  0.95040820  0.08560376  0.54411203  1
  S  S30  1  0.32479254  0.48111780  0.41167290  1
  S  S31  1  0.45173777  0.67890135  0.61580376  1
  S  S32  1  0.57052798  0.66711599  0.98542507  1
  S  S33  1  0.75706438  0.80894315  0.33142118  1
  S  S34  1  0.42947202  0.16711599  0.01457493  1
  S  S35  1  0.75453063  0.52152926  0.65119282  1
  S  S36  1  0.65217929  0.33355484  0.38704675  1
  S  S37  1  0.73962218  0.01929311  0.11647139  1
  S  S38  1  0.17833050  0.78708707  0.65529439  1
  S  S39  1  0.76305734  0.31165155  0.86675491  1
  S  S40  1  0.93021560  0.66243920  0.00266014  1
  S  S41  1  0.44344488  0.13926626  0.83597727  1
  S  S42  1  0.46027284  0.34712805  0.05386783  1
  S  S43  1  0.67520746  0.98111780  0.58832710  1
  S  S44  1  0.54964500  0.11742093  0.55684798  1
  S  S45  1  0.82166950  0.28708707  0.34470561  1
  S  S46  1  0.54826223  0.17890135  0.38419624  1
  S  S47  1  0.20723739  0.89473649  0.96899693  1
