# generated using pymatgen
data_La3InS6
_symmetry_space_group_name_H-M   'P 1'
_cell_length_a   4.08693485
_cell_length_b   14.00502483
_cell_length_c   16.98236880
_cell_angle_alpha   89.99792902
_cell_angle_beta   90.00212112
_cell_angle_gamma   89.99390147
_symmetry_Int_Tables_number   1
_chemical_formula_structural   La3InS6
_chemical_formula_sum   'La12 In4 S24'
_cell_volume   972.03043316
_cell_formula_units_Z   4
loop_
 _symmetry_equiv_pos_site_id
 _symmetry_equiv_pos_as_xyz
  1  'x, y, z'
loop_
 _atom_site_type_symbol
 _atom_site_label
 _atom_site_symmetry_multiplicity
 _atom_site_fract_x
 _atom_site_fract_y
 _atom_site_fract_z
 _atom_site_occupancy
  La  La0  1  0.25249292  0.03626364  0.77974775  1
  La  La1  1  0.25254290  0.96368874  0.22027113  1
  La  La2  1  0.74748001  0.46371728  0.27975169  1
  La  La3  1  0.74758427  0.53627216  0.72023304  1
  La  La4  1  0.25686701  0.24921563  0.60974600  1
  La  La5  1  0.25682943  0.75068920  0.39034090  1
  La  La6  1  0.74324613  0.25072554  0.10966195  1
  La  La7  1  0.74320247  0.74930507  0.89030790  1
  La  La8  1  0.74632613  0.30929151  0.85764398  1
  La  La9  1  0.74637830  0.69070294  0.14236437  1
  La  La10  1  0.25364445  0.19067201  0.35765220  1
  La  La11  1  0.25364843  0.80931503  0.64235944  1
  In  In12  1  0.75258331  -0.00002736  0.49995400  1
  In  In13  1  0.24740518  0.50002542  -0.00002016  1
  In  In14  1  0.41577166  0.50004783  0.50003362  1
  In  In15  1  0.58423018  0.00002458  0.00006995  1
  S  S16  1  0.76249110  0.39780278  0.58746393  1
  S  S17  1  0.76262163  0.60219991  0.41247629  1
  S  S18  1  0.23732227  0.10221110  0.08749907  1
  S  S19  1  0.23746175  0.89784121  0.91250450  1
  S  S20  1  0.24590039  0.31383802  0.98294144  1
  S  S21  1  0.24595524  0.68618449  0.01704922  1
  S  S22  1  0.75410797  0.18615390  0.48294124  1
  S  S23  1  0.75406341  0.81383067  0.51704748  1
  S  S24  1  0.75157255  0.10657646  0.89295590  1
  S  S25  1  0.75163371  0.89343465  0.10702638  1
  S  S26  1  0.24839008  0.39342680  0.39294898  1
  S  S27  1  0.24837938  0.60660173  0.60701754  1
  S  S28  1  0.75472699  0.17752349  0.71745898  1
  S  S29  1  0.75475831  0.82246191  0.28256836  1
  S  S30  1  0.24515999  0.32245699  0.21745554  1
  S  S31  1  0.24530199  0.67757181  0.78255099  1
  S  S32  1  0.24745523  0.38680412  0.75648663  1
  S  S33  1  0.24745666  0.61318113  0.24350848  1
  S  S34  1  0.75251095  0.11316124  0.25651116  1
  S  S35  1  0.75252929  0.88684473  0.74350318  1
  S  S36  1  0.25321136  0.01968561  0.60173043  1
  S  S37  1  0.25322409  0.98028050  0.39825200  1
  S  S38  1  0.74675061  0.48031609  0.10173770  1
  S  S39  1  0.74678427  0.51968044  0.89824881  1
