# generated using pymatgen
data_TlAsF6
_symmetry_space_group_name_H-M   'P 1'
_cell_length_a   4.96208541
_cell_length_b   4.96208625
_cell_length_c   4.96208591
_cell_angle_alpha   97.15141574
_cell_angle_beta   97.15141411
_cell_angle_gamma   97.15140914
_symmetry_Int_Tables_number   1
_chemical_formula_structural   TlAsF6
_chemical_formula_sum   'Tl1 As1 F6'
_cell_volume   119.06217527
_cell_formula_units_Z   1
loop_
 _symmetry_equiv_pos_site_id
 _symmetry_equiv_pos_as_xyz
  1  'x, y, z'
loop_
 _atom_site_type_symbol
 _atom_site_label
 _atom_site_symmetry_multiplicity
 _atom_site_fract_x
 _atom_site_fract_y
 _atom_site_fract_z
 _atom_site_occupancy
  Tl  Tl0  1  0.00000000  0.00000000  -0.00000000  1
  As  As1  1  0.50000000  0.50000000  0.50000000  1
  F  F2  1  0.57696184  0.21050177  0.30195190  1
  F  F3  1  0.30195190  0.57696184  0.21050177  1
  F  F4  1  0.69804810  0.42303816  0.78949823  1
  F  F5  1  0.21050177  0.30195190  0.57696184  1
  F  F6  1  0.78949823  0.69804810  0.42303816  1
  F  F7  1  0.42303816  0.78949823  0.69804810  1
