# generated using pymatgen
data_ZnS
_symmetry_space_group_name_H-M   'P 1'
_cell_length_a   3.80713769
_cell_length_b   3.80713602
_cell_length_c   56.05799151
_cell_angle_alpha   90.00000000
_cell_angle_beta   90.00000000
_cell_angle_gamma   119.99999674
_symmetry_Int_Tables_number   1
_chemical_formula_structural   ZnS
_chemical_formula_sum   'Zn18 S18'
_cell_volume   703.66371434
_cell_formula_units_Z   18
loop_
 _symmetry_equiv_pos_site_id
 _symmetry_equiv_pos_as_xyz
  1  'x, y, z'
loop_
 _atom_site_type_symbol
 _atom_site_label
 _atom_site_symmetry_multiplicity
 _atom_site_fract_x
 _atom_site_fract_y
 _atom_site_fract_z
 _atom_site_occupancy
  Zn  Zn0  1  0.00000000  -0.00000000  0.16669763  1
  Zn  Zn1  1  0.33333300  0.66666700  0.72222986  1
  Zn  Zn2  1  0.66666700  0.33333300  0.27776713  1
  Zn  Zn3  1  -0.00000000  0.00000000  0.44453989  1
  Zn  Zn4  1  0.33333300  0.66666700  0.55556835  1
  Zn  Zn5  1  0.00000000  0.00000000  0.66669938  1
  Zn  Zn6  1  0.33333300  0.66666700  0.05558375  1
  Zn  Zn7  1  0.66666700  0.33333300  0.61113102  1
  Zn  Zn8  1  0.66666700  0.33333300  0.11110349  1
  Zn  Zn9  1  0.33333300  0.66666700  0.22224444  1
  Zn  Zn10  1  0.66666700  0.33333300  0.77777899  1
  Zn  Zn11  1  0.66666700  0.33333300  0.94448536  1
  Zn  Zn12  1  0.33333300  0.66666700  0.38892099  1
  Zn  Zn13  1  0.00000000  0.00000000  0.33334482  1
  Zn  Zn14  1  0.33333300  0.66666700  0.83342941  1
  Zn  Zn15  1  0.00000000  0.00000000  0.00007689  1
  Zn  Zn16  1  0.66666700  0.33333300  0.49999047  1
  Zn  Zn17  1  -0.00000000  0.00000000  0.88889269  1
  S  S18  1  0.66666700  0.33333300  0.98614869  1
  S  S19  1  0.33333300  0.66666700  0.43059145  1
  S  S20  1  0.00000000  -0.00000000  0.04166785  1
  S  S21  1  0.66666700  0.33333300  0.65274251  1
  S  S22  1  0.66666700  0.33333300  0.15273282  1
  S  S23  1  0.33333300  0.66666700  0.09718490  1
  S  S24  1  0.33333300  0.66666700  0.76380975  1
  S  S25  1  0.00000000  0.00000000  0.70831790  1
  S  S26  1  0.66666700  0.33333300  0.81946575  1
  S  S27  1  0.00000000  0.00000000  0.37494369  1
  S  S28  1  0.66666700  0.33333300  0.31939627  1
  S  S29  1  0.00000000  -0.00000000  0.93048253  1
  S  S30  1  0.00000000  0.00000000  0.48610460  1
  S  S31  1  0.33333300  0.66666700  0.26385164  1
  S  S32  1  0.66666700  0.33333300  0.54158145  1
  S  S33  1  0.00000000  -0.00000000  0.20831815  1
  S  S34  1  0.33333300  0.66666700  0.87500295  1
  S  S35  1  0.33333300  0.66666700  0.59722255  1
