# generated using pymatgen
data_RbAuI3
_symmetry_space_group_name_H-M   'P 1'
_cell_length_a   7.91264693
_cell_length_b   7.91264777
_cell_length_c   8.79505957
_cell_angle_alpha   65.49520593
_cell_angle_beta   65.49519854
_cell_angle_gamma   60.68249464
_symmetry_Int_Tables_number   1
_chemical_formula_structural   RbAuI3
_chemical_formula_sum   'Rb2 Au2 I6'
_cell_volume   421.04638380
_cell_formula_units_Z   2
loop_
 _symmetry_equiv_pos_site_id
 _symmetry_equiv_pos_as_xyz
  1  'x, y, z'
loop_
 _atom_site_type_symbol
 _atom_site_label
 _atom_site_symmetry_multiplicity
 _atom_site_fract_x
 _atom_site_fract_y
 _atom_site_fract_z
 _atom_site_occupancy
  Rb  Rb0  1  0.27356105  0.27356105  0.22500379  1
  Rb  Rb1  1  0.72643895  0.72643895  0.77499621  1
  Au  Au2  1  0.00000000  -0.00000000  0.00000000  1
  Au  Au3  1  0.50000000  0.50000000  0.50000000  1
  I  I4  1  0.71628045  0.71628045  0.35579583  1
  I  I5  1  0.19872524  0.72801353  0.81655666  1
  I  I6  1  0.80127476  0.27198647  0.18344334  1
  I  I7  1  0.27198647  0.80127476  0.18344334  1
  I  I8  1  0.72801353  0.19872524  0.81655666  1
  I  I9  1  0.28371955  0.28371955  0.64420417  1
