# generated using pymatgen
data_Ge3Os2
_symmetry_space_group_name_H-M   'P 1'
_cell_length_a   5.77819146
_cell_length_b   5.77819146
_cell_length_c   9.30200365
_cell_angle_alpha   90.00000000
_cell_angle_beta   90.00000000
_cell_angle_gamma   90.00000000
_symmetry_Int_Tables_number   1
_chemical_formula_structural   Ge3Os2
_chemical_formula_sum   'Ge12 Os8'
_cell_volume   310.57061476
_cell_formula_units_Z   4
loop_
 _symmetry_equiv_pos_site_id
 _symmetry_equiv_pos_as_xyz
  1  'x, y, z'
loop_
 _atom_site_type_symbol
 _atom_site_label
 _atom_site_symmetry_multiplicity
 _atom_site_fract_x
 _atom_site_fract_y
 _atom_site_fract_z
 _atom_site_occupancy
  Ge  Ge0  1  0.21761742  0.34960242  0.08527257  1
  Ge  Ge1  1  0.34960242  0.78238258  0.91472743  1
  Ge  Ge2  1  0.65039758  0.21761742  0.91472743  1
  Ge  Ge3  1  0.78238258  0.65039758  0.08527257  1
  Ge  Ge4  1  0.34960242  0.21761742  0.41472743  1
  Ge  Ge5  1  0.65039758  0.78238258  0.41472743  1
  Ge  Ge6  1  0.78238258  0.34960242  0.58527257  1
  Ge  Ge7  1  0.21761742  0.65039758  0.58527257  1
  Ge  Ge8  1  0.17132469  0.17132469  0.75000000  1
  Ge  Ge9  1  0.17132469  0.82867531  0.25000000  1
  Ge  Ge10  1  0.82867531  0.17132469  0.25000000  1
  Ge  Ge11  1  0.82867531  0.82867531  0.75000000  1
  Os  Os12  1  0.00000000  0.50000000  0.37659059  1
  Os  Os13  1  0.50000000  0.00000000  0.62340941  1
  Os  Os14  1  0.50000000  0.00000000  0.12340941  1
  Os  Os15  1  0.00000000  0.50000000  0.87659059  1
  Os  Os16  1  0.50000000  0.50000000  0.25000000  1
  Os  Os17  1  0.50000000  0.50000000  0.75000000  1
  Os  Os18  1  0.00000000  0.00000000  0.00000000  1
  Os  Os19  1  0.00000000  0.00000000  0.50000000  1
