# generated using pymatgen
data_Cs3Fe4(PO4)5
_symmetry_space_group_name_H-M   'P 1'
_cell_length_a   9.85138052
_cell_length_b   13.93912918
_cell_length_c   14.05898746
_cell_angle_alpha   90.00000000
_cell_angle_beta   90.00000000
_cell_angle_gamma   90.00000000
_symmetry_Int_Tables_number   1
_chemical_formula_structural   Cs3Fe4(PO4)5
_chemical_formula_sum   'Cs12 Fe16 P20 O80'
_cell_volume   1930.57545766
_cell_formula_units_Z   4
loop_
 _symmetry_equiv_pos_site_id
 _symmetry_equiv_pos_as_xyz
  1  'x, y, z'
loop_
 _atom_site_type_symbol
 _atom_site_label
 _atom_site_symmetry_multiplicity
 _atom_site_fract_x
 _atom_site_fract_y
 _atom_site_fract_z
 _atom_site_occupancy
  Cs  Cs0  1  0.18865289  0.61084936  0.62614908  1
  Cs  Cs1  1  0.31134711  0.88915064  0.62614908  1
  Cs  Cs2  1  0.68865289  0.38915064  0.87385092  1
  Cs  Cs3  1  0.81134711  0.11084936  0.87385092  1
  Cs  Cs4  1  0.81134711  0.38915064  0.37385092  1
  Cs  Cs5  1  0.68865289  0.11084936  0.37385092  1
  Cs  Cs6  1  0.31134711  0.61084936  0.12614908  1
  Cs  Cs7  1  0.18865289  0.88915064  0.12614908  1
  Cs  Cs8  1  0.25000000  0.25000000  0.76298760  1
  Cs  Cs9  1  0.75000000  0.75000000  0.73701240  1
  Cs  Cs10  1  0.75000000  0.75000000  0.23701240  1
  Cs  Cs11  1  0.25000000  0.25000000  0.26298760  1
  Fe  Fe12  1  0.12515389  0.95565299  0.84919762  1
  Fe  Fe13  1  0.37484611  0.54434701  0.84919762  1
  Fe  Fe14  1  0.62515389  0.04434701  0.65080238  1
  Fe  Fe15  1  0.87484611  0.45565299  0.65080238  1
  Fe  Fe16  1  0.87484611  0.04434701  0.15080238  1
  Fe  Fe17  1  0.62515389  0.45565299  0.15080238  1
  Fe  Fe18  1  0.37484611  0.95565299  0.34919762  1
  Fe  Fe19  1  0.12515389  0.54434701  0.34919762  1
  Fe  Fe20  1  0.46267060  0.16266752  0.00882267  1
  Fe  Fe21  1  0.03732940  0.33733248  0.00882267  1
  Fe  Fe22  1  0.96267060  0.83733248  0.49117733  1
  Fe  Fe23  1  0.53732940  0.66266752  0.49117733  1
  Fe  Fe24  1  0.53732940  0.83733248  0.99117733  1
  Fe  Fe25  1  0.96267060  0.66266752  0.99117733  1
  Fe  Fe26  1  0.03732940  0.16266752  0.50882267  1
  Fe  Fe27  1  0.46267060  0.33733248  0.50882267  1
  P  P28  1  0.36017939  0.12214077  0.52309524  1
  P  P29  1  0.13982061  0.37785923  0.52309524  1
  P  P30  1  0.86017939  0.87785923  0.97690476  1
  P  P31  1  0.63982061  0.62214077  0.97690476  1
  P  P32  1  0.63982061  0.87785923  0.47690476  1
  P  P33  1  0.86017939  0.62214077  0.47690476  1
  P  P34  1  0.13982061  0.12214077  0.02309524  1
  P  P35  1  0.36017939  0.37785923  0.02309524  1
  P  P36  1  0.44179251  0.01552130  0.84232117  1
  P  P37  1  0.05820749  0.48447870  0.84232117  1
  P  P38  1  0.94179251  0.98447870  0.65767883  1
  P  P39  1  0.55820749  0.51552130  0.65767883  1
  P  P40  1  0.55820749  0.98447870  0.15767883  1
  P  P41  1  0.94179251  0.51552130  0.15767883  1
  P  P42  1  0.05820749  0.01552130  0.34232117  1
  P  P43  1  0.44179251  0.48447870  0.34232117  1
  P  P44  1  0.25000000  0.75000000  0.89994342  1
  P  P45  1  0.75000000  0.25000000  0.60005658  1
  P  P46  1  0.75000000  0.25000000  0.10005658  1
  P  P47  1  0.25000000  0.75000000  0.39994342  1
  O  O48  1  0.37141132  0.03152792  0.46083652  1
  O  O49  1  0.12858868  0.46847208  0.46083652  1
  O  O50  1  0.87141132  0.96847208  0.03916348  1
  O  O51  1  0.62858868  0.53152792  0.03916348  1
  O  O52  1  0.62858868  0.96847208  0.53916348  1
  O  O53  1  0.87141132  0.53152792  0.53916348  1
  O  O54  1  0.12858868  0.03152792  0.96083652  1
  O  O55  1  0.37141132  0.46847208  0.96083652  1
  O  O56  1  0.21389838  0.13092412  0.56063486  1
  O  O57  1  0.28610162  0.36907588  0.56063486  1
  O  O58  1  0.71389838  0.86907588  0.93936514  1
  O  O59  1  0.78610162  0.63092412  0.93936514  1
  O  O60  1  0.78610162  0.86907588  0.43936514  1
  O  O61  1  0.71389838  0.63092412  0.43936514  1
  O  O62  1  0.28610162  0.13092412  0.06063486  1
  O  O63  1  0.21389838  0.36907588  0.06063486  1
  O  O64  1  0.39794845  0.20962791  0.46282700  1
  O  O65  1  0.10205155  0.29037209  0.46282700  1
  O  O66  1  0.89794845  0.79037209  0.03717300  1
  O  O67  1  0.60205155  0.70962791  0.03717300  1
  O  O68  1  0.60205155  0.79037209  0.53717300  1
  O  O69  1  0.89794845  0.70962791  0.53717300  1
  O  O70  1  0.10205155  0.20962791  0.96282700  1
  O  O71  1  0.39794845  0.29037209  0.96282700  1
  O  O72  1  0.45418709  0.11019464  0.60909664  1
  O  O73  1  0.04581291  0.38980536  0.60909664  1
  O  O74  1  0.95418709  0.88980536  0.89090336  1
  O  O75  1  0.54581291  0.61019464  0.89090336  1
  O  O76  1  0.54581291  0.88980536  0.39090336  1
  O  O77  1  0.95418709  0.61019464  0.39090336  1
  O  O78  1  0.04581291  0.11019464  0.10909664  1
  O  O79  1  0.45418709  0.38980536  0.10909664  1
  O  O80  1  0.45524091  0.94084828  0.91995853  1
  O  O81  1  0.04475909  0.55915172  0.91995853  1
  O  O82  1  0.95524091  0.05915172  0.58004147  1
  O  O83  1  0.54475909  0.44084828  0.58004147  1
  O  O84  1  0.54475909  0.05915172  0.08004147  1
  O  O85  1  0.95524091  0.44084828  0.08004147  1
  O  O86  1  0.04475909  0.94084828  0.41995853  1
  O  O87  1  0.45524091  0.55915172  0.41995853  1
  O  O88  1  0.48290195  0.11547251  0.88193828  1
  O  O89  1  0.01709805  0.38452749  0.88193828  1
  O  O90  1  0.98290195  0.88452749  0.61806172  1
  O  O91  1  0.51709805  0.61547251  0.61806172  1
  O  O92  1  0.51709805  0.88452749  0.11806172  1
  O  O93  1  0.98290195  0.61547251  0.11806172  1
  O  O94  1  0.01709805  0.11547251  0.38193828  1
  O  O95  1  0.48290195  0.38452749  0.38193828  1
  O  O96  1  0.53980107  0.99120821  0.76017919  1
  O  O97  1  0.96019893  0.50879179  0.76017919  1
  O  O98  1  0.03980107  0.00879179  0.73982081  1
  O  O99  1  0.46019893  0.49120821  0.73982081  1
  O  O100  1  0.46019893  0.00879179  0.23982081  1
  O  O101  1  0.03980107  0.49120821  0.23982081  1
  O  O102  1  0.96019893  0.99120821  0.26017919  1
  O  O103  1  0.53980107  0.50879179  0.26017919  1
  O  O104  1  0.29687223  0.02062119  0.80426183  1
  O  O105  1  0.20312777  0.47937881  0.80426183  1
  O  O106  1  0.79687223  0.97937881  0.69573817  1
  O  O107  1  0.70312777  0.52062119  0.69573817  1
  O  O108  1  0.70312777  0.97937881  0.19573817  1
  O  O109  1  0.79687223  0.52062119  0.19573817  1
  O  O110  1  0.20312777  0.02062119  0.30426183  1
  O  O111  1  0.29687223  0.47937881  0.30426183  1
  O  O112  1  0.21631626  0.83469248  0.83411269  1
  O  O113  1  0.28368374  0.66530752  0.83411269  1
  O  O114  1  0.71631626  0.16530752  0.66588731  1
  O  O115  1  0.78368374  0.33469248  0.66588731  1
  O  O116  1  0.78368374  0.16530752  0.16588731  1
  O  O117  1  0.71631626  0.33469248  0.16588731  1
  O  O118  1  0.28368374  0.83469248  0.33411269  1
  O  O119  1  0.21631626  0.66530752  0.33411269  1
  O  O120  1  0.13141906  0.73000678  0.96692338  1
  O  O121  1  0.36858094  0.76999322  0.96692338  1
  O  O122  1  0.63141906  0.26999322  0.53307662  1
  O  O123  1  0.86858094  0.23000678  0.53307662  1
  O  O124  1  0.86858094  0.26999322  0.03307662  1
  O  O125  1  0.63141906  0.23000678  0.03307662  1
  O  O126  1  0.36858094  0.73000678  0.46692338  1
  O  O127  1  0.13141906  0.76999322  0.46692338  1
