# generated using pymatgen
data_MgV2O6
_symmetry_space_group_name_H-M   'P 1'
_cell_length_a   4.96027309
_cell_length_b   4.96027309
_cell_length_c   6.72065939
_cell_angle_alpha   68.94425171
_cell_angle_beta   68.94425171
_cell_angle_gamma   40.97225186
_symmetry_Int_Tables_number   1
_chemical_formula_structural   MgV2O6
_chemical_formula_sum   'Mg1 V2 O6'
_cell_volume   100.13221056
_cell_formula_units_Z   1
loop_
 _symmetry_equiv_pos_site_id
 _symmetry_equiv_pos_as_xyz
  1  'x, y, z'
loop_
 _atom_site_type_symbol
 _atom_site_label
 _atom_site_symmetry_multiplicity
 _atom_site_fract_x
 _atom_site_fract_y
 _atom_site_fract_z
 _atom_site_occupancy
  Mg  Mg0  1  -0.00000000  -0.00000000  0.50000000  1
  V  V1  1  0.19062289  0.19062289  0.84642480  1
  V  V2  1  0.80937711  0.80937711  0.15357520  1
  O  O3  1  0.69156396  0.69156396  0.93717883  1
  O  O4  1  0.30843604  0.30843604  0.06282117  1
  O  O5  1  0.96615105  0.96615105  0.21912597  1
  O  O6  1  0.34678355  0.34678355  0.61251970  1
  O  O7  1  0.03384895  0.03384895  0.78087403  1
  O  O8  1  0.65321645  0.65321645  0.38748030  1
