# generated using pymatgen
data_ZnS
_symmetry_space_group_name_H-M   'P 1'
_cell_length_a   3.80717393
_cell_length_b   3.80717360
_cell_length_c   49.82805436
_cell_angle_alpha   90.00000000
_cell_angle_beta   90.00000000
_cell_angle_gamma   119.99997642
_symmetry_Int_Tables_number   1
_chemical_formula_structural   ZnS
_chemical_formula_sum   'Zn16 S16'
_cell_volume   625.47515343
_cell_formula_units_Z   16
loop_
 _symmetry_equiv_pos_site_id
 _symmetry_equiv_pos_as_xyz
  1  'x, y, z'
loop_
 _atom_site_type_symbol
 _atom_site_label
 _atom_site_symmetry_multiplicity
 _atom_site_fract_x
 _atom_site_fract_y
 _atom_site_fract_z
 _atom_site_occupancy
  Zn  Zn0  1  0.33333300  0.66666700  0.50002509  1
  Zn  Zn1  1  0.33333300  0.66666700  0.87502713  1
  Zn  Zn2  1  0.66666700  0.33333300  0.18753613  1
  Zn  Zn3  1  -0.00000000  0.00000000  0.43749314  1
  Zn  Zn4  1  0.33333300  0.66666700  0.12502984  1
  Zn  Zn5  1  0.66666700  0.33333300  0.00002509  1
  Zn  Zn6  1  0.66666700  0.33333300  0.62502984  1
  Zn  Zn7  1  -0.00000000  -0.00000000  0.25002034  1
  Zn  Zn8  1  0.00000000  -0.00000000  0.93749314  1
  Zn  Zn9  1  0.66666700  0.33333300  0.81252286  1
  Zn  Zn10  1  0.33333300  0.66666700  0.68753613  1
  Zn  Zn11  1  0.00000000  -0.00000000  0.75002034  1
  Zn  Zn12  1  0.66666700  0.33333300  0.37502713  1
  Zn  Zn13  1  0.00000000  0.00000000  0.56255965  1
  Zn  Zn14  1  0.33333300  0.66666700  0.31252286  1
  Zn  Zn15  1  0.00000000  -0.00000000  0.06255965  1
  S  S16  1  0.66666700  0.33333300  0.04689976  1
  S  S17  1  0.00000000  -0.00000000  0.10935245  1
  S  S18  1  0.33333300  0.66666700  0.35934352  1
  S  S19  1  0.66666700  0.33333300  0.42183458  1
  S  S20  1  0.66666700  0.33333300  0.67184996  1
  S  S21  1  0.33333300  0.66666700  0.54689976  1
  S  S22  1  0.66666700  0.33333300  0.85934352  1
  S  S23  1  0.00000000  0.00000000  0.48428387  1
  S  S24  1  0.00000000  -0.00000000  0.98428387  1
  S  S25  1  0.00000000  -0.00000000  0.79683597  1
  S  S26  1  0.33333300  0.66666700  0.73434771  1
  S  S27  1  0.00000000  0.00000000  0.29683597  1
  S  S28  1  0.33333300  0.66666700  0.92183458  1
  S  S29  1  0.00000000  0.00000000  0.60935245  1
  S  S30  1  0.33333300  0.66666700  0.17184996  1
  S  S31  1  0.66666700  0.33333300  0.23434771  1
