# generated using pymatgen
data_Tl4Mo5O17
_symmetry_space_group_name_H-M   'P 1'
_cell_length_a   7.68182617
_cell_length_b   10.73244557
_cell_length_c   10.88442897
_cell_angle_alpha   74.51439783
_cell_angle_beta   80.50619369
_cell_angle_gamma   80.27544933
_symmetry_Int_Tables_number   1
_chemical_formula_structural   Tl4Mo5O17
_chemical_formula_sum   'Tl8 Mo10 O34'
_cell_volume   845.55039836
_cell_formula_units_Z   2
loop_
 _symmetry_equiv_pos_site_id
 _symmetry_equiv_pos_as_xyz
  1  'x, y, z'
loop_
 _atom_site_type_symbol
 _atom_site_label
 _atom_site_symmetry_multiplicity
 _atom_site_fract_x
 _atom_site_fract_y
 _atom_site_fract_z
 _atom_site_occupancy
  Tl  Tl0  1  0.10145741  0.10057062  0.18758606  1
  Tl  Tl1  1  0.25354263  0.57199770  0.91042972  1
  Tl  Tl2  1  0.57729893  0.26677699  0.78576031  1
  Tl  Tl3  1  0.62744157  0.17956571  0.47748176  1
  Tl  Tl4  1  0.42270107  0.73322301  0.21423969  1
  Tl  Tl5  1  0.37255843  0.82043429  0.52251824  1
  Tl  Tl6  1  0.89854259  0.89942938  0.81241394  1
  Tl  Tl7  1  0.74645737  0.42800230  0.08957028  1
  Mo  Mo8  1  0.39808234  0.93483499  0.82452011  1
  Mo  Mo9  1  0.18954081  0.48094524  0.57436594  1
  Mo  Mo10  1  0.92244022  0.75904692  0.17959616  1
  Mo  Mo11  1  0.60191766  0.06516501  0.17547989  1
  Mo  Mo12  1  0.12973604  0.18308806  0.52510085  1
  Mo  Mo13  1  0.87026396  0.81691194  0.47489915  1
  Mo  Mo14  1  0.07755978  0.24095308  0.82040384  1
  Mo  Mo15  1  0.79534727  0.57328983  0.72563603  1
  Mo  Mo16  1  0.81045919  0.51905476  0.42563406  1
  Mo  Mo17  1  0.20465273  0.42671017  0.27436397  1
  O  O18  1  0.02134542  0.39144921  0.45760600  1
  O  O19  1  0.68126725  0.18615215  0.22466479  1
  O  O20  1  0.00945481  0.13527677  0.42923767  1
  O  O21  1  0.97251109  0.41683450  0.72511400  1
  O  O22  1  0.20928307  0.30642719  0.89369747  1
  O  O23  1  0.62193704  0.50486944  0.83120300  1
  O  O24  1  0.78365061  0.92829224  0.15593678  1
  O  O25  1  0.89395432  0.21040428  0.93076198  1
  O  O26  1  0.47455244  0.86282232  0.97061632  1
  O  O27  1  0.09658214  0.36498231  0.18138196  1
  O  O28  1  0.52544756  0.13717768  0.02938368  1
  O  O29  1  0.79071693  0.69357281  0.10630253  1
  O  O30  1  0.21634939  0.07170776  0.84406322  1
  O  O31  1  0.70751029  0.45247166  0.33549108  1
  O  O32  1  0.31873275  0.81384785  0.77533521  1
  O  O33  1  0.58571672  0.98977514  0.72353785  1
  O  O34  1  0.90341786  0.63501769  0.81861804  1
  O  O35  1  0.37806296  0.49513056  0.16879700  1
  O  O36  1  0.74415332  0.69799458  0.36907866  1
  O  O37  1  0.29141073  0.05331359  0.57356279  1
  O  O38  1  0.97870708  0.18065338  0.67373136  1
  O  O39  1  0.69661352  0.72652679  0.62192008  1
  O  O40  1  0.97865458  0.60855079  0.54239400  1
  O  O41  1  0.25584668  0.30200542  0.63092134  1
  O  O42  1  0.29248971  0.54752834  0.66450892  1
  O  O43  1  0.70858927  0.94668641  0.42643721  1
  O  O44  1  0.30338648  0.27347321  0.37807992  1
  O  O45  1  0.10604568  0.78959572  0.06923802  1
  O  O46  1  0.41428328  0.01022486  0.27646215  1
  O  O47  1  0.99054519  0.86472323  0.57076233  1
  O  O48  1  0.02129292  0.81934662  0.32626864  1
  O  O49  1  0.69436527  0.48279399  0.58026188  1
  O  O50  1  0.30563473  0.51720601  0.41973812  1
  O  O51  1  0.02748891  0.58316550  0.27488600  1
