# generated using pymatgen
data_Cd2H2SO6
_symmetry_space_group_name_H-M   'P 1'
_cell_length_a   6.95009059
_cell_length_b   7.51857578
_cell_length_c   9.98649203
_cell_angle_alpha   90.00000000
_cell_angle_beta   97.32149480
_cell_angle_gamma   90.00000000
_symmetry_Int_Tables_number   1
_chemical_formula_structural   Cd2H2SO6
_chemical_formula_sum   'Cd8 H8 S4 O24'
_cell_volume   517.58723998
_cell_formula_units_Z   4
loop_
 _symmetry_equiv_pos_site_id
 _symmetry_equiv_pos_as_xyz
  1  'x, y, z'
loop_
 _atom_site_type_symbol
 _atom_site_label
 _atom_site_symmetry_multiplicity
 _atom_site_fract_x
 _atom_site_fract_y
 _atom_site_fract_z
 _atom_site_occupancy
  Cd  Cd0  1  0.01326875  0.53655249  0.66736989  1
  Cd  Cd1  1  0.32426557  0.16506894  0.49694885  1
  Cd  Cd2  1  0.67573443  0.83493106  0.50305115  1
  Cd  Cd3  1  0.82426557  0.33493106  0.99694885  1
  Cd  Cd4  1  0.48673125  0.03655249  0.83263011  1
  Cd  Cd5  1  0.98673125  0.46344751  0.33263011  1
  Cd  Cd6  1  0.51326875  0.96344751  0.16736989  1
  Cd  Cd7  1  0.17573443  0.66506894  0.00305115  1
  H  H8  1  0.86982968  0.67761182  0.13407340  1
  H  H9  1  0.36982968  0.82238818  0.63407340  1
  H  H10  1  0.46951900  0.28813443  0.04800481  1
  H  H11  1  0.53048100  0.71186557  0.95199519  1
  H  H12  1  0.96951900  0.21186557  0.54800481  1
  H  H13  1  0.03048100  0.78813443  0.45199519  1
  H  H14  1  0.63017032  0.17761182  0.36592660  1
  H  H15  1  0.13017032  0.32238818  0.86592660  1
  S  S16  1  0.47261174  0.50644837  0.28204287  1
  S  S17  1  0.02738826  0.00644837  0.21795713  1
  S  S18  1  0.97261174  0.99355163  0.78204287  1
  S  S19  1  0.52738826  0.49355163  0.71795713  1
  O  O20  1  0.65378825  0.40602421  0.31405635  1
  O  O21  1  0.94721524  0.69117189  0.47459189  1
  O  O22  1  0.15378825  0.09397579  0.81405635  1
  O  O23  1  0.10398112  0.98273060  0.36101454  1
  O  O24  1  0.55278476  0.19117189  0.02540811  1
  O  O25  1  0.94398172  0.56919812  0.12482721  1
  O  O26  1  0.05601828  0.43080188  0.87517279  1
  O  O27  1  0.89601888  0.01726940  0.63898546  1
  O  O28  1  0.05278476  0.30882811  0.52540811  1
  O  O29  1  0.49314720  0.30169600  0.69105158  1
  O  O30  1  0.39601888  0.48273060  0.13898546  1
  O  O31  1  0.44398172  0.93080188  0.62482721  1
  O  O32  1  0.84621175  0.90602421  0.18594365  1
  O  O33  1  0.55601828  0.06919812  0.37517279  1
  O  O34  1  0.00685280  0.80169600  0.80894842  1
  O  O35  1  0.60398112  0.51726940  0.86101454  1
  O  O36  1  0.67001225  0.55994369  0.63159199  1
  O  O37  1  0.82998775  0.05994369  0.86840801  1
  O  O38  1  0.34621175  0.59397579  0.68594365  1
  O  O39  1  0.50685280  0.69830400  0.30894842  1
  O  O40  1  0.44721524  0.80882811  0.97459189  1
  O  O41  1  0.17001225  0.94005631  0.13159199  1
  O  O42  1  0.32998775  0.44005631  0.36840801  1
  O  O43  1  0.99314720  0.19830400  0.19105158  1
