# generated using pymatgen
data_TlGaBr4
_symmetry_space_group_name_H-M   'P 1'
_cell_length_a   11.12247847
_cell_length_b   12.45045506
_cell_length_c   12.79934470
_cell_angle_alpha   70.91739647
_cell_angle_beta   90.00000000
_cell_angle_gamma   90.00000000
_symmetry_Int_Tables_number   1
_chemical_formula_structural   TlGaBr4
_chemical_formula_sum   'Tl8 Ga8 Br32'
_cell_volume   1675.05280506
_cell_formula_units_Z   8
loop_
 _symmetry_equiv_pos_site_id
 _symmetry_equiv_pos_as_xyz
  1  'x, y, z'
loop_
 _atom_site_type_symbol
 _atom_site_label
 _atom_site_symmetry_multiplicity
 _atom_site_fract_x
 _atom_site_fract_y
 _atom_site_fract_z
 _atom_site_occupancy
  Tl  Tl0  1  0.13666100  0.69750227  0.37657760  1
  Tl  Tl1  1  0.36333900  0.69750227  0.87657760  1
  Tl  Tl2  1  0.84145761  0.79727633  0.01784322  1
  Tl  Tl3  1  0.15854239  0.20272367  0.98215678  1
  Tl  Tl4  1  0.34145761  0.20272367  0.48215678  1
  Tl  Tl5  1  0.63666100  0.30249773  0.12342240  1
  Tl  Tl6  1  0.65854239  0.79727633  0.51784322  1
  Tl  Tl7  1  0.86333900  0.30249773  0.62342240  1
  Ga  Ga8  1  0.63893641  0.48258041  0.78822200  1
  Ga  Ga9  1  0.36106359  0.51741959  0.21177800  1
  Ga  Ga10  1  0.42017567  0.00100717  0.27860757  1
  Ga  Ga11  1  0.57982433  0.99899283  0.72139243  1
  Ga  Ga12  1  0.86106359  0.48258041  0.28822200  1
  Ga  Ga13  1  0.13893641  0.51741959  0.71177800  1
  Ga  Ga14  1  0.07982433  0.00100717  0.77860757  1
  Ga  Ga15  1  0.92017567  0.99899283  0.22139243  1
  Br  Br16  1  0.23707431  0.02378861  0.35764808  1
  Br  Br17  1  0.73707431  0.97621139  0.14235192  1
  Br  Br18  1  0.92578217  0.90126744  0.41196918  1
  Br  Br19  1  0.12457788  0.49883988  0.89901112  1
  Br  Br20  1  0.21008618  0.64839656  0.12680744  1
  Br  Br21  1  0.95120202  0.19354158  0.18400573  1
  Br  Br22  1  0.28991382  0.64839656  0.62680744  1
  Br  Br23  1  0.32267177  0.33679437  0.19849843  1
  Br  Br24  1  0.96005230  0.58249168  0.61405232  1
  Br  Br25  1  0.57421783  0.90126744  0.91196918  1
  Br  Br26  1  0.67732823  0.66320563  0.80150157  1
  Br  Br27  1  0.82267177  0.66320563  0.30150157  1
  Br  Br28  1  0.54879798  0.19354158  0.68400573  1
  Br  Br29  1  0.53994770  0.58249168  0.11405232  1
  Br  Br30  1  0.42578217  0.09873256  0.08803082  1
  Br  Br31  1  0.71008618  0.35160344  0.37319256  1
  Br  Br32  1  0.92734356  0.07948227  0.86094121  1
  Br  Br33  1  0.07421783  0.09873256  0.58803082  1
  Br  Br34  1  0.57265644  0.07948227  0.36094121  1
  Br  Br35  1  0.26292569  0.02378861  0.85764808  1
  Br  Br36  1  0.04879798  0.80645842  0.81599427  1
  Br  Br37  1  0.76292569  0.97621139  0.64235192  1
  Br  Br38  1  0.03994770  0.41750832  0.38594768  1
  Br  Br39  1  0.46005230  0.41750832  0.88594768  1
  Br  Br40  1  0.78991382  0.35160344  0.87319256  1
  Br  Br41  1  0.62457788  0.50116012  0.60098888  1
  Br  Br42  1  0.37542212  0.49883988  0.39901112  1
  Br  Br43  1  0.17732823  0.33679437  0.69849843  1
  Br  Br44  1  0.87542212  0.50116012  0.10098888  1
  Br  Br45  1  0.45120202  0.80645842  0.31599427  1
  Br  Br46  1  0.42734356  0.92051773  0.63905879  1
  Br  Br47  1  0.07265644  0.92051773  0.13905879  1
