# generated using pymatgen
data_Ba(BrO3)2
_symmetry_space_group_name_H-M   'P 1'
_cell_length_a   7.36240002
_cell_length_b   7.36239976
_cell_length_c   7.75281463
_cell_angle_alpha   101.52798480
_cell_angle_beta   110.76014531
_cell_angle_gamma   114.60141004
_symmetry_Int_Tables_number   1
_chemical_formula_structural   Ba(BrO3)2
_chemical_formula_sum   'Ba2 Br4 O12'
_cell_volume   326.09555435
_cell_formula_units_Z   2
loop_
 _symmetry_equiv_pos_site_id
 _symmetry_equiv_pos_as_xyz
  1  'x, y, z'
loop_
 _atom_site_type_symbol
 _atom_site_label
 _atom_site_symmetry_multiplicity
 _atom_site_fract_x
 _atom_site_fract_y
 _atom_site_fract_z
 _atom_site_occupancy
  Ba  Ba0  1  0.89362145  0.14362145  0.75000000  1
  Ba  Ba1  1  0.10637855  0.85637855  0.25000000  1
  Br  Br2  1  0.51902137  0.32315082  0.81742286  1
  Br  Br3  1  0.48097863  0.67684918  0.18257714  1
  Br  Br4  1  0.99427304  0.29840150  0.31742286  1
  Br  Br5  1  0.00572696  0.70159850  0.68257714  1
  O  O6  1  0.54679822  0.91060563  0.34643795  1
  O  O7  1  0.06416668  0.20035826  0.15356205  1
  O  O8  1  0.45320178  0.08939437  0.65356205  1
  O  O9  1  0.90669989  0.78147060  0.50166018  1
  O  O10  1  0.17498108  0.56781455  0.41826903  1
  O  O11  1  0.93583332  0.79964174  0.84643795  1
  O  O12  1  0.09330011  0.21852940  0.49834082  1
  O  O13  1  0.77981142  0.40503872  0.99833982  1
  O  O14  1  0.22018858  0.59496128  0.00165918  1
  O  O15  1  0.35045548  0.24328695  0.91826903  1
  O  O16  1  0.82501892  0.43218545  0.58173097  1
  O  O17  1  0.64954452  0.75671305  0.08173097  1
