# generated using pymatgen
data_La2Ti2O7
_symmetry_space_group_name_H-M   'P 1'
_cell_length_a   5.54446040
_cell_length_b   7.77667229
_cell_length_c   13.06432967
_cell_angle_alpha   98.57158814
_cell_angle_beta   90.00000000
_cell_angle_gamma   90.00000000
_symmetry_Int_Tables_number   1
_chemical_formula_structural   La2Ti2O7
_chemical_formula_sum   'La8 Ti8 O28'
_cell_volume   557.00876566
_cell_formula_units_Z   4
loop_
 _symmetry_equiv_pos_site_id
 _symmetry_equiv_pos_as_xyz
  1  'x, y, z'
loop_
 _atom_site_type_symbol
 _atom_site_label
 _atom_site_symmetry_multiplicity
 _atom_site_fract_x
 _atom_site_fract_y
 _atom_site_fract_z
 _atom_site_occupancy
  La  La0  1  0.34637091  0.14740792  0.58077204  1
  La  La1  1  0.84637091  0.85259208  0.41922796  1
  La  La2  1  0.30134068  0.64963141  0.61012249  1
  La  La3  1  0.26013929  0.77294331  0.09813082  1
  La  La4  1  0.25454097  0.27881075  0.11481088  1
  La  La5  1  0.80134068  0.35036859  0.38987751  1
  La  La6  1  0.75454097  0.72118925  0.88518912  1
  La  La7  1  0.76013929  0.22705669  0.90186918  1
  Ti  Ti8  1  0.79672319  0.41788704  0.67457243  1
  Ti  Ti9  1  0.76558252  0.03063674  0.11806833  1
  Ti  Ti10  1  0.26446775  0.47360119  0.87969634  1
  Ti  Ti11  1  0.79257221  0.92339021  0.67828193  1
  Ti  Ti12  1  0.26558252  0.96936326  0.88193167  1
  Ti  Ti13  1  0.76446775  0.52639881  0.12030366  1
  Ti  Ti14  1  0.29672319  0.58211296  0.32542757  1
  Ti  Ti15  1  0.29257221  0.07660979  0.32171807  1
  O  O16  1  0.57275670  0.87743462  0.56970175  1
  O  O17  1  0.07275670  0.12256538  0.43029825  1
  O  O18  1  0.71506741  0.17461837  0.69549693  1
  O  O19  1  0.95608775  0.97186380  0.81417889  1
  O  O20  1  0.08403560  0.59570985  0.43945713  1
  O  O21  1  0.19001074  0.72709463  0.90745370  1
  O  O22  1  0.46796363  0.89683121  0.77417875  1
  O  O23  1  0.05516347  0.91430511  0.59189599  1
  O  O24  1  0.52446702  0.52499799  0.98087891  1
  O  O25  1  0.02446702  0.47500201  0.01912109  1
  O  O26  1  0.07167781  0.38305630  0.60353045  1
  O  O27  1  0.45608775  0.02813620  0.18582111  1
  O  O28  1  0.33206418  0.32679663  0.30780368  1
  O  O29  1  0.52416753  0.96631378  0.98314843  1
  O  O30  1  0.95076202  0.43780118  0.81579960  1
  O  O31  1  0.69001074  0.27290537  0.09254630  1
  O  O32  1  0.96796363  0.10316879  0.22582125  1
  O  O33  1  0.57167781  0.61694370  0.39646955  1
  O  O34  1  0.80333652  0.77610492  0.10715496  1
  O  O35  1  0.96180410  0.50903740  0.22948550  1
  O  O36  1  0.02416753  0.03368622  0.01685157  1
  O  O37  1  0.83206418  0.67320337  0.69219632  1
  O  O38  1  0.45076202  0.56219882  0.18420040  1
  O  O39  1  0.55516347  0.08569489  0.40810401  1
  O  O40  1  0.58403560  0.40429015  0.56054287  1
  O  O41  1  0.30333652  0.22389508  0.89284504  1
  O  O42  1  0.21506741  0.82538163  0.30450307  1
  O  O43  1  0.46180410  0.49096260  0.77051450  1
