# generated using pymatgen
data_CsPS3
_symmetry_space_group_name_H-M   'P 1'
_cell_length_a   7.24529251
_cell_length_b   7.53068020
_cell_length_c   7.53068007
_cell_angle_alpha   74.19901481
_cell_angle_beta   61.24588756
_cell_angle_gamma   61.24588460
_symmetry_Int_Tables_number   1
_chemical_formula_structural   CsPS3
_chemical_formula_sum   'Cs2 P2 S6'
_cell_volume   315.35757467
_cell_formula_units_Z   2
loop_
 _symmetry_equiv_pos_site_id
 _symmetry_equiv_pos_as_xyz
  1  'x, y, z'
loop_
 _atom_site_type_symbol
 _atom_site_label
 _atom_site_symmetry_multiplicity
 _atom_site_fract_x
 _atom_site_fract_y
 _atom_site_fract_z
 _atom_site_occupancy
  Cs  Cs0  1  0.00000000  0.73776552  0.26223448  1
  Cs  Cs1  1  -0.00000000  0.26223448  0.73776552  1
  P  P2  1  0.34481764  0.65518236  0.65518236  1
  P  P3  1  0.65518236  0.34481764  0.34481764  1
  S  S4  1  0.50000000  0.32908421  0.67091579  1
  S  S5  1  0.50000000  0.67091579  0.32908421  1
  S  S6  1  0.47267590  0.76050651  0.76050651  1
  S  S7  1  -0.00631008  0.23949349  0.23949349  1
  S  S8  1  0.52732410  0.23949349  0.23949349  1
  S  S9  1  0.00631008  0.76050651  0.76050651  1
