# generated using pymatgen
data_CdI2
_symmetry_space_group_name_H-M   'P 1'
_cell_length_a   4.28688391
_cell_length_b   4.28688335
_cell_length_c   71.51157708
_cell_angle_alpha   90.00000000
_cell_angle_beta   90.00000000
_cell_angle_gamma   120.00000440
_symmetry_Int_Tables_number   1
_chemical_formula_structural   CdI2
_chemical_formula_sum   'Cd10 I20'
_cell_volume   1138.12603302
_cell_formula_units_Z   10
loop_
 _symmetry_equiv_pos_site_id
 _symmetry_equiv_pos_as_xyz
  1  'x, y, z'
loop_
 _atom_site_type_symbol
 _atom_site_label
 _atom_site_symmetry_multiplicity
 _atom_site_fract_x
 _atom_site_fract_y
 _atom_site_fract_z
 _atom_site_occupancy
  Cd  Cd0  1  0.33333300  0.66666700  0.32415420  1
  Cd  Cd1  1  0.00000000  -0.00000000  0.92498812  1
  Cd  Cd2  1  0.00000000  -0.00000000  0.82556810  1
  Cd  Cd3  1  0.00000000  -0.00000000  0.52509374  1
  Cd  Cd4  1  0.33333300  0.66666700  0.02497663  1
  Cd  Cd5  1  0.00000000  0.00000000  0.12433371  1
  Cd  Cd6  1  0.33333300  0.66666700  0.42486880  1
  Cd  Cd7  1  0.33333300  0.66666700  0.72599437  1
  Cd  Cd8  1  0.33333300  0.66666700  0.22434459  1
  Cd  Cd9  1  0.00000000  -0.00000000  0.62557846  1
  I  I10  1  0.00000000  -0.00000000  0.40074515  1
  I  I11  1  0.66666700  0.33333300  0.44901605  1
  I  I12  1  0.33333300  0.66666700  0.80147381  1
  I  I13  1  0.66666700  0.33333300  0.54924997  1
  I  I14  1  0.66666700  0.33333300  0.64972664  1
  I  I15  1  0.00000000  -0.00000000  0.30019191  1
  I  I16  1  0.66666700  0.33333300  0.34813953  1
  I  I17  1  0.00000000  0.00000000  0.20022694  1
  I  I18  1  0.66666700  0.33333300  0.75012283  1
  I  I19  1  0.66666700  0.33333300  0.94905893  1
  I  I20  1  0.66666700  0.33333300  0.04905918  1
  I  I21  1  0.66666700  0.33333300  0.14845600  1
  I  I22  1  0.33333300  0.66666700  0.10023322  1
  I  I23  1  0.66666700  0.33333300  0.84972259  1
  I  I24  1  0.33333300  0.66666700  0.90092650  1
  I  I25  1  0.00000000  0.00000000  0.00092441  1
  I  I26  1  0.00000000  -0.00000000  0.70189252  1
  I  I27  1  0.66666700  0.33333300  0.24847827  1
  I  I28  1  0.33333300  0.66666700  0.60147337  1
  I  I29  1  0.33333300  0.66666700  0.50098245  1
