# generated using pymatgen
data_TiMn2O4
_symmetry_space_group_name_H-M   'P 1'
_cell_length_a   6.14820616
_cell_length_b   6.14820564
_cell_length_c   8.59148081
_cell_angle_alpha   90.00004530
_cell_angle_beta   90.00002062
_cell_angle_gamma   89.99999366
_symmetry_Int_Tables_number   1
_chemical_formula_structural   TiMn2O4
_chemical_formula_sum   'Ti4 Mn8 O16'
_cell_volume   324.76171869
_cell_formula_units_Z   4
loop_
 _symmetry_equiv_pos_site_id
 _symmetry_equiv_pos_as_xyz
  1  'x, y, z'
loop_
 _atom_site_type_symbol
 _atom_site_label
 _atom_site_symmetry_multiplicity
 _atom_site_fract_x
 _atom_site_fract_y
 _atom_site_fract_z
 _atom_site_occupancy
  Ti  Ti0  1  0.49999939  0.24549256  -0.00000053  1
  Ti  Ti1  1  0.75450878  0.50000013  0.75000038  1
  Ti  Ti2  1  0.24549285  0.49999986  0.24999997  1
  Ti  Ti3  1  0.49999908  0.75450802  0.50000063  1
  Mn  Mn4  1  -0.00000020  0.25220010  0.00000027  1
  Mn  Mn5  1  0.74779954  -0.00000004  0.74999997  1
  Mn  Mn6  1  0.25219985  -0.00000014  0.24999989  1
  Mn  Mn7  1  -0.00000023  0.74779982  0.49999982  1
  Mn  Mn8  1  0.25094628  0.25094629  0.62500013  1
  Mn  Mn9  1  0.74905369  0.25094647  0.37500042  1
  Mn  Mn10  1  0.25094662  0.74905364  0.87499987  1
  Mn  Mn11  1  0.74905352  0.74905407  0.12500000  1
  O  O12  1  0.26995280  0.03430225  0.99744735  1
  O  O13  1  0.96569710  0.26995240  0.74744734  1
  O  O14  1  0.03430221  0.73004709  0.24744760  1
  O  O15  1  0.26995251  0.96569749  0.50255265  1
  O  O16  1  0.73004755  0.03430254  0.00255245  1
  O  O17  1  0.73004759  0.96569766  0.49744752  1
  O  O18  1  0.03430210  0.26995272  0.25255266  1
  O  O19  1  0.96569734  0.73004779  0.75255288  1
  O  O20  1  0.26919273  0.48577286  0.02021141  1
  O  O21  1  0.51422663  0.26919269  0.77021137  1
  O  O22  1  0.48577229  0.73080660  0.27021193  1
  O  O23  1  0.26919304  0.51422677  0.47978860  1
  O  O24  1  0.73080652  0.48577253  0.97978837  1
  O  O25  1  0.73080782  0.51422827  0.52021207  1
  O  O26  1  0.48577216  0.26919317  0.22978845  1
  O  O27  1  0.51422645  0.73080742  0.72978854  1
