# generated using pymatgen
data_S
_symmetry_space_group_name_H-M   'P 1'
_cell_length_a   7.88263751
_cell_length_b   9.71468292
_cell_length_c   9.94630688
_cell_angle_alpha   101.39460728
_cell_angle_beta   90.00000000
_cell_angle_gamma   90.00000000
_symmetry_Int_Tables_number   1
_chemical_formula_structural   S
_chemical_formula_sum   S28
_cell_volume   746.64904253
_cell_formula_units_Z   28
loop_
 _symmetry_equiv_pos_site_id
 _symmetry_equiv_pos_as_xyz
  1  'x, y, z'
loop_
 _atom_site_type_symbol
 _atom_site_label
 _atom_site_symmetry_multiplicity
 _atom_site_fract_x
 _atom_site_fract_y
 _atom_site_fract_z
 _atom_site_occupancy
  S  S0  1  0.08145048  0.10457449  0.31711324  1
  S  S1  1  0.61410251  0.66625188  0.46184752  1
  S  S2  1  0.78285600  0.07634326  0.06742281  1
  S  S3  1  0.38524437  0.76273187  0.22174370  1
  S  S4  1  0.40239755  0.86455109  0.77766521  1
  S  S5  1  0.59760245  0.13544891  0.22233479  1
  S  S6  1  0.61475563  0.23726813  0.77825630  1
  S  S7  1  0.11410251  0.83374812  0.53815248  1
  S  S8  1  0.71714400  0.57634326  0.06742281  1
  S  S9  1  0.41854952  0.60457449  0.31711324  1
  S  S10  1  0.09760245  0.36455109  0.77766521  1
  S  S11  1  0.88589749  0.16625188  0.46184752  1
  S  S12  1  0.88524437  0.73726813  0.77825630  1
  S  S13  1  0.58145048  0.39542551  0.68288676  1
  S  S14  1  0.91854952  0.89542551  0.68288676  1
  S  S15  1  0.31340956  0.95416142  0.62246834  1
  S  S16  1  0.41937877  0.25480083  0.93945910  1
  S  S17  1  0.28285600  0.42365674  0.93257819  1
  S  S18  1  0.58062123  0.74519917  0.06054090  1
  S  S19  1  0.21714400  0.92365674  0.93257819  1
  S  S20  1  0.81340956  0.54583858  0.37753166  1
  S  S21  1  0.90239755  0.63544891  0.22233479  1
  S  S22  1  0.11475563  0.26273187  0.22174370  1
  S  S23  1  0.68659044  0.04583858  0.37753166  1
  S  S24  1  0.08062123  0.75480083  0.93945910  1
  S  S25  1  0.91937877  0.24519917  0.06054090  1
  S  S26  1  0.18659044  0.45416142  0.62246834  1
  S  S27  1  0.38589749  0.33374812  0.53815248  1
