# generated using pymatgen
data_VBiO4
_symmetry_space_group_name_H-M   'P 1'
_cell_length_a   6.08425309
_cell_length_b   6.08426829
_cell_length_c   6.08423514
_cell_angle_alpha   106.25507944
_cell_angle_beta   106.25553535
_cell_angle_gamma   116.11377987
_symmetry_Int_Tables_number   1
_chemical_formula_structural   VBiO4
_chemical_formula_sum   'V2 Bi2 O8'
_cell_volume   171.61389686
_cell_formula_units_Z   2
loop_
 _symmetry_equiv_pos_site_id
 _symmetry_equiv_pos_as_xyz
  1  'x, y, z'
loop_
 _atom_site_type_symbol
 _atom_site_label
 _atom_site_symmetry_multiplicity
 _atom_site_fract_x
 _atom_site_fract_y
 _atom_site_fract_z
 _atom_site_occupancy
  V  V0  1  0.37501756  0.62501505  0.75000308  1
  V  V1  1  0.62497334  0.37500257  0.25001291  1
  Bi  Bi2  1  0.12500687  0.87499902  0.24999916  1
  Bi  Bi3  1  0.87500555  0.12501042  0.75000092  1
  O  O4  1  0.27272156  0.20427983  0.06845587  1
  O  O5  1  0.20427897  0.63581588  0.93154460  1
  O  O6  1  0.36417868  0.79571678  0.56844526  1
  O  O7  1  0.20427480  0.27270610  0.56844179  1
  O  O8  1  0.79572019  0.72728117  0.43155599  1
  O  O9  1  0.63581326  0.20427511  0.43154796  1
  O  O10  1  0.79572337  0.36417514  0.06844646  1
  O  O11  1  0.72728384  0.79572093  0.93154700  1
