# generated using pymatgen
data_NbPO5
_symmetry_space_group_name_H-M   'P 1'
_cell_length_a   5.34595525
_cell_length_b   13.16294460
_cell_length_c   13.21319406
_cell_angle_alpha   118.94609060
_cell_angle_beta   90.00000000
_cell_angle_gamma   90.00000000
_symmetry_Int_Tables_number   1
_chemical_formula_structural   NbPO5
_chemical_formula_sum   'Nb8 P8 O40'
_cell_volume   813.63889006
_cell_formula_units_Z   8
loop_
 _symmetry_equiv_pos_site_id
 _symmetry_equiv_pos_as_xyz
  1  'x, y, z'
loop_
 _atom_site_type_symbol
 _atom_site_label
 _atom_site_symmetry_multiplicity
 _atom_site_fract_x
 _atom_site_fract_y
 _atom_site_fract_z
 _atom_site_occupancy
  Nb  Nb0  1  0.75455325  0.36603697  0.30308903  1
  Nb  Nb1  1  0.25455325  0.13396303  0.19691097  1
  Nb  Nb2  1  0.24544675  0.63396303  0.69691097  1
  Nb  Nb3  1  0.74544675  0.86603697  0.80308903  1
  Nb  Nb4  1  0.74603563  0.19716393  0.63362417  1
  Nb  Nb5  1  0.24603563  0.30283607  0.86637583  1
  Nb  Nb6  1  0.25396437  0.80283607  0.36637583  1
  Nb  Nb7  1  0.75396437  0.69716393  0.13362417  1
  P  P8  1  0.74122022  0.40874524  0.06277304  1
  P  P9  1  0.24122022  0.09125476  0.43722696  1
  P  P10  1  0.25877978  0.59125476  0.93722696  1
  P  P11  1  0.75877978  0.90874524  0.56277304  1
  P  P12  1  0.23737551  0.06291648  0.90913962  1
  P  P13  1  0.73737551  0.43708352  0.59086038  1
  P  P14  1  0.76262449  0.93708352  0.09086038  1
  P  P15  1  0.26262449  0.56291648  0.40913962  1
  O  O16  1  0.75049775  0.37255389  0.15646036  1
  O  O17  1  0.25049775  0.12744611  0.34353964  1
  O  O18  1  0.24950225  0.62744611  0.84353964  1
  O  O19  1  0.74950225  0.87255389  0.65646036  1
  O  O20  1  0.76124481  0.37754879  0.45936413  1
  O  O21  1  0.26124481  0.12245121  0.04063587  1
  O  O22  1  0.23875519  0.62245121  0.54063587  1
  O  O23  1  0.73875519  0.87754879  0.95936413  1
  O  O24  1  0.46712498  0.26665175  0.25911853  1
  O  O25  1  0.96712498  0.23334825  0.24088047  1
  O  O26  1  0.53287502  0.73334825  0.74088147  1
  O  O27  1  0.03287502  0.76665175  0.75911853  1
  O  O28  1  0.51863517  0.50749617  0.37234358  1
  O  O29  1  0.01863517  0.99250383  0.12765642  1
  O  O30  1  0.48136483  0.49250383  0.62765642  1
  O  O31  1  0.98136483  0.00749617  0.87234358  1
  O  O32  1  0.05554392  0.47404981  0.35348089  1
  O  O33  1  0.55554392  0.02595019  0.14651911  1
  O  O34  1  0.94445608  0.52595019  0.64651911  1
  O  O35  1  0.44445608  0.97404981  0.85348089  1
  O  O36  1  0.76764396  0.34425754  0.62788298  1
  O  O37  1  0.26764396  0.15574246  0.87211702  1
  O  O38  1  0.23235604  0.65574246  0.37211702  1
  O  O39  1  0.73235604  0.84425754  0.12788298  1
  O  O40  1  0.71942548  0.03991693  0.62072219  1
  O  O41  1  0.21942548  0.46008307  0.87927781  1
  O  O42  1  0.28057452  0.96008307  0.37927781  1
  O  O43  1  0.78057452  0.53991693  0.12072219  1
  O  O44  1  0.52647255  0.26236408  0.76374565  1
  O  O45  1  0.02647255  0.23763592  0.73625435  1
  O  O46  1  0.47352745  0.73763592  0.23625435  1
  O  O47  1  0.97352745  0.76236408  0.26374565  1
  O  O48  1  0.98715556  0.12307179  0.49553127  1
  O  O49  1  0.48715556  0.37692821  0.00446873  1
  O  O50  1  0.01284444  0.87692821  0.50446873  1
  O  O51  1  0.51284444  0.62307179  0.99553127  1
  O  O52  1  0.44996398  0.15301382  0.52318249  1
  O  O53  1  0.94996398  0.34698618  0.97681751  1
  O  O54  1  0.55003602  0.84698618  0.47681751  1
  O  O55  1  0.05003602  0.65301382  0.02318249  1
