# generated using pymatgen
data_Sm3CuSe6
_symmetry_space_group_name_H-M   'P 1'
_cell_length_a   17.07340880
_cell_length_b   7.18175922
_cell_length_c   7.91832415
_cell_angle_alpha   89.43982188
_cell_angle_beta   90.00000000
_cell_angle_gamma   90.00000000
_symmetry_Int_Tables_number   1
_chemical_formula_structural   Sm3CuSe6
_chemical_formula_sum   'Sm12 Cu4 Se24'
_cell_volume   970.87562790
_cell_formula_units_Z   4
loop_
 _symmetry_equiv_pos_site_id
 _symmetry_equiv_pos_as_xyz
  1  'x, y, z'
loop_
 _atom_site_type_symbol
 _atom_site_label
 _atom_site_symmetry_multiplicity
 _atom_site_fract_x
 _atom_site_fract_y
 _atom_site_fract_z
 _atom_site_occupancy
  Sm  Sm0  1  0.75000000  0.76471716  0.44330115  1
  Sm  Sm1  1  0.58702883  0.25602086  0.55866702  1
  Sm  Sm2  1  0.40913087  0.27375120  0.94384781  1
  Sm  Sm3  1  0.09086913  0.27375120  0.94384781  1
  Sm  Sm4  1  0.90913087  0.72624880  0.05615219  1
  Sm  Sm5  1  0.75000000  0.23278804  0.94577089  1
  Sm  Sm6  1  0.41297117  0.74397914  0.44133298  1
  Sm  Sm7  1  0.08702883  0.74397914  0.44133298  1
  Sm  Sm8  1  0.59086913  0.72624880  0.05615219  1
  Sm  Sm9  1  0.25000000  0.23528284  0.55669885  1
  Sm  Sm10  1  0.25000000  0.76721196  0.05422911  1
  Sm  Sm11  1  0.91297117  0.25602086  0.55866702  1
  Cu  Cu12  1  0.47111140  0.89539436  0.79779298  1
  Cu  Cu13  1  0.97111140  0.10460564  0.20220702  1
  Cu  Cu14  1  0.52888860  0.10460564  0.20220702  1
  Cu  Cu15  1  0.02888860  0.89539436  0.79779298  1
  Se  Se16  1  0.58145759  0.10799154  0.90964840  1
  Se  Se17  1  0.08145759  0.89200846  0.09035160  1
  Se  Se18  1  0.25000000  0.88495492  0.39626359  1
  Se  Se19  1  0.17684080  0.43079437  0.25036338  1
  Se  Se20  1  0.41854241  0.89200846  0.09035160  1
  Se  Se21  1  0.82239107  0.42070989  0.25569676  1
  Se  Se22  1  0.99996493  0.57336594  0.74776703  1
  Se  Se23  1  0.67684080  0.56920563  0.74963662  1
  Se  Se24  1  0.82315920  0.56920563  0.74963662  1
  Se  Se25  1  0.75000000  0.87308082  0.09717594  1
  Se  Se26  1  0.41856835  0.11428395  0.60017207  1
  Se  Se27  1  0.49996493  0.42663406  0.25223297  1
  Se  Se28  1  0.91856835  0.88571605  0.39982793  1
  Se  Se29  1  0.17760893  0.57929011  0.74430324  1
  Se  Se30  1  0.75000000  0.11504508  0.60373641  1
  Se  Se31  1  0.50003507  0.57336594  0.74776703  1
  Se  Se32  1  0.67760893  0.42070989  0.25569676  1
  Se  Se33  1  0.58143165  0.88571605  0.39982793  1
  Se  Se34  1  0.32315920  0.43079437  0.25036338  1
  Se  Se35  1  0.32239107  0.57929011  0.74430324  1
  Se  Se36  1  0.00003507  0.42663406  0.25223297  1
  Se  Se37  1  0.08143165  0.11428395  0.60017207  1
  Se  Se38  1  0.25000000  0.12691918  0.90282406  1
  Se  Se39  1  0.91854241  0.10799154  0.90964840  1
