# generated using pymatgen
data_XeF3
_symmetry_space_group_name_H-M   'P 1'
_cell_length_a   6.29773463
_cell_length_b   6.43530410
_cell_length_c   7.33325592
_cell_angle_alpha   90.00000000
_cell_angle_beta   90.00000000
_cell_angle_gamma   92.70151363
_symmetry_Int_Tables_number   1
_chemical_formula_structural   XeF3
_chemical_formula_sum   'Xe4 F12'
_cell_volume   296.87070430
_cell_formula_units_Z   4
loop_
 _symmetry_equiv_pos_site_id
 _symmetry_equiv_pos_as_xyz
  1  'x, y, z'
loop_
 _atom_site_type_symbol
 _atom_site_label
 _atom_site_symmetry_multiplicity
 _atom_site_fract_x
 _atom_site_fract_y
 _atom_site_fract_z
 _atom_site_occupancy
  Xe  Xe0  1  0.50000000  0.00000000  0.50000000  1
  Xe  Xe1  1  -0.00000000  0.00000000  -0.00000000  1
  Xe  Xe2  1  -0.00000000  0.50000000  0.50000000  1
  Xe  Xe3  1  0.50000000  0.50000000  -0.00000000  1
  F  F4  1  0.83500377  0.82025054  0.18998259  1
  F  F5  1  0.16499623  0.17974946  0.81001741  1
  F  F6  1  0.52448002  0.21116226  0.10247376  1
  F  F7  1  0.69572196  0.49769216  0.41183628  1
  F  F8  1  0.80427804  0.50230784  0.91183628  1
  F  F9  1  0.19572196  0.49769216  0.08816372  1
  F  F10  1  0.30427804  0.50230784  0.58816372  1
  F  F11  1  0.02448002  0.21116226  0.39752624  1
  F  F12  1  0.66499623  0.17974946  0.68998259  1
  F  F13  1  0.47551998  0.78883774  0.89752624  1
  F  F14  1  0.33500377  0.82025054  0.31001741  1
  F  F15  1  0.97551998  0.78883774  0.60247376  1
