# generated using pymatgen
data_Tl2TeO3
_symmetry_space_group_name_H-M   'P 1'
_cell_length_a   5.26431634
_cell_length_b   11.20254256
_cell_length_c   16.73033684
_cell_angle_alpha   90.00000000
_cell_angle_beta   90.00000000
_cell_angle_gamma   90.00000000
_symmetry_Int_Tables_number   1
_chemical_formula_structural   Tl2TeO3
_chemical_formula_sum   'Tl16 Te8 O24'
_cell_volume   986.65033161
_cell_formula_units_Z   8
loop_
 _symmetry_equiv_pos_site_id
 _symmetry_equiv_pos_as_xyz
  1  'x, y, z'
loop_
 _atom_site_type_symbol
 _atom_site_label
 _atom_site_symmetry_multiplicity
 _atom_site_fract_x
 _atom_site_fract_y
 _atom_site_fract_z
 _atom_site_occupancy
  Tl  Tl0  1  0.24954314  0.62987792  0.41888479  1
  Tl  Tl1  1  0.24954314  0.37012208  0.58111521  1
  Tl  Tl2  1  0.75045686  0.62987792  0.58111521  1
  Tl  Tl3  1  0.75045686  0.37012208  0.41888479  1
  Tl  Tl4  1  0.75045686  0.87012208  0.08111521  1
  Tl  Tl5  1  0.75045686  0.12987792  0.91888479  1
  Tl  Tl6  1  0.24954314  0.87012208  0.91888479  1
  Tl  Tl7  1  0.24954314  0.12987792  0.08111521  1
  Tl  Tl8  1  0.75778613  0.61539532  0.25432914  1
  Tl  Tl9  1  0.75778613  0.38460468  0.74567086  1
  Tl  Tl10  1  0.24221387  0.61539532  0.74567086  1
  Tl  Tl11  1  0.24221387  0.38460468  0.25432914  1
  Tl  Tl12  1  0.24221387  0.88460468  0.24567086  1
  Tl  Tl13  1  0.24221387  0.11539532  0.75432914  1
  Tl  Tl14  1  0.75778613  0.88460468  0.75432914  1
  Tl  Tl15  1  0.75778613  0.11539532  0.24567086  1
  Te  Te16  1  0.23538148  0.63839135  0.08806700  1
  Te  Te17  1  0.23538148  0.36160865  0.91193300  1
  Te  Te18  1  0.76461852  0.63839135  0.91193300  1
  Te  Te19  1  0.76461852  0.36160865  0.08806700  1
  Te  Te20  1  0.76461852  0.86160865  0.41193300  1
  Te  Te21  1  0.76461852  0.13839135  0.58806700  1
  Te  Te22  1  0.23538148  0.86160865  0.58806700  1
  Te  Te23  1  0.23538148  0.13839135  0.41193300  1
  O  O24  1  0.71724309  0.70011646  0.43875604  1
  O  O25  1  0.71724309  0.29988354  0.56124396  1
  O  O26  1  0.28275691  0.70011646  0.56124396  1
  O  O27  1  0.28275691  0.29988354  0.43875604  1
  O  O28  1  0.28275691  0.79988354  0.06124396  1
  O  O29  1  0.28275691  0.20011646  0.93875604  1
  O  O30  1  0.71724309  0.79988354  0.93875604  1
  O  O31  1  0.71724309  0.20011646  0.06124396  1
  O  O32  1  0.68611557  0.84890102  0.30292809  1
  O  O33  1  0.68611557  0.15109898  0.69707191  1
  O  O34  1  0.31388443  0.84890102  0.69707191  1
  O  O35  1  0.31388443  0.15109898  0.30292809  1
  O  O36  1  0.31388443  0.65109898  0.19707191  1
  O  O37  1  0.31388443  0.34890102  0.80292809  1
  O  O38  1  0.68611557  0.65109898  0.80292809  1
  O  O39  1  0.68611557  0.34890102  0.19707191  1
  O  O40  1  0.12070549  0.85493487  0.40277688  1
  O  O41  1  0.12070549  0.14506513  0.59722312  1
  O  O42  1  0.87929451  0.85493487  0.59722312  1
  O  O43  1  0.87929451  0.14506513  0.40277688  1
  O  O44  1  0.87929451  0.64506513  0.09722312  1
  O  O45  1  0.87929451  0.35493487  0.90277688  1
  O  O46  1  0.12070549  0.64506513  0.90277688  1
  O  O47  1  0.12070549  0.35493487  0.09722312  1
