# generated using pymatgen
data_BiP3Pb4O13
_symmetry_space_group_name_H-M   'P 1'
_cell_length_a   9.52866178
_cell_length_b   10.05492835
_cell_length_c   13.23163821
_cell_angle_alpha   90.00000000
_cell_angle_beta   90.00000000
_cell_angle_gamma   90.00000000
_symmetry_Int_Tables_number   1
_chemical_formula_structural   BiP3Pb4O13
_chemical_formula_sum   'Bi4 P12 Pb16 O52'
_cell_volume   1267.72340866
_cell_formula_units_Z   4
loop_
 _symmetry_equiv_pos_site_id
 _symmetry_equiv_pos_as_xyz
  1  'x, y, z'
loop_
 _atom_site_type_symbol
 _atom_site_label
 _atom_site_symmetry_multiplicity
 _atom_site_fract_x
 _atom_site_fract_y
 _atom_site_fract_z
 _atom_site_occupancy
  Bi  Bi0  1  0.71097850  0.25000000  0.22855401  1
  Bi  Bi1  1  0.28902150  0.75000000  0.77144599  1
  Bi  Bi2  1  0.21097850  0.75000000  0.27144599  1
  Bi  Bi3  1  0.78902150  0.25000000  0.72855401  1
  P  P4  1  0.42995421  0.46211433  0.32804486  1
  P  P5  1  0.92995421  0.53788567  0.17195514  1
  P  P6  1  0.07004579  0.46211433  0.82804486  1
  P  P7  1  0.58956229  0.25000000  0.01692640  1
  P  P8  1  0.08956229  0.75000000  0.48307360  1
  P  P9  1  0.92995421  0.96211433  0.17195514  1
  P  P10  1  0.91043771  0.25000000  0.51692640  1
  P  P11  1  0.42995421  0.03788567  0.32804486  1
  P  P12  1  0.41043771  0.75000000  0.98307360  1
  P  P13  1  0.57004579  0.53788567  0.67195514  1
  P  P14  1  0.07004579  0.03788567  0.82804486  1
  P  P15  1  0.57004579  0.96211433  0.67195514  1
  Pb  Pb16  1  0.13734231  0.25000000  0.27462266  1
  Pb  Pb17  1  0.20007173  0.05856873  0.56800623  1
  Pb  Pb18  1  0.29992827  0.44143127  0.06800623  1
  Pb  Pb19  1  0.52909696  0.25000000  0.51412178  1
  Pb  Pb20  1  0.97090304  0.25000000  0.01412178  1
  Pb  Pb21  1  0.79992827  0.94143127  0.43199377  1
  Pb  Pb22  1  0.79992827  0.55856873  0.43199377  1
  Pb  Pb23  1  0.36265769  0.25000000  0.77462266  1
  Pb  Pb24  1  0.70007173  0.55856873  0.93199377  1
  Pb  Pb25  1  0.47090304  0.75000000  0.48587822  1
  Pb  Pb26  1  0.86265769  0.75000000  0.72537734  1
  Pb  Pb27  1  0.63734231  0.75000000  0.22537734  1
  Pb  Pb28  1  0.70007173  0.94143127  0.93199377  1
  Pb  Pb29  1  0.02909696  0.75000000  0.98587822  1
  Pb  Pb30  1  0.29992827  0.05856873  0.06800623  1
  Pb  Pb31  1  0.20007173  0.44143127  0.56800623  1
  O  O32  1  0.88330982  0.58000007  0.06500986  1
  O  O33  1  0.83864007  0.89242003  0.25079980  1
  O  O34  1  0.12804939  0.62924557  0.41443466  1
  O  O35  1  0.57109054  0.75000000  0.00114260  1
  O  O36  1  0.08641225  0.57519913  0.18376728  1
  O  O37  1  0.41358775  0.57519913  0.68376728  1
  O  O38  1  0.41554558  0.61483766  0.31456700  1
  O  O39  1  0.91554558  0.38516234  0.18543300  1
  O  O40  1  0.37195061  0.62924557  0.91443466  1
  O  O41  1  0.87195061  0.12924557  0.58556534  1
  O  O42  1  0.83392233  0.25000000  0.41609382  1
  O  O43  1  0.88330982  0.91999993  0.06500986  1
  O  O44  1  0.33392233  0.75000000  0.08390618  1
  O  O45  1  0.07109054  0.25000000  0.49885740  1
  O  O46  1  0.11669018  0.08000007  0.93499014  1
  O  O47  1  0.16135993  0.39242003  0.74920020  1
  O  O48  1  0.91358775  0.07519913  0.81623272  1
  O  O49  1  0.58641225  0.07519913  0.31623272  1
  O  O50  1  0.32938889  0.25000000  0.60568563  1
  O  O51  1  0.91358775  0.42480087  0.81623272  1
  O  O52  1  0.11669018  0.41999993  0.93499014  1
  O  O53  1  0.17061111  0.25000000  0.10568563  1
  O  O54  1  0.33864007  0.39242003  0.24920020  1
  O  O55  1  0.16135993  0.10757997  0.74920020  1
  O  O56  1  0.37195061  0.87075443  0.91443466  1
  O  O57  1  0.82938889  0.75000000  0.89431437  1
  O  O58  1  0.58445442  0.38516234  0.68543300  1
  O  O59  1  0.08641225  0.92480087  0.18376728  1
  O  O60  1  0.61669018  0.91999993  0.56500986  1
  O  O61  1  0.42890946  0.25000000  0.99885740  1
  O  O62  1  0.38330982  0.41999993  0.43499014  1
  O  O63  1  0.62804939  0.12924557  0.08556534  1
  O  O64  1  0.38330982  0.08000007  0.43499014  1
  O  O65  1  0.92890946  0.75000000  0.50114260  1
  O  O66  1  0.66135993  0.60757997  0.75079980  1
  O  O67  1  0.58445442  0.11483766  0.68543300  1
  O  O68  1  0.66607767  0.25000000  0.91609382  1
  O  O69  1  0.91554558  0.11483766  0.18543300  1
  O  O70  1  0.62804939  0.37075443  0.08556534  1
  O  O71  1  0.08445442  0.61483766  0.81456700  1
  O  O72  1  0.08445442  0.88516234  0.81456700  1
  O  O73  1  0.33864007  0.10757997  0.24920020  1
  O  O74  1  0.61669018  0.58000007  0.56500986  1
  O  O75  1  0.66135993  0.89242003  0.75079980  1
  O  O76  1  0.87195061  0.37075443  0.58556534  1
  O  O77  1  0.67061111  0.75000000  0.39431437  1
  O  O78  1  0.58641225  0.42480087  0.31623272  1
  O  O79  1  0.83864007  0.60757997  0.25079980  1
  O  O80  1  0.16607767  0.75000000  0.58390618  1
  O  O81  1  0.41554558  0.88516234  0.31456700  1
  O  O82  1  0.41358775  0.92480087  0.68376728  1
  O  O83  1  0.12804939  0.87075443  0.41443466  1
