# generated using pymatgen
data_Na5LiMn2O8
_symmetry_space_group_name_H-M   'P 1'
_cell_length_a   10.56349900
_cell_length_b   10.61884800
_cell_length_c   15.21081000
_cell_angle_alpha   90.00000000
_cell_angle_beta   90.00000000
_cell_angle_gamma   90.00000000
_symmetry_Int_Tables_number   1
_chemical_formula_structural   Na5LiMn2O8
_chemical_formula_sum   'Na40 Li8 Mn16 O64'
_cell_volume   1706.22987286
_cell_formula_units_Z   8
loop_
 _symmetry_equiv_pos_site_id
 _symmetry_equiv_pos_as_xyz
  1  'x, y, z'
loop_
 _atom_site_type_symbol
 _atom_site_label
 _atom_site_symmetry_multiplicity
 _atom_site_fract_x
 _atom_site_fract_y
 _atom_site_fract_z
 _atom_site_occupancy
  Na  Na0  1  0.77763400  0.00674600  0.50404000  1
  Na  Na1  1  0.75774500  0.24467200  0.89629200  1
  Na  Na2  1  0.48300100  0.29147200  0.25000000  1
  Na  Na3  1  0.72356900  0.76265000  0.36225500  1
  Na  Na4  1  0.24225500  0.75532800  0.39629200  1
  Na  Na5  1  0.27643100  0.23735000  0.63774500  1
  Na  Na6  1  0.72236600  0.50674600  0.99596000  1
  Na  Na7  1  0.27763400  0.49325400  0.00404000  1
  Na  Na8  1  0.72236600  0.50674600  0.50404000  1
  Na  Na9  1  0.57095200  0.23097100  0.75000000  1
  Na  Na10  1  0.27643100  0.23735000  0.86225500  1
  Na  Na11  1  0.51875100  0.00979000  0.11248400  1
  Na  Na12  1  0.98124900  0.50979000  0.38751600  1
  Na  Na13  1  0.75774500  0.24467200  0.60370800  1
  Na  Na14  1  0.77763400  0.00674600  0.99596000  1
  Na  Na15  1  0.72356900  0.76265000  0.13774500  1
  Na  Na16  1  0.77643100  0.26265000  0.36225500  1
  Na  Na17  1  0.01875100  0.49021000  0.61248400  1
  Na  Na18  1  0.25774500  0.25532800  0.39629200  1
  Na  Na19  1  0.92904800  0.73097100  0.75000000  1
  Na  Na20  1  0.48124900  0.99021000  0.61248400  1
  Na  Na21  1  0.51699900  0.70852800  0.75000000  1
  Na  Na22  1  0.22356900  0.73735000  0.63774500  1
  Na  Na23  1  0.22236600  0.99325400  0.49596000  1
  Na  Na24  1  0.51875100  0.00979000  0.38751600  1
  Na  Na25  1  0.74225500  0.74467200  0.89629200  1
  Na  Na26  1  0.01875100  0.49021000  0.88751600  1
  Na  Na27  1  0.25774500  0.25532800  0.10370800  1
  Na  Na28  1  0.74225500  0.74467200  0.60370800  1
  Na  Na29  1  0.42904800  0.76902900  0.25000000  1
  Na  Na30  1  0.07095200  0.26902900  0.25000000  1
  Na  Na31  1  0.98124900  0.50979000  0.11248400  1
  Na  Na32  1  0.98300100  0.20852800  0.75000000  1
  Na  Na33  1  0.77643100  0.26265000  0.13774500  1
  Na  Na34  1  0.22356900  0.73735000  0.86225500  1
  Na  Na35  1  0.24225500  0.75532800  0.10370800  1
  Na  Na36  1  0.48124900  0.99021000  0.88751600  1
  Na  Na37  1  0.22236600  0.99325400  0.00404000  1
  Na  Na38  1  0.27763400  0.49325400  0.49596000  1
  Na  Na39  1  0.01699900  0.79147200  0.25000000  1
  Li  Li40  1  0.00235800  0.98734800  0.86013400  1
  Li  Li41  1  0.99764200  0.01265200  0.13986600  1
  Li  Li42  1  0.00235800  0.98734800  0.63986600  1
  Li  Li43  1  0.50235800  0.51265200  0.13986600  1
  Li  Li44  1  0.49764200  0.48734800  0.86013400  1
  Li  Li45  1  0.49764200  0.48734800  0.63986600  1
  Li  Li46  1  0.99764200  0.01265200  0.36013400  1
  Li  Li47  1  0.50235800  0.51265200  0.36013400  1
  Mn  Mn48  1  0.49389300  0.74798200  0.49943200  1
  Mn  Mn49  1  0.50610700  0.25201800  0.99943200  1
  Mn  Mn50  1  0.49389300  0.74798200  0.00056800  1
  Mn  Mn51  1  0.25427000  0.02068200  0.25000000  1
  Mn  Mn52  1  0.22876500  0.49282100  0.75000000  1
  Mn  Mn53  1  0.50610700  0.25201800  0.50056800  1
  Mn  Mn54  1  0.00610700  0.24798200  0.00056800  1
  Mn  Mn55  1  0.00610700  0.24798200  0.49943200  1
  Mn  Mn56  1  0.75427000  0.47931800  0.75000000  1
  Mn  Mn57  1  0.27123500  0.99282100  0.75000000  1
  Mn  Mn58  1  0.99389300  0.75201800  0.99943200  1
  Mn  Mn59  1  0.24573000  0.52068200  0.25000000  1
  Mn  Mn60  1  0.74573000  0.97931800  0.75000000  1
  Mn  Mn61  1  0.77123500  0.50717900  0.25000000  1
  Mn  Mn62  1  0.72876500  0.00717900  0.25000000  1
  Mn  Mn63  1  0.99389300  0.75201800  0.50056800  1
  O  O64  1  0.11494600  0.61021000  0.75000000  1
  O  O65  1  0.68328200  0.04731000  0.84247500  1
  O  O66  1  0.61494600  0.88979000  0.25000000  1
  O  O67  1  0.11183700  0.64042400  0.98798600  1
  O  O68  1  0.44963800  0.36341300  0.07171300  1
  O  O69  1  0.94963800  0.13658700  0.57171300  1
  O  O70  1  0.45931500  0.68086300  0.39932800  1
  O  O71  1  0.28856600  0.18034400  0.25000000  1
  O  O72  1  0.61183700  0.85957600  0.48798600  1
  O  O73  1  0.38505400  0.11021000  0.75000000  1
  O  O74  1  0.86087700  0.67645100  0.46410400  1
  O  O75  1  0.81581600  0.98785700  0.15561100  1
  O  O76  1  0.05036200  0.86341300  0.07171300  1
  O  O77  1  0.81671800  0.54731000  0.84247500  1
  O  O78  1  0.18328200  0.45269000  0.15752500  1
  O  O79  1  0.31671800  0.95269000  0.15752500  1
  O  O80  1  0.13912300  0.32354900  0.53589600  1
  O  O81  1  0.34704500  0.84948300  0.75000000  1
  O  O82  1  0.63912300  0.17645100  0.03589600  1
  O  O83  1  0.13912300  0.32354900  0.96410400  1
  O  O84  1  0.81671800  0.54731000  0.65752500  1
  O  O85  1  0.05036200  0.86341300  0.42828700  1
  O  O86  1  0.55036200  0.63658700  0.92828700  1
  O  O87  1  0.31671800  0.95269000  0.34247500  1
  O  O88  1  0.68418400  0.48785700  0.15561100  1
  O  O89  1  0.55036200  0.63658700  0.57171300  1
  O  O90  1  0.84704500  0.65051700  0.25000000  1
  O  O91  1  0.90878500  0.99846400  0.75000000  1
  O  O92  1  0.45931500  0.68086300  0.10067200  1
  O  O93  1  0.04068500  0.18086300  0.39932800  1
  O  O94  1  0.94963800  0.13658700  0.92828700  1
  O  O95  1  0.71143400  0.81965600  0.75000000  1
  O  O96  1  0.11183700  0.64042400  0.51201400  1
  O  O97  1  0.68328200  0.04731000  0.65752500  1
  O  O98  1  0.88816300  0.35957600  0.48798600  1
  O  O99  1  0.38816300  0.14042400  0.51201400  1
  O  O100  1  0.88816300  0.35957600  0.01201400  1
  O  O101  1  0.59121500  0.49846400  0.75000000  1
  O  O102  1  0.95931500  0.81913700  0.60067200  1
  O  O103  1  0.04068500  0.18086300  0.10067200  1
  O  O104  1  0.78856600  0.31965600  0.75000000  1
  O  O105  1  0.18418400  0.01214300  0.84438900  1
  O  O106  1  0.88505400  0.38979000  0.25000000  1
  O  O107  1  0.40878500  0.50153600  0.25000000  1
  O  O108  1  0.36087700  0.82354900  0.96410400  1
  O  O109  1  0.95931500  0.81913700  0.89932800  1
  O  O110  1  0.81581600  0.98785700  0.34438900  1
  O  O111  1  0.65295500  0.15051700  0.25000000  1
  O  O112  1  0.68418400  0.48785700  0.34438900  1
  O  O113  1  0.54068500  0.31913700  0.60067200  1
  O  O114  1  0.63912300  0.17645100  0.46410400  1
  O  O115  1  0.15295500  0.34948300  0.75000000  1
  O  O116  1  0.18328200  0.45269000  0.34247500  1
  O  O117  1  0.36087700  0.82354900  0.53589600  1
  O  O118  1  0.86087700  0.67645100  0.03589600  1
  O  O119  1  0.54068500  0.31913700  0.89932800  1
  O  O120  1  0.44963800  0.36341300  0.42828700  1
  O  O121  1  0.61183700  0.85957600  0.01201400  1
  O  O122  1  0.18418400  0.01214300  0.65561100  1
  O  O123  1  0.21143400  0.68034400  0.25000000  1
  O  O124  1  0.09121500  0.00153600  0.25000000  1
  O  O125  1  0.38816300  0.14042400  0.98798600  1
  O  O126  1  0.31581600  0.51214300  0.84438900  1
  O  O127  1  0.31581600  0.51214300  0.65561100  1
