# generated using pymatgen
data_SbPOF8
_symmetry_space_group_name_H-M   'P 1'
_cell_length_a   16.90407592
_cell_length_b   5.18840024
_cell_length_c   7.46715515
_cell_angle_alpha   82.15448173
_cell_angle_beta   90.00000000
_cell_angle_gamma   90.00000000
_symmetry_Int_Tables_number   1
_chemical_formula_structural   SbPOF8
_chemical_formula_sum   'Sb4 P4 O4 F32'
_cell_volume   648.77754973
_cell_formula_units_Z   4
loop_
 _symmetry_equiv_pos_site_id
 _symmetry_equiv_pos_as_xyz
  1  'x, y, z'
loop_
 _atom_site_type_symbol
 _atom_site_label
 _atom_site_symmetry_multiplicity
 _atom_site_fract_x
 _atom_site_fract_y
 _atom_site_fract_z
 _atom_site_occupancy
  Sb  Sb0  1  0.11978193  0.03129211  0.73947386  1
  Sb  Sb1  1  0.88021807  0.96870789  0.26052614  1
  Sb  Sb2  1  0.38021807  0.03129211  0.23947386  1
  Sb  Sb3  1  0.61978193  0.96870789  0.76052614  1
  P  P4  1  0.13141655  0.61520440  0.14695315  1
  P  P5  1  0.36858345  0.61520440  0.64695315  1
  P  P6  1  0.63141655  0.38479560  0.35304685  1
  P  P7  1  0.86858345  0.38479560  0.85304685  1
  O  O8  1  0.87070430  0.17954417  0.00718087  1
  O  O9  1  0.37070430  0.82045583  0.49281913  1
  O  O10  1  0.62929570  0.17954417  0.50718087  1
  O  O11  1  0.12929570  0.82045583  0.99281913  1
  F  F12  1  0.42429120  0.73289078  0.16479093  1
  F  F13  1  0.16187826  0.30519497  0.85079107  1
  F  F14  1  0.61560987  0.77648869  0.99212185  1
  F  F15  1  0.51831480  0.86908249  0.69126702  1
  F  F16  1  0.77674416  0.08466413  0.29943518  1
  F  F17  1  0.11560987  0.22351131  0.50787815  1
  F  F18  1  0.70551963  0.54662360  0.33916039  1
  F  F19  1  0.27674416  0.91533587  0.20056482  1
  F  F20  1  0.92429120  0.26710922  0.33520907  1
  F  F21  1  0.20551963  0.45337640  0.16083961  1
  F  F22  1  0.93465786  0.57971438  0.85081474  1
  F  F23  1  0.06534214  0.42028562  0.14918526  1
  F  F24  1  0.72325584  0.08466413  0.79943518  1
  F  F25  1  0.22325584  0.91533587  0.70056482  1
  F  F26  1  0.48168520  0.13091751  0.30873298  1
  F  F27  1  0.43465786  0.42028562  0.64918526  1
  F  F28  1  0.29448037  0.45337640  0.66083961  1
  F  F29  1  0.38439013  0.22351131  0.00787815  1
  F  F30  1  0.56534214  0.57971438  0.35081474  1
  F  F31  1  0.07570880  0.73289078  0.66479093  1
  F  F32  1  0.87307866  0.27865379  0.67612569  1
  F  F33  1  0.66187826  0.69480503  0.64920893  1
  F  F34  1  0.88439013  0.77648869  0.49212185  1
  F  F35  1  0.79448037  0.54662360  0.83916039  1
  F  F36  1  0.12692134  0.72134621  0.32387431  1
  F  F37  1  0.57570880  0.26710922  0.83520907  1
  F  F38  1  0.01831480  0.13091751  0.80873298  1
  F  F39  1  0.37307866  0.72134621  0.82387431  1
  F  F40  1  0.33812174  0.30519497  0.35079107  1
  F  F41  1  0.83812174  0.69480503  0.14920893  1
  F  F42  1  0.62692134  0.27865379  0.17612569  1
  F  F43  1  0.98168520  0.86908249  0.19126702  1
