# generated using pymatgen
data_CdI2
_symmetry_space_group_name_H-M   'P 1'
_cell_length_a   4.28354086
_cell_length_b   4.28354160
_cell_length_c   72.10884374
_cell_angle_alpha   90.00000000
_cell_angle_beta   90.00000000
_cell_angle_gamma   119.99999427
_symmetry_Int_Tables_number   1
_chemical_formula_structural   CdI2
_chemical_formula_sum   'Cd10 I20'
_cell_volume   1145.84293575
_cell_formula_units_Z   10
loop_
 _symmetry_equiv_pos_site_id
 _symmetry_equiv_pos_as_xyz
  1  'x, y, z'
loop_
 _atom_site_type_symbol
 _atom_site_label
 _atom_site_symmetry_multiplicity
 _atom_site_fract_x
 _atom_site_fract_y
 _atom_site_fract_z
 _atom_site_occupancy
  Cd  Cd0  1  0.66666700  0.33333300  0.52301926  1
  Cd  Cd1  1  0.66666700  0.33333300  0.32287556  1
  Cd  Cd2  1  0.66666700  0.33333300  0.02684431  1
  Cd  Cd3  1  0.66666700  0.33333300  0.22383915  1
  Cd  Cd4  1  0.66666700  0.33333300  0.62373471  1
  Cd  Cd5  1  0.66666700  0.33333300  0.42306138  1
  Cd  Cd6  1  -0.00000000  -0.00000000  0.72449741  1
  Cd  Cd7  1  -0.00000000  -0.00000000  0.82772180  1
  Cd  Cd8  1  0.66666700  0.33333300  0.12535744  1
  Cd  Cd9  1  0.66666700  0.33333300  0.92903751  1
  I  I10  1  0.00000000  0.00000000  0.10156188  1
  I  I11  1  0.33333300  0.66666700  0.44690862  1
  I  I12  1  0.33333300  0.66666700  0.34678139  1
  I  I13  1  0.00000000  0.00000000  0.29896574  1
  I  I14  1  0.33333300  0.66666700  0.95297382  1
  I  I15  1  0.00000000  0.00000000  0.59990466  1
  I  I16  1  0.66666700  0.33333300  0.70054050  1
  I  I17  1  0.00000000  0.00000000  0.39917391  1
  I  I18  1  0.00000000  0.00000000  0.20000499  1
  I  I19  1  0.66666700  0.33333300  0.80380515  1
  I  I20  1  0.00000000  0.00000000  0.90515692  1
  I  I21  1  0.33333300  0.66666700  0.05068897  1
  I  I22  1  0.00000000  0.00000000  0.00304055  1
  I  I23  1  0.33333300  0.66666700  0.54688151  1
  I  I24  1  0.33333300  0.66666700  0.85159602  1
  I  I25  1  0.33333300  0.66666700  0.24774234  1
  I  I26  1  0.00000000  0.00000000  0.49912365  1
  I  I27  1  0.33333300  0.66666700  0.14916359  1
  I  I28  1  0.33333300  0.66666700  0.64756377  1
  I  I29  1  0.33333300  0.66666700  0.74843249  1
