# generated using pymatgen
data_Tl2CN2
_symmetry_space_group_name_H-M   'P 1'
_cell_length_a   5.32292408
_cell_length_b   6.85371993
_cell_length_c   9.85102816
_cell_angle_alpha   99.24477044
_cell_angle_beta   98.53813257
_cell_angle_gamma   112.29454035
_symmetry_Int_Tables_number   1
_chemical_formula_structural   Tl2CN2
_chemical_formula_sum   'Tl6 C3 N6'
_cell_volume   319.45355049
_cell_formula_units_Z   3
loop_
 _symmetry_equiv_pos_site_id
 _symmetry_equiv_pos_as_xyz
  1  'x, y, z'
loop_
 _atom_site_type_symbol
 _atom_site_label
 _atom_site_symmetry_multiplicity
 _atom_site_fract_x
 _atom_site_fract_y
 _atom_site_fract_z
 _atom_site_occupancy
  Tl  Tl0  1  0.82276442  0.19203336  0.95541920  1
  Tl  Tl1  1  0.88652517  0.07615922  0.32317144  1
  Tl  Tl2  1  0.11347483  0.92384078  0.67682856  1
  Tl  Tl3  1  0.59509863  0.46855049  0.31646048  1
  Tl  Tl4  1  0.17723558  0.80796664  0.04458080  1
  Tl  Tl5  1  0.40490137  0.53144951  0.68353952  1
  C  C6  1  0.76057853  0.22086795  0.64462462  1
  C  C7  1  0.23942147  0.77913205  0.35537538  1
  C  C8  1  0.50000000  0.50000000  0.00000000  1
  N  N9  1  0.58917178  0.24313808  0.70988675  1
  N  N10  1  0.71867858  0.51024029  0.07049560  1
  N  N11  1  0.41082822  0.75686192  0.29011325  1
  N  N12  1  0.28132142  0.48975971  0.92950440  1
  N  N13  1  0.94196660  0.19877071  0.58700850  1
  N  N14  1  0.05803340  0.80122929  0.41299150  1
