# generated using pymatgen
data_KNO3
_symmetry_space_group_name_H-M   'P 1'
_cell_length_a   5.41092660
_cell_length_b   6.18542073
_cell_length_c   9.15028024
_cell_angle_alpha   90.00000000
_cell_angle_beta   90.00000000
_cell_angle_gamma   90.00000000
_symmetry_Int_Tables_number   1
_chemical_formula_structural   KNO3
_chemical_formula_sum   'K4 N4 O12'
_cell_volume   306.24942599
_cell_formula_units_Z   4
loop_
 _symmetry_equiv_pos_site_id
 _symmetry_equiv_pos_as_xyz
  1  'x, y, z'
loop_
 _atom_site_type_symbol
 _atom_site_label
 _atom_site_symmetry_multiplicity
 _atom_site_fract_x
 _atom_site_fract_y
 _atom_site_fract_z
 _atom_site_occupancy
  K  K0  1  0.25000000  0.75417199  0.08367742  1
  K  K1  1  0.75000000  0.24582801  0.91632258  1
  K  K2  1  0.25000000  0.25417199  0.41632258  1
  K  K3  1  0.75000000  0.74582801  0.58367742  1
  N  N4  1  0.25000000  0.91151374  0.74561936  1
  N  N5  1  0.75000000  0.08848626  0.25438064  1
  N  N6  1  0.25000000  0.41151374  0.75438064  1
  N  N7  1  0.75000000  0.58848626  0.24561936  1
  O  O8  1  0.45193443  0.41164373  0.68537944  1
  O  O9  1  0.95193443  0.58835627  0.31462056  1
  O  O10  1  0.04806557  0.91164373  0.81462056  1
  O  O11  1  0.54806557  0.08835627  0.18537944  1
  O  O12  1  0.75000000  0.59277437  0.10783067  1
  O  O13  1  0.25000000  0.40722563  0.89216933  1
  O  O14  1  0.75000000  0.09277437  0.39216933  1
  O  O15  1  0.25000000  0.90722563  0.60783067  1
  O  O16  1  0.54806557  0.58835627  0.31462056  1
  O  O17  1  0.04806557  0.41164373  0.68537944  1
  O  O18  1  0.95193443  0.08835627  0.18537944  1
  O  O19  1  0.45193443  0.91164373  0.81462056  1
