# generated using pymatgen
data_Bi2(PSe3)3
_symmetry_space_group_name_H-M   'P 1'
_cell_length_a   6.86938779
_cell_length_b   12.38147219
_cell_length_c   18.12299069
_cell_angle_alpha   94.05703655
_cell_angle_beta   90.29866427
_cell_angle_gamma   91.59093672
_symmetry_Int_Tables_number   1
_chemical_formula_structural   Bi2(PSe3)3
_chemical_formula_sum   'Bi8 P12 Se36'
_cell_volume   1536.92202926
_cell_formula_units_Z   4
loop_
 _symmetry_equiv_pos_site_id
 _symmetry_equiv_pos_as_xyz
  1  'x, y, z'
loop_
 _atom_site_type_symbol
 _atom_site_label
 _atom_site_symmetry_multiplicity
 _atom_site_fract_x
 _atom_site_fract_y
 _atom_site_fract_z
 _atom_site_occupancy
  Bi  Bi0  1  0.52632039  0.40023465  0.38284185  1
  Bi  Bi1  1  0.06682671  0.46598001  0.81128403  1
  Bi  Bi2  1  0.43315306  0.97721289  0.31323940  1
  Bi  Bi3  1  0.98169206  0.90493327  0.88658275  1
  Bi  Bi4  1  0.01830794  0.09506673  0.11341725  1
  Bi  Bi5  1  0.56684694  0.02278711  0.68676060  1
  Bi  Bi6  1  0.93317329  0.53401999  0.18871597  1
  Bi  Bi7  1  0.47367961  0.59976535  0.61715815  1
  P  P8  1  0.56553672  0.92131258  0.51215260  1
  P  P9  1  0.54410112  0.25304448  0.18168864  1
  P  P10  1  0.05900347  0.48959392  0.44286269  1
  P  P11  1  0.04729000  0.16395962  0.77238070  1
  P  P12  1  0.43014854  0.41201271  0.15337938  1
  P  P13  1  0.93008306  0.17558551  0.88696986  1
  P  P14  1  0.95271000  0.83604038  0.22761930  1
  P  P15  1  0.45589888  0.74695552  0.81831136  1
  P  P16  1  0.43446328  0.07868742  0.48784740  1
  P  P17  1  0.56985146  0.58798729  0.84662062  1
  P  P18  1  0.94099653  0.51040608  0.55713731  1
  P  P19  1  0.06991694  0.82441449  0.11303014  1
  Se  Se20  1  0.16104283  0.38115667  0.08881161  1
  Se  Se21  1  0.29644152  0.18799859  0.24212702  1
  Se  Se22  1  0.67811190  0.06289407  0.88767071  1
  Se  Se23  1  0.30444942  0.27045574  0.77672093  1
  Se  Se24  1  0.17809489  0.78220781  0.29892472  1
  Se  Se25  1  0.69555058  0.72954426  0.22327907  1
  Se  Se26  1  0.64619993  0.14954711  0.41398000  1
  Se  Se27  1  0.32986555  0.59318699  0.44590650  1
  Se  Se28  1  0.13686560  0.65488753  0.08462146  1
  Se  Se29  1  0.37175420  0.16538960  0.59388375  1
  Se  Se30  1  0.64536936  0.48733376  0.08249172  1
  Se  Se31  1  0.12044868  0.32071827  0.41808463  1
  Se  Se32  1  0.20753887  0.70173355  0.74501838  1
  Se  Se33  1  0.35463064  0.51266624  0.91750828  1
  Se  Se34  1  0.79246113  0.29826645  0.25498162  1
  Se  Se35  1  0.86313440  0.34511247  0.91537854  1
  Se  Se36  1  0.88403821  0.00981347  0.24955995  1
  Se  Se37  1  0.84185930  0.56354633  0.37435675  1
  Se  Se38  1  0.70355848  0.81200141  0.75787298  1
  Se  Se39  1  0.67013445  0.40681301  0.55409350  1
  Se  Se40  1  0.11596179  0.99018653  0.75044105  1
  Se  Se41  1  0.35380007  0.85045289  0.58602000  1
  Se  Se42  1  0.32188810  0.93710593  0.11232929  1
  Se  Se43  1  0.38845685  0.83280910  0.92335666  1
  Se  Se44  1  0.87955132  0.67928173  0.58191537  1
  Se  Se45  1  0.83378418  0.89426701  0.04848160  1
  Se  Se46  1  0.17000703  0.03162280  0.42354062  1
  Se  Se47  1  0.37879170  0.50992805  0.25855696  1
  Se  Se48  1  0.62120830  0.49007195  0.74144304  1
  Se  Se49  1  0.83895717  0.61884333  0.91118839  1
  Se  Se50  1  0.15814070  0.43645367  0.62564325  1
  Se  Se51  1  0.82999297  0.96837720  0.57645938  1
  Se  Se52  1  0.62824580  0.83461040  0.40611625  1
  Se  Se53  1  0.61154315  0.16719090  0.07664334  1
  Se  Se54  1  0.16621582  0.10573299  0.95151840  1
  Se  Se55  1  0.82190511  0.21779219  0.70107528  1
