# generated using pymatgen
data_InBr2
_symmetry_space_group_name_H-M   'P 1'
_cell_length_a   7.99673514
_cell_length_b   10.39436981
_cell_length_c   10.51214458
_cell_angle_alpha   90.00000000
_cell_angle_beta   90.00000000
_cell_angle_gamma   90.00000000
_symmetry_Int_Tables_number   1
_chemical_formula_structural   InBr2
_chemical_formula_sum   'In8 Br16'
_cell_volume   873.78020424
_cell_formula_units_Z   8
loop_
 _symmetry_equiv_pos_site_id
 _symmetry_equiv_pos_as_xyz
  1  'x, y, z'
loop_
 _atom_site_type_symbol
 _atom_site_label
 _atom_site_symmetry_multiplicity
 _atom_site_fract_x
 _atom_site_fract_y
 _atom_site_fract_z
 _atom_site_occupancy
  In  In0  1  0.75000000  0.00000000  0.81851499  1
  In  In1  1  0.32628456  0.75000000  0.75000000  1
  In  In2  1  0.25000000  0.00000000  0.18148501  1
  In  In3  1  0.67371544  0.25000000  0.25000000  1
  In  In4  1  0.17371544  0.25000000  0.75000000  1
  In  In5  1  0.25000000  0.50000000  0.31851499  1
  In  In6  1  0.82628456  0.75000000  0.25000000  1
  In  In7  1  0.75000000  0.50000000  0.68148501  1
  Br  Br8  1  0.49733228  0.45364864  0.81929088  1
  Br  Br9  1  0.50266772  0.54635136  0.18070912  1
  Br  Br10  1  -0.00266772  0.04635136  0.31929088  1
  Br  Br11  1  0.84339943  0.31089941  0.54762544  1
  Br  Br12  1  0.50266772  0.95364864  0.31929088  1
  Br  Br13  1  0.34339943  0.31089941  0.45237456  1
  Br  Br14  1  0.84339943  0.18910059  0.95237456  1
  Br  Br15  1  0.34339943  0.18910059  0.04762544  1
  Br  Br16  1  0.65660057  0.81089941  0.95237456  1
  Br  Br17  1  -0.00266772  0.45364864  0.18070912  1
  Br  Br18  1  0.15660057  0.81089941  0.04762544  1
  Br  Br19  1  0.49733228  0.04635136  0.68070912  1
  Br  Br20  1  0.65660057  0.68910059  0.54762544  1
  Br  Br21  1  0.00266772  0.54635136  0.81929088  1
  Br  Br22  1  0.15660057  0.68910059  0.45237456  1
  Br  Br23  1  0.00266772  0.95364864  0.68070912  1
