# generated using pymatgen
data_Na3NiF6
_symmetry_space_group_name_H-M   'P 1'
_cell_length_a   5.70200252
_cell_length_b   5.36002028
_cell_length_c   9.26377158
_cell_angle_alpha   55.84770944
_cell_angle_beta   90.00000000
_cell_angle_gamma   90.00000000
_symmetry_Int_Tables_number   1
_chemical_formula_structural   Na3NiF6
_chemical_formula_sum   'Na6 Ni2 F12'
_cell_volume   234.30148481
_cell_formula_units_Z   2
loop_
 _symmetry_equiv_pos_site_id
 _symmetry_equiv_pos_as_xyz
  1  'x, y, z'
loop_
 _atom_site_type_symbol
 _atom_site_label
 _atom_site_symmetry_multiplicity
 _atom_site_fract_x
 _atom_site_fract_y
 _atom_site_fract_z
 _atom_site_occupancy
  Na  Na0  1  0.56372337  0.72037341  0.25605651  1
  Na  Na1  1  0.06372337  0.27962659  0.24394349  1
  Na  Na2  1  0.43627663  0.27962659  0.74394349  1
  Na  Na3  1  0.93627663  0.72037341  0.75605651  1
  Na  Na4  1  0.50000000  0.50000000  0.00000000  1
  Na  Na5  1  -0.00000000  0.50000000  0.50000000  1
  Ni  Ni6  1  0.50000000  -0.00000000  0.50000000  1
  Ni  Ni7  1  -0.00000000  -0.00000000  0.00000000  1
  F  F8  1  0.21674754  0.74172528  0.57895837  1
  F  F9  1  0.71674754  0.25827472  0.92104163  1
  F  F10  1  0.78325246  0.25827472  0.42104163  1
  F  F11  1  0.28325246  0.74172528  0.07895837  1
  F  F12  1  0.32629508  0.32065033  0.45601281  1
  F  F13  1  0.82629508  0.67934967  0.04398719  1
  F  F14  1  0.67370492  0.67934967  0.54398719  1
  F  F15  1  0.17370492  0.32065033  0.95601281  1
  F  F16  1  0.05571521  0.10321766  0.77886385  1
  F  F17  1  0.55571521  0.89678234  0.72113615  1
  F  F18  1  0.94428479  0.89678234  0.22113615  1
  F  F19  1  0.44428479  0.10321766  0.27886385  1
