# generated using pymatgen
data_Tl4SnS4
_symmetry_space_group_name_H-M   'P 1'
_cell_length_a   8.33416466
_cell_length_b   8.41228767
_cell_length_c   15.67865845
_cell_angle_alpha   75.64926541
_cell_angle_beta   90.00000000
_cell_angle_gamma   90.00000000
_symmetry_Int_Tables_number   1
_chemical_formula_structural   Tl4SnS4
_chemical_formula_sum   'Tl16 Sn4 S16'
_cell_volume   1064.92179151
_cell_formula_units_Z   4
loop_
 _symmetry_equiv_pos_site_id
 _symmetry_equiv_pos_as_xyz
  1  'x, y, z'
loop_
 _atom_site_type_symbol
 _atom_site_label
 _atom_site_symmetry_multiplicity
 _atom_site_fract_x
 _atom_site_fract_y
 _atom_site_fract_z
 _atom_site_occupancy
  Tl  Tl0  1  0.20926052  0.10076080  0.36094521  1
  Tl  Tl1  1  0.70926052  0.89923920  0.13905479  1
  Tl  Tl2  1  0.79073948  0.89923920  0.63905479  1
  Tl  Tl3  1  0.29073948  0.10076080  0.86094521  1
  Tl  Tl4  1  0.82528457  0.89188350  0.38820741  1
  Tl  Tl5  1  0.32528457  0.10811650  0.11179259  1
  Tl  Tl6  1  0.17471543  0.10811650  0.61179259  1
  Tl  Tl7  1  0.67471543  0.89188350  0.88820741  1
  Tl  Tl8  1  0.39936147  0.69212668  0.37301359  1
  Tl  Tl9  1  0.89936147  0.30787332  0.12698641  1
  Tl  Tl10  1  0.60063853  0.30787332  0.62698641  1
  Tl  Tl11  1  0.10063853  0.69212668  0.87301359  1
  Tl  Tl12  1  0.01326711  0.52609080  0.37220542  1
  Tl  Tl13  1  0.51326711  0.47390920  0.12779458  1
  Tl  Tl14  1  0.98673289  0.47390920  0.62779458  1
  Tl  Tl15  1  0.48673289  0.52609080  0.87220542  1
  Sn  Sn16  1  0.88313084  0.28902795  0.87780858  1
  Sn  Sn17  1  0.38313084  0.71097205  0.62219142  1
  Sn  Sn18  1  0.11686916  0.71097205  0.12219142  1
  Sn  Sn19  1  0.61686916  0.28902795  0.37780858  1
  S  S20  1  0.17950401  0.44333462  0.21485976  1
  S  S21  1  0.67950401  0.55666538  0.28514024  1
  S  S22  1  0.82049599  0.55666538  0.78514024  1
  S  S23  1  0.32049599  0.44333462  0.71485976  1
  S  S24  1  0.64920625  0.19517112  0.96464957  1
  S  S25  1  0.14920625  0.80482888  0.53535043  1
  S  S26  1  0.35079375  0.80482888  0.03535043  1
  S  S27  1  0.85079375  0.19517112  0.46464957  1
  S  S28  1  0.55596337  0.09777682  0.29121838  1
  S  S29  1  0.05596337  0.90222318  0.20878162  1
  S  S30  1  0.44403663  0.90222318  0.70878162  1
  S  S31  1  0.94403663  0.09777682  0.79121838  1
  S  S32  1  0.61497340  0.68309417  0.53491259  1
  S  S33  1  0.11497340  0.31690583  0.96508741  1
  S  S34  1  0.38502660  0.31690583  0.46508741  1
  S  S35  1  0.88502660  0.68309417  0.03491259  1
