# generated using pymatgen
data_Rb4Hf3S14
_symmetry_space_group_name_H-M   'P 1'
_cell_length_a   11.68521516
_cell_length_b   11.68521516
_cell_length_c   13.61982535
_cell_angle_alpha   69.26119854
_cell_angle_beta   69.26119854
_cell_angle_gamma   41.54071207
_symmetry_Int_Tables_number   1
_chemical_formula_structural   Rb4Hf3S14
_chemical_formula_sum   'Rb8 Hf6 S28'
_cell_volume   1141.40427531
_cell_formula_units_Z   2
loop_
 _symmetry_equiv_pos_site_id
 _symmetry_equiv_pos_as_xyz
  1  'x, y, z'
loop_
 _atom_site_type_symbol
 _atom_site_label
 _atom_site_symmetry_multiplicity
 _atom_site_fract_x
 _atom_site_fract_y
 _atom_site_fract_z
 _atom_site_occupancy
  Rb  Rb0  1  0.01955803  0.38441276  0.89142476  1
  Rb  Rb1  1  0.61558724  0.98044197  0.60857524  1
  Rb  Rb2  1  0.98044197  0.61558724  0.10857524  1
  Rb  Rb3  1  0.38441276  0.01955803  0.39142476  1
  Rb  Rb4  1  0.19565666  0.67227392  0.64401263  1
  Rb  Rb5  1  0.32772608  0.80434334  0.85598737  1
  Rb  Rb6  1  0.80434334  0.32772608  0.35598737  1
  Rb  Rb7  1  0.67227392  0.19565666  0.14401263  1
  Hf  Hf8  1  0.92027344  0.41629680  0.58850704  1
  Hf  Hf9  1  0.58370320  0.07972656  0.91149296  1
  Hf  Hf10  1  0.07972656  0.58370320  0.41149296  1
  Hf  Hf11  1  0.41629680  0.92027344  0.08850704  1
  Hf  Hf12  1  0.76606812  0.23393188  0.75000000  1
  Hf  Hf13  1  0.23393188  0.76606812  0.25000000  1
  S  S14  1  0.88789847  0.19331549  0.89537234  1
  S  S15  1  0.80668451  0.11210153  0.60462766  1
  S  S16  1  0.11210153  0.80668451  0.10462766  1
  S  S17  1  0.19331549  0.88789847  0.39537234  1
  S  S18  1  0.65067959  0.48698444  0.58416528  1
  S  S19  1  0.51301556  0.34932041  0.91583472  1
  S  S20  1  0.34932041  0.51301556  0.41583472  1
  S  S21  1  0.48698444  0.65067959  0.08416528  1
  S  S22  1  0.07452222  0.09714304  0.63203961  1
  S  S23  1  0.90285696  0.92547778  0.86796039  1
  S  S24  1  0.92547778  0.90285696  0.36796039  1
  S  S25  1  0.09714304  0.07452222  0.13203961  1
  S  S26  1  0.76145572  0.43073342  0.79532902  1
  S  S27  1  0.56926658  0.23854428  0.70467098  1
  S  S28  1  0.23854428  0.56926658  0.20467098  1
  S  S29  1  0.43073342  0.76145572  0.29532902  1
  S  S30  1  0.99109921  0.56849394  0.60222495  1
  S  S31  1  0.43150606  0.00890079  0.89777505  1
  S  S32  1  0.00890079  0.43150606  0.39777505  1
  S  S33  1  0.56849394  0.99109921  0.10222495  1
  S  S34  1  0.85405766  0.80661199  0.83213517  1
  S  S35  1  0.19338801  0.14594234  0.66786483  1
  S  S36  1  0.14594234  0.19338801  0.16786483  1
  S  S37  1  0.80661199  0.85405766  0.33213517  1
  S  S38  1  0.30577494  0.40745557  0.89254263  1
  S  S39  1  0.59254443  0.69422506  0.60745737  1
  S  S40  1  0.69422506  0.59254443  0.10745737  1
  S  S41  1  0.40745557  0.30577494  0.39254263  1
