# generated using pymatgen
data_CdI2
_symmetry_space_group_name_H-M   'P 1'
_cell_length_a   4.28674767
_cell_length_b   4.28674881
_cell_length_c   35.91525574
_cell_angle_alpha   90.00000000
_cell_angle_beta   90.00000000
_cell_angle_gamma   119.99999929
_symmetry_Int_Tables_number   1
_chemical_formula_structural   CdI2
_chemical_formula_sum   'Cd5 I10'
_cell_volume   571.56490479
_cell_formula_units_Z   5
loop_
 _symmetry_equiv_pos_site_id
 _symmetry_equiv_pos_as_xyz
  1  'x, y, z'
loop_
 _atom_site_type_symbol
 _atom_site_label
 _atom_site_symmetry_multiplicity
 _atom_site_fract_x
 _atom_site_fract_y
 _atom_site_fract_z
 _atom_site_occupancy
  Cd  Cd0  1  0.66666700  0.33333300  0.45036398  1
  Cd  Cd1  1  -0.00000000  -0.00000000  0.64993055  1
  Cd  Cd2  1  0.66666700  0.33333300  0.04998092  1
  Cd  Cd3  1  -0.00000000  -0.00000000  0.84967601  1
  Cd  Cd4  1  -0.00000000  -0.00000000  0.24994129  1
  I  I5  1  0.66666700  0.33333300  0.20213408  1
  I  I6  1  0.33333300  0.66666700  0.29785432  1
  I  I7  1  0.66666700  0.33333300  0.80167716  1
  I  I8  1  0.33333300  0.66666700  0.69785883  1
  I  I9  1  0.33333300  0.66666700  0.09785688  1
  I  I10  1  0.66666700  0.33333300  0.60212802  1
  I  I11  1  -0.00000000  0.00000000  0.00213436  1
  I  I12  1  0.33333300  0.66666700  0.89776274  1
  I  I13  1  -0.00000000  0.00000000  0.40238130  1
  I  I14  1  0.33333300  0.66666700  0.49832156  1
