# generated using pymatgen
data_BiBPbO4
_symmetry_space_group_name_H-M   'P 1'
_cell_length_a   7.50228763
_cell_length_b   7.51547626
_cell_length_c   10.47591691
_cell_angle_alpha   46.75566896
_cell_angle_beta   90.00000000
_cell_angle_gamma   90.00000000
_symmetry_Int_Tables_number   1
_chemical_formula_structural   BiBPbO4
_chemical_formula_sum   'Bi4 B4 Pb4 O16'
_cell_volume   430.26429607
_cell_formula_units_Z   4
loop_
 _symmetry_equiv_pos_site_id
 _symmetry_equiv_pos_as_xyz
  1  'x, y, z'
loop_
 _atom_site_type_symbol
 _atom_site_label
 _atom_site_symmetry_multiplicity
 _atom_site_fract_x
 _atom_site_fract_y
 _atom_site_fract_z
 _atom_site_occupancy
  Bi  Bi0  1  0.99995195  0.81991590  0.34182227  1
  Bi  Bi1  1  0.50004805  0.81991590  0.84182227  1
  Bi  Bi2  1  0.00004805  0.18008410  0.65817773  1
  Bi  Bi3  1  0.49995195  0.18008410  0.15817773  1
  B  B4  1  0.24381258  0.00038842  0.01159305  1
  B  B5  1  0.75618742  0.99961158  0.98840695  1
  B  B6  1  0.25618742  0.00038842  0.51159305  1
  B  B7  1  0.74381258  0.99961158  0.48840695  1
  Pb  Pb8  1  0.89264924  0.49985265  0.81831375  1
  Pb  Pb9  1  0.60735076  0.49985265  0.31831375  1
  Pb  Pb10  1  0.39264924  0.50014735  0.68168625  1
  Pb  Pb11  1  0.10735076  0.50014735  0.18168625  1
  O  O12  1  0.89784018  0.50132880  0.39555553  1
  O  O13  1  0.79063018  0.78722704  0.52930193  1
  O  O14  1  0.39784018  0.49867120  0.10444447  1
  O  O15  1  0.70936982  0.78722704  0.02930193  1
  O  O16  1  0.70406679  0.20869207  0.31600192  1
  O  O17  1  0.26224300  0.99243376  0.38509390  1
  O  O18  1  0.76224300  0.00756624  0.11490610  1
  O  O19  1  0.10215982  0.49867120  0.60444447  1
  O  O20  1  0.29063018  0.21277296  0.97069807  1
  O  O21  1  0.20936982  0.21277296  0.47069807  1
  O  O22  1  0.23775700  0.99243376  0.88509390  1
  O  O23  1  0.20406679  0.79130793  0.18399808  1
  O  O24  1  0.29593321  0.79130793  0.68399808  1
  O  O25  1  0.73775700  0.00756624  0.61490610  1
  O  O26  1  0.79593321  0.20869207  0.81600192  1
  O  O27  1  0.60215982  0.50132880  0.89555553  1
