# generated using pymatgen
data_SmSI
_symmetry_space_group_name_H-M   'P 1'
_cell_length_a   11.50049303
_cell_length_b   11.50049303
_cell_length_c   11.50049331
_cell_angle_alpha   22.96826094
_cell_angle_beta   22.96826094
_cell_angle_gamma   22.96825805
_symmetry_Int_Tables_number   1
_chemical_formula_structural   SmSI
_chemical_formula_sum   'Sm2 S2 I2'
_cell_volume   203.27130365
_cell_formula_units_Z   2
loop_
 _symmetry_equiv_pos_site_id
 _symmetry_equiv_pos_as_xyz
  1  'x, y, z'
loop_
 _atom_site_type_symbol
 _atom_site_label
 _atom_site_symmetry_multiplicity
 _atom_site_fract_x
 _atom_site_fract_y
 _atom_site_fract_z
 _atom_site_occupancy
  Sm  Sm0  1  0.38669006  0.38669006  0.38669006  1
  Sm  Sm1  1  0.61330994  0.61330994  0.61330994  1
  S  S2  1  0.30244141  0.30244141  0.30244141  1
  S  S3  1  0.69755859  0.69755859  0.69755859  1
  I  I4  1  0.11312424  0.11312424  0.11312424  1
  I  I5  1  0.88687576  0.88687576  0.88687576  1
