# generated using pymatgen
data_CrO3
_symmetry_space_group_name_H-M   'P 1'
_cell_length_a   4.71687371
_cell_length_b   4.88108005
_cell_length_c   5.70504865
_cell_angle_alpha   90.00000000
_cell_angle_beta   90.00000000
_cell_angle_gamma   118.79641142
_symmetry_Int_Tables_number   1
_chemical_formula_structural   CrO3
_chemical_formula_sum   'Cr2 O6'
_cell_volume   115.10670089
_cell_formula_units_Z   2
loop_
 _symmetry_equiv_pos_site_id
 _symmetry_equiv_pos_as_xyz
  1  'x, y, z'
loop_
 _atom_site_type_symbol
 _atom_site_label
 _atom_site_symmetry_multiplicity
 _atom_site_fract_x
 _atom_site_fract_y
 _atom_site_fract_z
 _atom_site_occupancy
  Cr  Cr0  1  0.59026076  0.19721755  0.25000000  1
  Cr  Cr1  1  0.39335096  0.80294690  0.75000000  1
  O  O2  1  0.71597870  0.78197229  0.75000000  1
  O  O3  1  0.09763957  0.46047082  0.75000000  1
  O  O4  1  0.63689256  0.54006001  0.25000000  1
  O  O5  1  0.93320636  0.21688460  0.25000000  1
  O  O6  1  0.37533504  0.00022392  0.00000227  1
  O  O7  1  0.37533504  0.00022392  0.49999773  1
