# generated using pymatgen
data_Hg3AsO4
_symmetry_space_group_name_H-M   'P 1'
_cell_length_a   8.72415733
_cell_length_b   10.24120880
_cell_length_c   13.60993810
_cell_angle_alpha   79.09166674
_cell_angle_beta   90.00000000
_cell_angle_gamma   90.00000000
_symmetry_Int_Tables_number   1
_chemical_formula_structural   Hg3AsO4
_chemical_formula_sum   'Hg24 As8 O32'
_cell_volume   1194.02087378
_cell_formula_units_Z   8
loop_
 _symmetry_equiv_pos_site_id
 _symmetry_equiv_pos_as_xyz
  1  'x, y, z'
loop_
 _atom_site_type_symbol
 _atom_site_label
 _atom_site_symmetry_multiplicity
 _atom_site_fract_x
 _atom_site_fract_y
 _atom_site_fract_z
 _atom_site_occupancy
  Hg  Hg0  1  0.55774618  0.51464258  0.35981357  1
  Hg  Hg1  1  0.05774618  0.48535742  0.14018643  1
  Hg  Hg2  1  0.94225382  0.51464258  0.85981357  1
  Hg  Hg3  1  0.58915351  0.73019276  0.83487132  1
  Hg  Hg4  1  0.25504307  0.94586852  0.96004068  1
  Hg  Hg5  1  0.75504307  0.05413148  0.53995932  1
  Hg  Hg6  1  0.08915351  0.26980724  0.66512868  1
  Hg  Hg7  1  0.93322008  0.90947141  0.66574612  1
  Hg  Hg8  1  0.24495693  0.94586852  0.46004068  1
  Hg  Hg9  1  0.61465756  0.19192828  0.30016177  1
  Hg  Hg10  1  0.91084649  0.73019276  0.33487132  1
  Hg  Hg11  1  0.43322008  0.09052859  0.83425388  1
  Hg  Hg12  1  0.11465756  0.80807172  0.19983823  1
  Hg  Hg13  1  0.27255780  0.49117871  0.40146451  1
  Hg  Hg14  1  0.44225382  0.48535742  0.64018643  1
  Hg  Hg15  1  0.74495693  0.05413148  0.03995932  1
  Hg  Hg16  1  0.77255780  0.50882129  0.09853549  1
  Hg  Hg17  1  0.72744220  0.50882129  0.59853549  1
  Hg  Hg18  1  0.38534244  0.80807172  0.69983823  1
  Hg  Hg19  1  0.06677992  0.09052859  0.33425388  1
  Hg  Hg20  1  0.56677992  0.90947141  0.16574612  1
  Hg  Hg21  1  0.88534244  0.19192828  0.80016177  1
  Hg  Hg22  1  0.22744220  0.49117871  0.90146451  1
  Hg  Hg23  1  0.41084649  0.26980724  0.16512868  1
  As  As24  1  0.09535458  0.63312090  0.59633549  1
  As  As25  1  0.91763336  0.83689047  0.90764908  1
  As  As26  1  0.40464542  0.63312090  0.09633549  1
  As  As27  1  0.08236664  0.16310953  0.09235092  1
  As  As28  1  0.59535458  0.36687910  0.90366451  1
  As  As29  1  0.41763336  0.16310953  0.59235092  1
  As  As30  1  0.58236664  0.83689047  0.40764908  1
  As  As31  1  0.90464542  0.36687910  0.40366451  1
  O  O32  1  0.30092456  0.50723819  0.16710912  1
  O  O33  1  0.09630712  0.62563706  0.47304756  1
  O  O34  1  0.58160711  0.62674703  0.14882928  1
  O  O35  1  0.96504260  0.16545282  0.99251120  1
  O  O36  1  0.40369288  0.62563706  0.97304756  1
  O  O37  1  0.03152326  0.81908430  0.80867833  1
  O  O38  1  0.08160711  0.37325297  0.35117072  1
  O  O39  1  0.80620186  0.97518981  0.87950905  1
  O  O40  1  0.80092456  0.49276181  0.33289088  1
  O  O41  1  0.16958950  0.78405012  0.61089134  1
  O  O42  1  0.59630712  0.37436294  0.02695244  1
  O  O43  1  0.70796319  0.70479294  0.43273567  1
  O  O44  1  0.69907544  0.49276181  0.83289088  1
  O  O45  1  0.53495740  0.16545282  0.49251120  1
  O  O46  1  0.90369288  0.37436294  0.52695244  1
  O  O47  1  0.30620186  0.02481019  0.62049095  1
  O  O48  1  0.41839289  0.37325297  0.85117072  1
  O  O49  1  0.66958950  0.21594988  0.88910866  1
  O  O50  1  0.20796319  0.29520706  0.06726433  1
  O  O51  1  0.46847674  0.81908430  0.30867833  1
  O  O52  1  0.79203681  0.70479294  0.93273567  1
  O  O53  1  0.69379814  0.97518981  0.37950905  1
  O  O54  1  0.19907544  0.50723819  0.66710912  1
  O  O55  1  0.03495740  0.83454718  0.00748880  1
  O  O56  1  0.29203681  0.29520706  0.56726433  1
  O  O57  1  0.91839289  0.62674703  0.64882928  1
  O  O58  1  0.83041050  0.21594988  0.38910866  1
  O  O59  1  0.53152326  0.18091570  0.69132167  1
  O  O60  1  0.46504260  0.83454718  0.50748880  1
  O  O61  1  0.33041050  0.78405012  0.11089134  1
  O  O62  1  0.19379814  0.02481019  0.12049095  1
  O  O63  1  0.96847674  0.18091570  0.19132167  1
