# generated using pymatgen
data_Na2Si2O5
_symmetry_space_group_name_H-M   'P 1'
_cell_length_a   11.95131475
_cell_length_b   4.81801101
_cell_length_c   9.62296896
_cell_angle_alpha   60.57649625
_cell_angle_beta   90.00000000
_cell_angle_gamma   90.00000000
_symmetry_Int_Tables_number   1
_chemical_formula_structural   Na2Si2O5
_chemical_formula_sum   'Na8 Si8 O20'
_cell_volume   482.63284621
_cell_formula_units_Z   4
loop_
 _symmetry_equiv_pos_site_id
 _symmetry_equiv_pos_as_xyz
  1  'x, y, z'
loop_
 _atom_site_type_symbol
 _atom_site_label
 _atom_site_symmetry_multiplicity
 _atom_site_fract_x
 _atom_site_fract_y
 _atom_site_fract_z
 _atom_site_occupancy
  Na  Na0  1  0.99646850  0.61075704  0.63044303  1
  Na  Na1  1  0.03652433  0.88832187  0.88042691  1
  Na  Na2  1  0.50353150  0.61075704  0.13044303  1
  Na  Na3  1  0.49646850  0.38924296  0.86955697  1
  Na  Na4  1  0.46347567  0.88832187  0.38042691  1
  Na  Na5  1  0.53652433  0.11167813  0.61957309  1
  Na  Na6  1  0.00353150  0.38924296  0.36955697  1
  Na  Na7  1  0.96347567  0.11167813  0.11957309  1
  Si  Si8  1  0.17817309  0.98216822  0.32406278  1
  Si  Si9  1  0.69649931  0.64042767  0.55081135  1
  Si  Si10  1  0.80350069  0.64042767  0.05081135  1
  Si  Si11  1  0.30350069  0.35957233  0.44918865  1
  Si  Si12  1  0.82182691  0.01783178  0.67593722  1
  Si  Si13  1  0.67817309  0.01783178  0.17593722  1
  Si  Si14  1  0.32182691  0.98216822  0.82406278  1
  Si  Si15  1  0.19649931  0.35957233  0.94918865  1
  O  O16  1  0.70292027  0.72190966  0.14080772  1
  O  O17  1  0.55167712  0.12615787  0.13416412  1
  O  O18  1  0.05167712  0.87384213  0.36583588  1
  O  O19  1  0.44832288  0.87384213  0.86583588  1
  O  O20  1  0.22736796  0.71167243  0.92734957  1
  O  O21  1  0.07341868  0.36374880  0.88574701  1
  O  O22  1  0.29176261  0.10372164  0.63812049  1
  O  O23  1  0.27263204  0.71167243  0.42734957  1
  O  O24  1  0.70823739  0.89627836  0.36187951  1
  O  O25  1  0.92658132  0.63625120  0.11425299  1
  O  O26  1  0.77263204  0.28832757  0.07265043  1
  O  O27  1  0.57341868  0.63625120  0.61425299  1
  O  O28  1  0.42658132  0.36374880  0.38574701  1
  O  O29  1  0.79176261  0.89627836  0.86187951  1
  O  O30  1  0.20292027  0.27809034  0.35919228  1
  O  O31  1  0.20823739  0.10372164  0.13812049  1
  O  O32  1  0.72736796  0.28832757  0.57265043  1
  O  O33  1  0.29707973  0.27809034  0.85919228  1
  O  O34  1  0.94832288  0.12615787  0.63416412  1
  O  O35  1  0.79707973  0.72190966  0.64080772  1
