# generated using pymatgen
data_BaSi2O5
_symmetry_space_group_name_H-M   'P 1'
_cell_length_a   4.65736664
_cell_length_b   11.84252805
_cell_length_c   13.66432777
_cell_angle_alpha   97.36514687
_cell_angle_beta   90.00000000
_cell_angle_gamma   101.34039128
_symmetry_Int_Tables_number   1
_chemical_formula_structural   BaSi2O5
_chemical_formula_sum   'Ba6 Si12 O30'
_cell_volume   732.59871314
_cell_formula_units_Z   6
loop_
 _symmetry_equiv_pos_site_id
 _symmetry_equiv_pos_as_xyz
  1  'x, y, z'
loop_
 _atom_site_type_symbol
 _atom_site_label
 _atom_site_symmetry_multiplicity
 _atom_site_fract_x
 _atom_site_fract_y
 _atom_site_fract_z
 _atom_site_occupancy
  Ba  Ba0  1  0.70981483  0.32746613  0.43587850  1
  Ba  Ba1  1  0.38234770  0.67253387  0.06412150  1
  Ba  Ba2  1  0.29018517  0.67253387  0.56412150  1
  Ba  Ba3  1  0.61765230  0.32746613  0.93587850  1
  Ba  Ba4  1  0.00000000  0.00000000  -0.00000000  1
  Ba  Ba5  1  0.00000000  0.00000000  0.50000000  1
  Si  Si6  1  0.85968334  0.47448010  0.17943259  1
  Si  Si7  1  0.38520425  0.52551990  0.32056741  1
  Si  Si8  1  0.14031666  0.52551990  0.82056741  1
  Si  Si9  1  0.61479575  0.47448010  0.67943259  1
  Si  Si10  1  0.69058417  0.20471433  0.15023258  1
  Si  Si11  1  0.48587184  0.79528567  0.34976742  1
  Si  Si12  1  0.30941583  0.79528567  0.84976742  1
  Si  Si13  1  0.51412816  0.20471433  0.65023258  1
  Si  Si14  1  0.17277153  0.13320495  0.27085951  1
  Si  Si15  1  0.03956559  0.86679505  0.22914049  1
  Si  Si16  1  0.82722847  0.86679505  0.72914049  1
  Si  Si17  1  0.96043441  0.13320495  0.77085951  1
  O  O18  1  0.67078380  0.47449897  0.28034552  1
  O  O19  1  0.19628483  0.52550103  0.21965448  1
  O  O20  1  0.32921620  0.52550103  0.71965448  1
  O  O21  1  0.80371517  0.47449897  0.78034552  1
  O  O22  1  0.77810693  0.54154259  0.09410830  1
  O  O23  1  0.23656533  0.45845741  0.40589170  1
  O  O24  1  0.22189307  0.45845741  0.90589170  1
  O  O25  1  0.76343467  0.54154259  0.59410830  1
  O  O26  1  0.84203585  0.33789907  0.13549248  1
  O  O27  1  0.50413478  0.66210093  0.36450652  1
  O  O28  1  0.15796415  0.66210093  0.86450652  1
  O  O29  1  0.49586522  0.33789907  0.63549348  1
  O  O30  1  0.53832208  0.14074203  0.04980191  1
  O  O31  1  0.39758005  0.85925797  0.45019809  1
  O  O32  1  0.46167792  0.85925797  0.95019809  1
  O  O33  1  0.60242095  0.14074203  0.54980191  1
  O  O34  1  0.94950848  0.14023514  0.18049817  1
  O  O35  1  0.80927334  0.85976486  0.31950183  1
  O  O36  1  0.77433473  0.00000000  0.75000000  1
  O  O37  1  0.22566527  -0.00000000  0.25000000  1
  O  O38  1  0.09367988  0.17318849  0.87851122  1
  O  O39  1  0.92049138  0.82681151  0.62148878  1
  O  O40  1  0.90632012  0.82681151  0.12148878  1
  O  O41  1  0.07950862  0.17318849  0.37851122  1
  O  O42  1  0.72731194  0.21455222  0.74733028  1
  O  O43  1  0.51276172  0.78544778  0.75266972  1
  O  O44  1  0.27268806  0.78544778  0.25266972  1
  O  O45  1  0.48723928  0.21455222  0.24733028  1
  O  O46  1  0.19072666  0.14023514  0.68049817  1
  O  O47  1  0.05049152  0.85976486  0.81950183  1
