# generated using pymatgen
data_Li2Ti6PbO14
_symmetry_space_group_name_H-M   'P 1'
_cell_length_a   10.11515039
_cell_length_b   10.11515009
_cell_length_c   11.58463147
_cell_angle_alpha   90.00000000
_cell_angle_beta   90.00000000
_cell_angle_gamma   112.49334189
_symmetry_Int_Tables_number   1
_chemical_formula_structural   Li2Ti6PbO14
_chemical_formula_sum   'Li8 Ti24 Pb4 O56'
_cell_volume   1095.12361625
_cell_formula_units_Z   4
loop_
 _symmetry_equiv_pos_site_id
 _symmetry_equiv_pos_as_xyz
  1  'x, y, z'
loop_
 _atom_site_type_symbol
 _atom_site_label
 _atom_site_symmetry_multiplicity
 _atom_site_fract_x
 _atom_site_fract_y
 _atom_site_fract_z
 _atom_site_occupancy
  Li  Li0  1  0.05894792  0.43133735  0.12363793  1
  Li  Li1  1  0.44105208  0.06866265  0.62363793  1
  Li  Li2  1  0.55894792  0.93133735  0.37636207  1
  Li  Li3  1  0.93133735  0.55894792  0.37636207  1
  Li  Li4  1  0.56866265  0.94105208  0.87636207  1
  Li  Li5  1  0.94105208  0.56866265  0.87636207  1
  Li  Li6  1  0.06866265  0.44105208  0.62363793  1
  Li  Li7  1  0.43133735  0.05894792  0.12363793  1
  Ti  Ti8  1  0.98929756  0.77521216  0.11696418  1
  Ti  Ti9  1  0.75678030  0.25678030  0.75000000  1
  Ti  Ti10  1  0.76897892  0.98662783  0.63556561  1
  Ti  Ti11  1  0.25678030  0.75678030  0.75000000  1
  Ti  Ti12  1  0.51337217  0.73102108  0.13556561  1
  Ti  Ti13  1  0.74321970  0.24321970  0.25000000  1
  Ti  Ti14  1  0.25636964  0.74363036  0.00000000  1
  Ti  Ti15  1  0.22478784  0.01070244  0.88303582  1
  Ti  Ti16  1  0.24363036  0.75636964  0.50000000  1
  Ti  Ti17  1  0.24321970  0.74321970  0.25000000  1
  Ti  Ti18  1  0.98662783  0.76897892  0.63556561  1
  Ti  Ti19  1  0.01070244  0.22478784  0.88303582  1
  Ti  Ti20  1  0.77521216  0.98929756  0.11696418  1
  Ti  Ti21  1  0.74363036  0.25636964  0.00000000  1
  Ti  Ti22  1  0.27521216  0.48929756  0.38303582  1
  Ti  Ti23  1  0.75636964  0.24363036  0.50000000  1
  Ti  Ti24  1  0.48662783  0.26897892  0.86443439  1
  Ti  Ti25  1  0.73102108  0.51337217  0.13556561  1
  Ti  Ti26  1  0.01337217  0.23102108  0.36443439  1
  Ti  Ti27  1  0.72478784  0.51070244  0.61696418  1
  Ti  Ti28  1  0.23102108  0.01337217  0.36443439  1
  Ti  Ti29  1  0.48929756  0.27521216  0.38303582  1
  Ti  Ti30  1  0.51070244  0.72478784  0.61696418  1
  Ti  Ti31  1  0.26897892  0.48662783  0.86443439  1
  Pb  Pb32  1  0.34179819  0.34179819  0.12038423  1
  Pb  Pb33  1  0.15820181  0.15820181  0.62038423  1
  Pb  Pb34  1  0.65820181  0.65820181  0.87961577  1
  Pb  Pb35  1  0.84179819  0.84179819  0.37961577  1
  O  O36  1  0.64021846  0.85743019  0.73771445  1
  O  O37  1  0.14021846  0.35743019  0.76228555  1
  O  O38  1  0.13982840  0.35583227  0.48527554  1
  O  O39  1  0.61903847  0.14583178  0.37732719  1
  O  O40  1  0.86017160  0.64416773  0.51472446  1
  O  O41  1  0.64416773  0.86017160  0.51472446  1
  O  O42  1  0.12020846  0.65161233  0.62745842  1
  O  O43  1  0.36385786  0.62890053  0.25021555  1
  O  O44  1  0.38096153  0.85416822  0.62267281  1
  O  O45  1  0.41099458  0.41099458  0.36948781  1
  O  O46  1  0.88096153  0.35416822  0.87732719  1
  O  O47  1  0.35978154  0.14256981  0.26228555  1
  O  O48  1  0.58900542  0.58900542  0.63051219  1
  O  O49  1  0.86627751  0.13372249  0.00000000  1
  O  O50  1  0.63614214  0.37109947  0.74978445  1
  O  O51  1  0.37109947  0.63614214  0.74978445  1
  O  O52  1  0.41729943  0.41729943  0.87857567  1
  O  O53  1  0.58270057  0.58270057  0.12142433  1
  O  O54  1  0.08900542  0.08900542  0.86948781  1
  O  O55  1  0.62890053  0.36385786  0.25021555  1
  O  O56  1  0.84838767  0.37979154  0.12745842  1
  O  O57  1  0.36627751  0.63372249  0.50000000  1
  O  O58  1  0.37979154  0.84838767  0.12745842  1
  O  O59  1  0.14416773  0.36017160  0.98527554  1
  O  O60  1  0.86910502  0.13089498  0.50000000  1
  O  O61  1  0.36017160  0.14416773  0.98527554  1
  O  O62  1  0.62020846  0.15161233  0.87254158  1
  O  O63  1  0.36910502  0.63089498  0.00000000  1
  O  O64  1  0.34838767  0.87979154  0.37254158  1
  O  O65  1  0.08270057  0.08270057  0.37857567  1
  O  O66  1  0.13089498  0.86910502  0.50000000  1
  O  O67  1  0.91729943  0.91729943  0.62142433  1
  O  O68  1  0.13372249  0.86627751  0.00000000  1
  O  O69  1  0.35583227  0.13982840  0.48527554  1
  O  O70  1  0.11903847  0.64583178  0.12267281  1
  O  O71  1  0.15161233  0.62020846  0.87254158  1
  O  O72  1  0.63372249  0.36627751  0.50000000  1
  O  O73  1  0.64256981  0.85978154  0.23771445  1
  O  O74  1  0.65161233  0.12020846  0.62745842  1
  O  O75  1  0.63982840  0.85583227  0.01472446  1
  O  O76  1  0.13614214  0.87109947  0.75021555  1
  O  O77  1  0.87979154  0.34838767  0.37254158  1
  O  O78  1  0.91099458  0.91099458  0.13051219  1
  O  O79  1  0.85583227  0.63982840  0.01472446  1
  O  O80  1  0.87109947  0.13614214  0.75021555  1
  O  O81  1  0.64583178  0.11903847  0.12267281  1
  O  O82  1  0.14583178  0.61903847  0.37732719  1
  O  O83  1  0.14256981  0.35978154  0.26228555  1
  O  O84  1  0.85416822  0.38096153  0.62267281  1
  O  O85  1  0.85743019  0.64021846  0.73771445  1
  O  O86  1  0.35416822  0.88096153  0.87732719  1
  O  O87  1  0.86385786  0.12890053  0.24978445  1
  O  O88  1  0.63089498  0.36910502  0.00000000  1
  O  O89  1  0.85978154  0.64256981  0.23771445  1
  O  O90  1  0.12890053  0.86385786  0.24978445  1
  O  O91  1  0.35743019  0.14021846  0.76228555  1
