# generated using pymatgen
data_K3Mn2F7
_symmetry_space_group_name_H-M   'P 1'
_cell_length_a   11.13536766
_cell_length_b   11.13536766
_cell_length_c   11.13536766
_cell_angle_alpha   158.39557238
_cell_angle_beta   158.39557238
_cell_angle_gamma   30.73995118
_symmetry_Int_Tables_number   1
_chemical_formula_structural   K3Mn2F7
_chemical_formula_sum   'K3 Mn2 F7'
_cell_volume   187.06166051
_cell_formula_units_Z   1
loop_
 _symmetry_equiv_pos_site_id
 _symmetry_equiv_pos_as_xyz
  1  'x, y, z'
loop_
 _atom_site_type_symbol
 _atom_site_label
 _atom_site_symmetry_multiplicity
 _atom_site_fract_x
 _atom_site_fract_y
 _atom_site_fract_z
 _atom_site_occupancy
  K  K0  1  0.31506599  0.31506599  0.00000000  1
  K  K1  1  0.68493401  0.68493401  -0.00000000  1
  K  K2  1  0.50000000  0.50000000  -0.00000000  1
  Mn  Mn3  1  0.09827475  0.09827475  -0.00000000  1
  Mn  Mn4  1  0.90172525  0.90172525  0.00000000  1
  F  F5  1  0.00000000  0.00000000  -0.00000000  1
  F  F6  1  0.90377781  0.40377781  0.50000000  1
  F  F7  1  0.40377781  0.90377781  0.50000000  1
  F  F8  1  0.09622219  0.59622219  0.50000000  1
  F  F9  1  0.59622219  0.09622219  0.50000000  1
  F  F10  1  0.19545555  0.19545555  0.00000000  1
  F  F11  1  0.80454445  0.80454445  -0.00000000  1
