# generated using pymatgen
data_OsOF5
_symmetry_space_group_name_H-M   'P 1'
_cell_length_a   4.91895724
_cell_length_b   8.46027787
_cell_length_c   9.20622603
_cell_angle_alpha   89.99489848
_cell_angle_beta   89.99990569
_cell_angle_gamma   90.00012535
_symmetry_Int_Tables_number   1
_chemical_formula_structural   OsOF5
_chemical_formula_sum   'Os4 O4 F20'
_cell_volume   383.12395399
_cell_formula_units_Z   4
loop_
 _symmetry_equiv_pos_site_id
 _symmetry_equiv_pos_as_xyz
  1  'x, y, z'
loop_
 _atom_site_type_symbol
 _atom_site_label
 _atom_site_symmetry_multiplicity
 _atom_site_fract_x
 _atom_site_fract_y
 _atom_site_fract_z
 _atom_site_occupancy
  Os  Os0  1  0.92126255  0.16551599  0.37159774  1
  Os  Os1  1  0.42125723  0.66542895  0.12839761  1
  Os  Os2  1  0.57873919  0.16550972  0.87160417  1
  Os  Os3  1  0.07873928  0.66542719  0.62839541  1
  O  O4  1  0.05966029  0.02282423  0.26862301  1
  O  O5  1  0.94033648  0.52275706  0.73137632  1
  O  O6  1  0.55965971  0.52276061  0.23137741  1
  O  O7  1  0.44034437  0.02281699  0.76863639  1
  F  F8  1  0.78784821  0.67952001  0.49903963  1
  F  F9  1  0.93420437  0.83213619  0.73691846  1
  F  F10  1  0.75631426  0.02971865  0.00006604  1
  F  F11  1  0.43422831  0.33219232  0.76307644  1
  F  F12  1  0.71215442  0.67952037  -0.00096384  1
  F  F13  1  0.26909424  0.82824681  0.01341374  1
  F  F14  1  0.28785935  0.17958653  0.00096456  1
  F  F15  1  0.73091780  0.32830567  0.98658890  1
  F  F16  1  0.23090894  0.82824308  0.51341037  1
  F  F17  1  0.76909245  0.32830739  0.48658923  1
  F  F18  1  0.09869463  0.68100891  0.23474019  1
  F  F19  1  0.24369260  0.52966881  -0.00006139  1
  F  F20  1  0.25631043  0.52966848  0.49993873  1
  F  F21  1  0.21214567  0.17958628  0.50095222  1
  F  F22  1  0.40129347  0.68101259  0.73474130  1
  F  F23  1  0.06576770  0.33220108  0.26307170  1
  F  F24  1  0.59867711  0.18109208  0.26526293  1
  F  F25  1  0.56578500  0.83213399  0.23691717  1
  F  F26  1  0.74368636  0.02971856  0.50006612  1
  F  F27  1  0.90132459  0.18108446  0.76525844  1
