# generated using pymatgen
data_SiC
_symmetry_space_group_name_H-M   'P 1'
_cell_length_a   3.07648508
_cell_length_b   3.07648427
_cell_length_c   40.26768340
_cell_angle_alpha   90.00000000
_cell_angle_beta   90.00000000
_cell_angle_gamma   119.99997640
_symmetry_Int_Tables_number   1
_chemical_formula_structural   SiC
_chemical_formula_sum   'Si16 C16'
_cell_volume   330.06303832
_cell_formula_units_Z   16
loop_
 _symmetry_equiv_pos_site_id
 _symmetry_equiv_pos_as_xyz
  1  'x, y, z'
loop_
 _atom_site_type_symbol
 _atom_site_label
 _atom_site_symmetry_multiplicity
 _atom_site_fract_x
 _atom_site_fract_y
 _atom_site_fract_z
 _atom_site_occupancy
  Si  Si0  1  0.33333300  0.66666700  0.81251166  1
  Si  Si1  1  0.33333300  0.66666700  0.56248732  1
  Si  Si2  1  0.00000000  0.00000000  0.37502844  1
  Si  Si3  1  0.66666700  0.33333300  0.93744337  1
  Si  Si4  1  0.66666700  0.33333300  0.06248732  1
  Si  Si5  1  0.00000000  -0.00000000  0.24998077  1
  Si  Si6  1  0.00000000  0.00000000  0.87502844  1
  Si  Si7  1  0.66666700  0.33333300  0.68746462  1
  Si  Si8  1  0.66666700  0.33333300  0.49997315  1
  Si  Si9  1  0.33333300  0.66666700  0.43744337  1
  Si  Si10  1  0.33333300  0.66666700  0.99997315  1
  Si  Si11  1  -0.00000000  0.00000000  0.74998077  1
  Si  Si12  1  0.66666700  0.33333300  0.31251166  1
  Si  Si13  1  -0.00000000  0.00000000  0.62491553  1
  Si  Si14  1  0.33333300  0.66666700  0.18746462  1
  Si  Si15  1  0.00000000  -0.00000000  0.12491553  1
  C  C16  1  0.00000000  0.00000000  0.17178814  1
  C  C17  1  0.33333300  0.66666700  0.48430688  1
  C  C18  1  0.66666700  0.33333300  0.35952155  1
  C  C19  1  0.33333300  0.66666700  0.04697750  1
  C  C20  1  0.66666700  0.33333300  0.54697750  1
  C  C21  1  0.00000000  -0.00000000  0.92189534  1
  C  C22  1  0.33333300  0.66666700  0.60935718  1
  C  C23  1  0.66666700  0.33333300  0.73447507  1
  C  C24  1  0.00000000  0.00000000  0.42189534  1
  C  C25  1  0.66666700  0.33333300  0.98430688  1
  C  C26  1  -0.00000000  0.00000000  0.79683349  1
  C  C27  1  0.66666700  0.33333300  0.10935718  1
  C  C28  1  0.33333300  0.66666700  0.85952155  1
  C  C29  1  0.00000000  -0.00000000  0.29683349  1
  C  C30  1  0.00000000  -0.00000000  0.67178814  1
  C  C31  1  0.33333300  0.66666700  0.23447507  1
