# generated using pymatgen
data_V4Fe2O13
_symmetry_space_group_name_H-M   'P 1'
_cell_length_a   9.41919459
_cell_length_b   8.30020151
_cell_length_c   14.56516326
_cell_angle_alpha   77.84105643
_cell_angle_beta   90.00000000
_cell_angle_gamma   90.00000000
_symmetry_Int_Tables_number   1
_chemical_formula_structural   V4Fe2O13
_chemical_formula_sum   'V16 Fe8 O52'
_cell_volume   1113.17726205
_cell_formula_units_Z   4
loop_
 _symmetry_equiv_pos_site_id
 _symmetry_equiv_pos_as_xyz
  1  'x, y, z'
loop_
 _atom_site_type_symbol
 _atom_site_label
 _atom_site_symmetry_multiplicity
 _atom_site_fract_x
 _atom_site_fract_y
 _atom_site_fract_z
 _atom_site_occupancy
  V  V0  1  0.27715550  0.74772771  0.67169470  1
  V  V1  1  0.74019673  0.85623383  0.32385909  1
  V  V2  1  0.72284450  0.25227229  0.32830530  1
  V  V3  1  0.25980327  0.14376617  0.67614091  1
  V  V4  1  0.24019673  0.14376617  0.17614091  1
  V  V5  1  0.79082716  0.95785076  0.09211933  1
  V  V6  1  0.29082716  0.04214924  0.40788067  1
  V  V7  1  0.75980327  0.85623383  0.82385909  1
  V  V8  1  0.28676535  0.53065248  0.90512347  1
  V  V9  1  0.70917284  0.95785076  0.59211933  1
  V  V10  1  0.71323465  0.46934752  0.09487653  1
  V  V11  1  0.20917284  0.04214924  0.90788067  1
  V  V12  1  0.77715550  0.25227229  0.82830530  1
  V  V13  1  0.21323465  0.53065248  0.40512347  1
  V  V14  1  0.22284450  0.74772771  0.17169470  1
  V  V15  1  0.78676535  0.46934752  0.59487653  1
  Fe  Fe16  1  0.49909015  0.69485281  0.48185895  1
  Fe  Fe17  1  0.49905942  0.80708340  0.00780342  1
  Fe  Fe18  1  0.50094058  0.19291660  0.99219658  1
  Fe  Fe19  1  0.50090985  0.30514719  0.51814105  1
  Fe  Fe20  1  0.99905942  0.19291660  0.49219658  1
  Fe  Fe21  1  0.00090985  0.69485281  0.98185895  1
  Fe  Fe22  1  0.00094058  0.80708340  0.50780342  1
  Fe  Fe23  1  0.99909015  0.30514719  0.01814105  1
  O  O24  1  0.83617760  0.05473496  0.81450552  1
  O  O25  1  0.36041457  0.34328135  0.92256040  1
  O  O26  1  0.13619952  0.85667320  0.90915827  1
  O  O27  1  0.61475630  0.86250566  0.52161011  1
  O  O28  1  0.61302090  0.31760287  0.40226714  1
  O  O29  1  0.72240441  0.38840947  0.21765441  1
  O  O30  1  0.66382240  0.05473496  0.31450552  1
  O  O31  1  0.61464254  0.22946652  0.87488379  1
  O  O32  1  0.11453319  0.64967918  0.46018949  1
  O  O33  1  0.11584311  0.16222991  0.60814431  1
  O  O34  1  0.88415689  0.83777009  0.39185569  1
  O  O35  1  0.38546681  0.64967918  0.96018949  1
  O  O36  1  0.21075266  0.16195020  0.79089189  1
  O  O37  1  0.36380048  0.85667320  0.40915827  1
  O  O38  1  0.22240441  0.61159053  0.28234559  1
  O  O39  1  0.11302090  0.68239713  0.09773286  1
  O  O40  1  0.71075266  0.83804980  0.70910811  1
  O  O41  1  0.77759559  0.38840947  0.71765441  1
  O  O42  1  0.61500688  0.49459201  0.54827352  1
  O  O43  1  0.88546681  0.35032082  0.53981051  1
  O  O44  1  0.33617760  0.94526504  0.68549448  1
  O  O45  1  0.16382240  0.94526504  0.18549448  1
  O  O46  1  0.28924734  0.16195020  0.29089189  1
  O  O47  1  0.61898918  0.71362309  0.36953957  1
  O  O48  1  0.88524370  0.86250566  0.02161011  1
  O  O49  1  0.38415689  0.16222991  0.10814431  1
  O  O50  1  0.38524370  0.13749434  0.47838989  1
  O  O51  1  0.61804931  0.99290654  0.04710886  1
  O  O52  1  0.86041457  0.65671865  0.57743960  1
  O  O53  1  0.11500688  0.50540799  0.95172648  1
  O  O54  1  0.88535746  0.22946652  0.37488379  1
  O  O55  1  0.11804931  0.00709346  0.45289114  1
  O  O56  1  0.88195069  0.99290654  0.54710886  1
  O  O57  1  0.38697910  0.68239713  0.59773286  1
  O  O58  1  0.88101082  0.71362309  0.86953957  1
  O  O59  1  0.61584311  0.83777009  0.89185569  1
  O  O60  1  0.38195069  0.00709346  0.95289114  1
  O  O61  1  0.11464254  0.77053348  0.62511621  1
  O  O62  1  0.88499312  0.49459201  0.04827352  1
  O  O63  1  0.61453319  0.35032082  0.03981051  1
  O  O64  1  0.13958543  0.34328135  0.42256040  1
  O  O65  1  0.27759559  0.61159053  0.78234559  1
  O  O66  1  0.11475630  0.13749434  0.97838989  1
  O  O67  1  0.38101082  0.28637691  0.63046043  1
  O  O68  1  0.38499312  0.50540799  0.45172648  1
  O  O69  1  0.78924734  0.83804980  0.20910811  1
  O  O70  1  0.63619952  0.14332680  0.59084173  1
  O  O71  1  0.11898918  0.28637691  0.13046043  1
  O  O72  1  0.86380048  0.14332680  0.09084173  1
  O  O73  1  0.38535746  0.77053348  0.12511621  1
  O  O74  1  0.88697910  0.31760287  0.90226714  1
  O  O75  1  0.63958543  0.65671865  0.07743960  1
