# generated using pymatgen
data_Cs2SeO4
_symmetry_space_group_name_H-M   'P 1'
_cell_length_a   6.44846081
_cell_length_b   8.39029182
_cell_length_c   11.28439475
_cell_angle_alpha   90.00000000
_cell_angle_beta   90.00000000
_cell_angle_gamma   90.00000000
_symmetry_Int_Tables_number   1
_chemical_formula_structural   Cs2SeO4
_chemical_formula_sum   'Cs8 Se4 O16'
_cell_volume   610.53617449
_cell_formula_units_Z   4
loop_
 _symmetry_equiv_pos_site_id
 _symmetry_equiv_pos_as_xyz
  1  'x, y, z'
loop_
 _atom_site_type_symbol
 _atom_site_label
 _atom_site_symmetry_multiplicity
 _atom_site_fract_x
 _atom_site_fract_y
 _atom_site_fract_z
 _atom_site_occupancy
  Cs  Cs0  1  0.75000000  0.67372559  0.41026014  1
  Cs  Cs1  1  0.75000000  0.48998577  0.79624390  1
  Cs  Cs2  1  0.25000000  0.51001423  0.20375610  1
  Cs  Cs3  1  0.25000000  0.01001423  0.29624390  1
  Cs  Cs4  1  0.75000000  0.98998577  0.70375610  1
  Cs  Cs5  1  0.25000000  0.32627441  0.58973986  1
  Cs  Cs6  1  0.75000000  0.17372559  0.08973986  1
  Cs  Cs7  1  0.25000000  0.82627441  0.91026014  1
  Se  Se8  1  0.25000000  0.76582674  0.58058813  1
  Se  Se9  1  0.75000000  0.23417326  0.41941187  1
  Se  Se10  1  0.75000000  0.73417326  0.08058813  1
  Se  Se11  1  0.25000000  0.26582674  0.91941187  1
  O  O12  1  0.75000000  0.03707602  0.41670951  1
  O  O13  1  0.03997822  0.19721116  0.85141466  1
  O  O14  1  0.46002178  0.69721116  0.64858534  1
  O  O15  1  0.25000000  0.19857376  0.05795619  1
  O  O16  1  0.75000000  0.53707602  0.08329049  1
  O  O17  1  0.96002178  0.30278884  0.35141466  1
  O  O18  1  0.53997822  0.30278884  0.35141466  1
  O  O19  1  0.53997822  0.80278884  0.14858534  1
  O  O20  1  0.75000000  0.80142624  0.94204381  1
  O  O21  1  0.03997822  0.69721116  0.64858534  1
  O  O22  1  0.46002178  0.19721116  0.85141466  1
  O  O23  1  0.25000000  0.69857376  0.44204381  1
  O  O24  1  0.25000000  0.46292398  0.91670951  1
  O  O25  1  0.75000000  0.30142624  0.55795619  1
  O  O26  1  0.96002178  0.80278884  0.14858534  1
  O  O27  1  0.25000000  0.96292398  0.58329049  1
