# generated using pymatgen
data_TeI4
_symmetry_space_group_name_H-M   'P 1'
_cell_length_a   7.17664536
_cell_length_b   14.86217264
_cell_length_c   17.08750012
_cell_angle_alpha   90.00000000
_cell_angle_beta   90.00000000
_cell_angle_gamma   90.00000000
_symmetry_Int_Tables_number   1
_chemical_formula_structural   TeI4
_chemical_formula_sum   'Te8 I32'
_cell_volume   1822.56202963
_cell_formula_units_Z   8
loop_
 _symmetry_equiv_pos_site_id
 _symmetry_equiv_pos_as_xyz
  1  'x, y, z'
loop_
 _atom_site_type_symbol
 _atom_site_label
 _atom_site_symmetry_multiplicity
 _atom_site_fract_x
 _atom_site_fract_y
 _atom_site_fract_z
 _atom_site_occupancy
  Te  Te0  1  0.27655116  0.39471724  -0.00000000  1
  Te  Te1  1  0.73492104  0.16312503  0.35855050  1
  Te  Te2  1  0.26507896  0.66312503  0.85855050  1
  Te  Te3  1  0.26021331  0.93191089  -0.00000000  1
  Te  Te4  1  0.73492104  0.16312503  0.64144950  1
  Te  Te5  1  0.72344884  0.89471724  0.50000000  1
  Te  Te6  1  0.73978669  0.43191089  0.50000000  1
  Te  Te7  1  0.26507896  0.66312503  0.14144950  1
  I  I8  1  0.50734584  0.82615121  0.62090078  1
  I  I9  1  -0.01489356  0.25057083  0.50000000  1
  I  I10  1  0.48721609  0.07973739  0.50000000  1
  I  I11  1  0.50964356  0.82540226  0.12852979  1
  I  I12  1  0.98553444  0.75705670  0.50000000  1
  I  I13  1  0.03585687  0.74249257  0.74672885  1
  I  I14  1  0.50964356  0.82540226  0.87147021  1
  I  I15  1  0.04773711  0.00386411  0.12171639  1
  I  I16  1  0.95226289  0.50386411  0.37828361  1
  I  I17  1  0.02142430  0.50120849  0.86966784  1
  I  I18  1  0.49265416  0.32615121  0.12090078  1
  I  I19  1  0.49476149  0.08373318  0.74809648  1
  I  I20  1  0.96414313  0.24249257  0.24672885  1
  I  I21  1  0.97857570  0.00120849  0.36966784  1
  I  I22  1  0.50523851  0.58373318  0.24809648  1
  I  I23  1  0.50523851  0.58373318  0.75190352  1
  I  I24  1  0.97857570  0.00120849  0.63033216  1
  I  I25  1  0.95226289  0.50386411  0.62171639  1
  I  I26  1  0.50734584  0.82615121  0.37909922  1
  I  I27  1  0.01489356  0.75057083  -0.00000000  1
  I  I28  1  0.49265416  0.32615121  0.87909922  1
  I  I29  1  0.47238894  0.56705626  0.50000000  1
  I  I30  1  0.49035644  0.32540226  0.37147021  1
  I  I31  1  0.04773711  0.00386411  0.87828361  1
  I  I32  1  0.02142430  0.50120849  0.13033216  1
  I  I33  1  0.96414313  0.24249257  0.75327115  1
  I  I34  1  0.51278391  0.57973739  -0.00000000  1
  I  I35  1  0.01446656  0.25705670  -0.00000000  1
  I  I36  1  0.49035644  0.32540226  0.62852979  1
  I  I37  1  0.49476149  0.08373318  0.25190352  1
  I  I38  1  0.52761106  0.06705626  -0.00000000  1
  I  I39  1  0.03585687  0.74249257  0.25327115  1
