# generated using pymatgen
data_ZnS
_symmetry_space_group_name_H-M   'P 1'
_cell_length_a   3.81002135
_cell_length_b   3.81002083
_cell_length_c   80.95288325
_cell_angle_alpha   90.00001587
_cell_angle_beta   89.99998581
_cell_angle_gamma   119.99895044
_symmetry_Int_Tables_number   1
_chemical_formula_structural   ZnS
_chemical_formula_sum   'Zn26 S26'
_cell_volume   1017.70592963
_cell_formula_units_Z   26
loop_
 _symmetry_equiv_pos_site_id
 _symmetry_equiv_pos_as_xyz
  1  'x, y, z'
loop_
 _atom_site_type_symbol
 _atom_site_label
 _atom_site_symmetry_multiplicity
 _atom_site_fract_x
 _atom_site_fract_y
 _atom_site_fract_z
 _atom_site_occupancy
  Zn  Zn0  1  0.33332983  0.66667017  0.15380316  1
  Zn  Zn1  1  0.00000193  0.99999807  0.11537378  1
  Zn  Zn2  1  0.66666511  0.33333489  0.65384545  1
  Zn  Zn3  1  0.00000106  0.99999894  0.23074836  1
  Zn  Zn4  1  1.00000072  -0.00000072  0.30776380  1
  Zn  Zn5  1  0.66666656  0.33333344  0.19228798  1
  Zn  Zn6  1  0.33334235  0.66665765  0.26928837  1
  Zn  Zn7  1  0.66666345  0.33333655  0.34615045  1
  Zn  Zn8  1  0.33333151  0.66666849  0.38458907  1
  Zn  Zn9  1  0.66666343  0.33333657  0.92302349  1
  Zn  Zn10  1  0.66663033  0.33336967  0.80772351  1
  Zn  Zn11  1  0.66667007  0.33332993  0.57690611  1
  Zn  Zn12  1  0.33333569  0.66666431  0.73079565  1
  Zn  Zn13  1  1.00000180  -0.00000180  0.00004296  1
  Zn  Zn14  1  0.33332912  0.66667088  0.96151893  1
  Zn  Zn15  1  0.33333092  0.66666908  0.61535891  1
  Zn  Zn16  1  0.99999361  0.00000639  0.88456820  1
  Zn  Zn17  1  0.33333195  0.66666805  0.84614549  1
  Zn  Zn18  1  0.33333486  0.66666514  0.03853358  1
  Zn  Zn19  1  0.99999712  0.00000288  0.76931523  1
  Zn  Zn20  1  0.99999727  0.00000273  0.53851340  1
  Zn  Zn21  1  0.66666399  0.33333601  0.42307903  1
  Zn  Zn22  1  0.66666601  0.33333299  0.07693971  1
  Zn  Zn23  1  -0.00000045  1.00000045  0.46150184  1
  Zn  Zn24  1  0.00005848  0.99994152  0.69226705  1
  Zn  Zn25  1  0.33333526  0.66666474  0.50004327  1
  S  S26  1  0.99999340  0.00000660  0.91340244  1
  S  S27  1  0.66667041  0.33332959  0.22112903  1
  S  S28  1  0.66669797  0.33330203  0.68266878  1
  S  S29  1  0.66666757  0.33333243  0.10577230  1
  S  S30  1  0.00000400  0.99999600  0.49034568  1
  S  S31  1  0.33332943  0.66667057  0.99035020  1
  S  S32  1  0.00000549  0.99999451  0.72111086  1
  S  S33  1  0.33333517  0.66666483  0.64422674  1
  S  S34  1  0.33333322  0.66666678  0.52889918  1
  S  S35  1  0.99999589  0.00000411  0.56730708  1
  S  S36  1  0.33334044  0.66665956  0.18265250  1
  S  S37  1  0.66667009  0.33332991  0.45189173  1
  S  S38  1  0.33333143  0.66666757  0.41345874  1
  S  S39  1  0.66666006  0.33333994  0.95186768  1
  S  S40  1  0.00004068  0.99995932  0.25959001  1
  S  S41  1  0.33332278  0.66667722  0.06735592  1
  S  S42  1  0.66666371  0.33333629  0.60571010  1
  S  S43  1  0.99999474  0.00000426  0.33657537  1
  S  S44  1  0.33332950  0.66667050  0.75968046  1
  S  S45  1  0.00000122  0.99999878  0.02891827  1
  S  S46  1  0.33333191  0.66666809  0.29815770  1
  S  S47  1  0.33332694  0.66667306  0.87496960  1
  S  S48  1  0.66665942  0.33334158  0.83654829  1
  S  S49  1  0.66665636  0.33334364  0.37495005  1
  S  S50  1  0.99995833  0.00004167  0.79812506  1
  S  S51  1  0.00000285  0.99999815  0.14420843  1
