# generated using pymatgen
data_ZnS
_symmetry_space_group_name_H-M   'P 1'
_cell_length_a   3.80705855
_cell_length_b   3.80705815
_cell_length_c   56.06641709
_cell_angle_alpha   90.00000000
_cell_angle_beta   90.00000000
_cell_angle_gamma   120.00001221
_symmetry_Int_Tables_number   1
_chemical_formula_structural   ZnS
_chemical_formula_sum   'Zn18 S18'
_cell_volume   703.74034361
_cell_formula_units_Z   18
loop_
 _symmetry_equiv_pos_site_id
 _symmetry_equiv_pos_as_xyz
  1  'x, y, z'
loop_
 _atom_site_type_symbol
 _atom_site_label
 _atom_site_symmetry_multiplicity
 _atom_site_fract_x
 _atom_site_fract_y
 _atom_site_fract_z
 _atom_site_occupancy
  Zn  Zn0  1  0.00000000  -0.00000000  0.16667970  1
  Zn  Zn1  1  0.33333300  0.66666700  0.22223228  1
  Zn  Zn2  1  0.00000000  -0.00000000  0.50004060  1
  Zn  Zn3  1  0.66666700  0.33333300  0.55556899  1
  Zn  Zn4  1  0.66666700  0.33333300  0.27776926  1
  Zn  Zn5  1  0.33333300  0.66666700  0.05558735  1
  Zn  Zn6  1  0.33333300  0.66666700  0.61112906  1
  Zn  Zn7  1  0.66666700  0.33333300  0.77784063  1
  Zn  Zn8  1  0.66666700  0.33333300  0.11113136  1
  Zn  Zn9  1  0.33333300  0.66666700  0.44448065  1
  Zn  Zn10  1  0.00000000  -0.00000000  0.72224964  1
  Zn  Zn11  1  0.66666700  0.33333300  0.38894917  1
  Zn  Zn12  1  0.66666700  0.33333300  0.94446784  1
  Zn  Zn13  1  0.00000000  0.00000000  0.33335311  1
  Zn  Zn14  1  0.33333300  0.66666700  0.83337759  1
  Zn  Zn15  1  -0.00000000  -0.00000000  0.00005769  1
  Zn  Zn16  1  0.66666700  0.33333300  0.66670413  1
  Zn  Zn17  1  -0.00000000  -0.00000000  0.88890680  1
  S  S18  1  0.66666700  0.33333300  0.98612621  1
  S  S19  1  0.66666700  0.33333300  0.70826996  1
  S  S20  1  0.00000000  -0.00000000  0.04165646  1
  S  S21  1  0.33333300  0.66666700  0.48608844  1
  S  S22  1  0.66666700  0.33333300  0.59714327  1
  S  S23  1  0.66666700  0.33333300  0.15274738  1
  S  S24  1  0.00000000  0.00000000  0.54164040  1
  S  S25  1  0.33333300  0.66666700  0.09720121  1
  S  S26  1  0.66666700  0.33333300  0.81943032  1
  S  S27  1  0.00000000  0.00000000  0.37501419  1
  S  S28  1  0.66666700  0.33333300  0.31936296  1
  S  S29  1  0.00000000  -0.00000000  0.93047916  1
  S  S30  1  0.33333300  0.66666700  0.26385054  1
  S  S31  1  0.33333300  0.66666700  0.65278181  1
  S  S32  1  0.00000000  -0.00000000  0.76391145  1
  S  S33  1  0.66666700  0.33333300  0.43054049  1
  S  S34  1  0.00000000  -0.00000000  0.20830580  1
  S  S35  1  0.33333300  0.66666700  0.87497610  1
