# generated using pymatgen
data_Rb5Ta(TlAs2)2
_symmetry_space_group_name_H-M   'P 1'
_cell_length_a   7.85406373
_cell_length_b   11.18877816
_cell_length_c   19.33252854
_cell_angle_alpha   90.00000000
_cell_angle_beta   90.00000000
_cell_angle_gamma   90.00000000
_symmetry_Int_Tables_number   1
_chemical_formula_structural   Rb5Ta(TlAs2)2
_chemical_formula_sum   'Rb20 Ta4 Tl8 As16'
_cell_volume   1698.89189364
_cell_formula_units_Z   4
loop_
 _symmetry_equiv_pos_site_id
 _symmetry_equiv_pos_as_xyz
  1  'x, y, z'
loop_
 _atom_site_type_symbol
 _atom_site_label
 _atom_site_symmetry_multiplicity
 _atom_site_fract_x
 _atom_site_fract_y
 _atom_site_fract_z
 _atom_site_occupancy
  Rb  Rb0  1  0.89269542  0.75000000  0.47869687  1
  Rb  Rb1  1  0.69326864  0.02516245  0.57817717  1
  Rb  Rb2  1  0.47986997  0.94644222  0.74859188  1
  Rb  Rb3  1  0.97986997  0.05355778  0.75140812  1
  Rb  Rb4  1  0.02013003  0.94644222  0.24859188  1
  Rb  Rb5  1  0.97986997  0.44644222  0.75140812  1
  Rb  Rb6  1  0.10730458  0.25000000  0.52130313  1
  Rb  Rb7  1  0.80673136  0.47483755  0.07817717  1
  Rb  Rb8  1  0.52013003  0.05355778  0.25140812  1
  Rb  Rb9  1  0.69326864  0.47483755  0.57817717  1
  Rb  Rb10  1  0.30673136  0.52516245  0.42182283  1
  Rb  Rb11  1  0.39269542  0.25000000  0.02130313  1
  Rb  Rb12  1  0.30673136  0.97483755  0.42182283  1
  Rb  Rb13  1  0.52013003  0.44644222  0.25140812  1
  Rb  Rb14  1  0.60730458  0.75000000  0.97869687  1
  Rb  Rb15  1  0.19326864  0.52516245  0.92182283  1
  Rb  Rb16  1  0.80673136  0.02516245  0.07817717  1
  Rb  Rb17  1  0.47986997  0.55355778  0.74859188  1
  Rb  Rb18  1  0.19326864  0.97483755  0.92182283  1
  Rb  Rb19  1  0.02013003  0.55355778  0.24859188  1
  Ta  Ta20  1  0.41725544  0.75000000  0.16327779  1
  Ta  Ta21  1  0.58274456  0.25000000  0.83672221  1
  Ta  Ta22  1  0.91725544  0.25000000  0.33672221  1
  Ta  Ta23  1  0.08274456  0.75000000  0.66327779  1
  Tl  Tl24  1  0.67776482  0.75000000  0.31252794  1
  Tl  Tl25  1  0.42092167  0.75000000  0.55405628  1
  Tl  Tl26  1  0.92092167  0.25000000  0.94594372  1
  Tl  Tl27  1  0.57907833  0.25000000  0.44594372  1
  Tl  Tl28  1  0.32223518  0.25000000  0.68747206  1
  Tl  Tl29  1  0.82223518  0.75000000  0.81252794  1
  Tl  Tl30  1  0.07907833  0.75000000  0.05405628  1
  Tl  Tl31  1  0.17776482  0.25000000  0.18747206  1
  As  As32  1  0.19685410  0.92979450  0.60279611  1
  As  As33  1  0.16683029  0.75000000  0.78895254  1
  As  As34  1  0.33316971  0.75000000  0.28895254  1
  As  As35  1  0.30314590  0.92979450  0.10279611  1
  As  As36  1  0.76799000  0.75000000  0.66402612  1
  As  As37  1  0.30314590  0.57020550  0.10279611  1
  As  As38  1  0.80314590  0.07020550  0.39720389  1
  As  As39  1  0.23201000  0.25000000  0.33597388  1
  As  As40  1  0.80314590  0.42979450  0.39720389  1
  As  As41  1  0.83316971  0.25000000  0.21104746  1
  As  As42  1  0.69685410  0.07020550  0.89720389  1
  As  As43  1  0.73201000  0.75000000  0.16402612  1
  As  As44  1  0.66683029  0.25000000  0.71104746  1
  As  As45  1  0.26799000  0.25000000  0.83597388  1
  As  As46  1  0.19685410  0.57020550  0.60279611  1
  As  As47  1  0.69685410  0.42979450  0.89720389  1
