# generated using pymatgen
data_Hf2P2O9
_symmetry_space_group_name_H-M   'P 1'
_cell_length_a   7.55859425
_cell_length_b   7.55859425
_cell_length_c   10.00976695
_cell_angle_alpha   53.20753673
_cell_angle_beta   53.20753673
_cell_angle_gamma   51.48817246
_symmetry_Int_Tables_number   1
_chemical_formula_structural   Hf2P2O9
_chemical_formula_sum   'Hf4 P4 O18'
_cell_volume   334.23521816
_cell_formula_units_Z   2
loop_
 _symmetry_equiv_pos_site_id
 _symmetry_equiv_pos_as_xyz
  1  'x, y, z'
loop_
 _atom_site_type_symbol
 _atom_site_label
 _atom_site_symmetry_multiplicity
 _atom_site_fract_x
 _atom_site_fract_y
 _atom_site_fract_z
 _atom_site_occupancy
  Hf  Hf0  1  0.31601168  0.31601168  0.63514303  1
  Hf  Hf1  1  0.68398832  0.68398832  0.36485697  1
  Hf  Hf2  1  0.05742106  0.05742106  0.09670871  1
  Hf  Hf3  1  0.94257894  0.94257894  0.90329129  1
  P  P4  1  0.40785188  0.40785188  0.83684611  1
  P  P5  1  0.83011562  0.83011562  0.54337967  1
  P  P6  1  0.59214812  0.59214812  0.16315389  1
  P  P7  1  0.16988438  0.16988438  0.45662033  1
  O  O8  1  0.48485057  0.48485057  0.63320704  1
  O  O9  1  0.72648223  0.72648223  0.52547891  1
  O  O10  1  0.26659944  0.26659944  0.90482033  1
  O  O11  1  0.27351777  0.27351777  0.47452109  1
  O  O12  1  0.99454595  0.37513235  0.35707691  1
  O  O13  1  0.37957343  0.75870265  0.10292962  1
  O  O14  1  0.24129735  0.62042657  0.89707038  1
  O  O15  1  0.88544456  0.88544456  0.15687362  1
  O  O16  1  0.00545405  0.62486765  0.64292309  1
  O  O17  1  0.96751259  0.96751259  0.35648347  1
  O  O18  1  0.51514943  0.51514943  0.36679296  1
  O  O19  1  0.73340056  0.73340056  0.09517967  1
  O  O20  1  0.75870265  0.37957343  0.10292962  1
  O  O21  1  0.03248741  0.03248741  0.64351653  1
  O  O22  1  0.62042657  0.24129735  0.89707038  1
  O  O23  1  0.62486765  0.00545405  0.64292309  1
  O  O24  1  0.11455544  0.11455544  0.84312638  1
  O  O25  1  0.37513235  0.99454595  0.35707691  1
