# generated using pymatgen
data_CdI2
_symmetry_space_group_name_H-M   'P 1'
_cell_length_a   4.28739216
_cell_length_b   4.28739206
_cell_length_c   57.69455036
_cell_angle_alpha   90.00000000
_cell_angle_beta   90.00000000
_cell_angle_gamma   119.99999280
_symmetry_Int_Tables_number   1
_chemical_formula_structural   CdI2
_chemical_formula_sum   'Cd8 I16'
_cell_volume   918.44227260
_cell_formula_units_Z   8
loop_
 _symmetry_equiv_pos_site_id
 _symmetry_equiv_pos_as_xyz
  1  'x, y, z'
loop_
 _atom_site_type_symbol
 _atom_site_label
 _atom_site_symmetry_multiplicity
 _atom_site_fract_x
 _atom_site_fract_y
 _atom_site_fract_z
 _atom_site_occupancy
  Cd  Cd0  1  0.00000000  0.00000000  0.78131966  1
  Cd  Cd1  1  0.00000000  -0.00000000  0.40598616  1
  Cd  Cd2  1  0.00000000  -0.00000000  0.90593895  1
  Cd  Cd3  1  0.66666700  0.33333300  0.03159420  1
  Cd  Cd4  1  0.66666700  0.33333300  0.28162930  1
  Cd  Cd5  1  0.00000000  -0.00000000  0.15596831  1
  Cd  Cd6  1  0.66666700  0.33333300  0.65599468  1
  Cd  Cd7  1  0.00000000  0.00000000  0.53155513  1
  I  I8  1  0.33333300  0.66666700  0.81108690  1
  I  I9  1  0.33333300  0.66666700  0.56144321  1
  I  I10  1  0.66666700  0.33333300  0.12629211  1
  I  I11  1  0.00000000  0.00000000  0.25169004  1
  I  I12  1  0.33333300  0.66666700  0.06148800  1
  I  I13  1  0.33333300  0.66666700  0.43570965  1
  I  I14  1  0.66666700  0.33333300  0.50162366  1
  I  I15  1  0.33333300  0.66666700  0.18565593  1
  I  I16  1  0.66666700  0.33333300  0.87623379  1
  I  I17  1  0.66666700  0.33333300  0.75158262  1
  I  I18  1  0.33333300  0.66666700  0.31154053  1
  I  I19  1  0.33333300  0.66666700  0.93568866  1
  I  I20  1  -0.00000000  -0.00000000  0.62626892  1
  I  I21  1  0.66666700  0.33333300  0.37630411  1
  I  I22  1  0.00000000  -0.00000000  0.00167966  1
  I  I23  1  0.33333300  0.66666700  0.68572483  1
