# generated using pymatgen
data_ZnS
_symmetry_space_group_name_H-M   'P 1'
_cell_length_a   3.80915336
_cell_length_b   3.80915303
_cell_length_c   74.75008740
_cell_angle_alpha   90.00000000
_cell_angle_beta   90.00000000
_cell_angle_gamma   120.00000291
_symmetry_Int_Tables_number   1
_chemical_formula_structural   ZnS
_chemical_formula_sum   'Zn24 S24'
_cell_volume   939.28892525
_cell_formula_units_Z   24
loop_
 _symmetry_equiv_pos_site_id
 _symmetry_equiv_pos_as_xyz
  1  'x, y, z'
loop_
 _atom_site_type_symbol
 _atom_site_label
 _atom_site_symmetry_multiplicity
 _atom_site_fract_x
 _atom_site_fract_y
 _atom_site_fract_z
 _atom_site_occupancy
  Zn  Zn0  1  0.66666700  0.33333300  0.58342357  1
  Zn  Zn1  1  0.33333300  0.66666700  0.66671559  1
  Zn  Zn2  1  0.66666700  0.33333300  0.33332197  1
  Zn  Zn3  1  0.33333300  0.66666700  0.29169129  1
  Zn  Zn4  1  0.00000000  0.00000000  0.24994572  1
  Zn  Zn5  1  0.33333300  0.66666700  0.08331622  1
  Zn  Zn6  1  0.33333300  0.66666700  0.20826549  1
  Zn  Zn7  1  -0.00000000  0.00000000  0.54170437  1
  Zn  Zn8  1  0.66666700  0.33333300  0.70829816  1
  Zn  Zn9  1  -0.00000000  -0.00000000  0.12496255  1
  Zn  Zn10  1  0.66666700  0.33333300  0.16665620  1
  Zn  Zn11  1  -0.00000000  -0.00000000  0.83342700  1
  Zn  Zn12  1  0.33333300  0.66666700  0.79168905  1
  Zn  Zn13  1  0.66666700  0.33333300  0.45835035  1
  Zn  Zn14  1  -0.00000000  -0.00000000  0.74993551  1
  Zn  Zn15  1  0.66666700  0.33333300  0.04170023  1
  Zn  Zn16  1  0.33333300  0.66666700  0.41667496  1
  Zn  Zn17  1  0.66666700  0.33333300  0.95830913  1
  Zn  Zn18  1  0.33333300  0.66666700  0.91666316  1
  Zn  Zn19  1  0.00000000  -0.00000000  0.37502338  1
  Zn  Zn20  1  0.66666700  0.33333300  0.87498624  1
  Zn  Zn21  1  0.00000000  -0.00000000  0.62515779  1
  Zn  Zn22  1  0.33333300  0.66666700  0.50009734  1
  Zn  Zn23  1  0.00000000  -0.00000000  0.99996089  1
  S  S24  1  0.66666700  0.33333300  0.98949052  1
  S  S25  1  0.00000000  -0.00000000  0.40625183  1
  S  S26  1  0.66666700  0.33333300  0.61471108  1
  S  S27  1  -0.00000000  -0.00000000  0.65633920  1
  S  S28  1  0.33333300  0.66666700  0.44787935  1
  S  S29  1  0.33333300  0.66666700  0.94790924  1
  S  S30  1  -0.00000000  -0.00000000  0.86461820  1
  S  S31  1  -0.00000000  -0.00000000  0.03124348  1
  S  S32  1  0.33333300  0.66666700  0.82297697  1
  S  S33  1  0.66666700  0.33333300  0.48963134  1
  S  S34  1  0.00000000  -0.00000000  0.57291892  1
  S  S35  1  0.66666700  0.33333300  0.73951054  1
  S  S36  1  0.00000000  -0.00000000  0.28123186  1
  S  S37  1  0.66666700  0.33333300  0.36456063  1
  S  S38  1  0.33333300  0.66666700  0.69790866  1
  S  S39  1  0.66666700  0.33333300  0.90619138  1
  S  S40  1  0.33333300  0.66666700  0.11453086  1
  S  S41  1  0.66666700  0.33333300  0.07290316  1
  S  S42  1  -0.00000000  -0.00000000  0.15620617  1
  S  S43  1  0.33333300  0.66666700  0.23946611  1
  S  S44  1  0.33333300  0.66666700  0.53129506  1
  S  S45  1  0.00000000  0.00000000  0.78117910  1
  S  S46  1  0.33333300  0.66666700  0.32290046  1
  S  S47  1  0.66666700  0.33333300  0.19786570  1
