# generated using pymatgen
data_Zr6NCl15
_symmetry_space_group_name_H-M   'P 1'
_cell_length_a   18.57043095
_cell_length_b   18.57043095
_cell_length_c   18.57043095
_cell_angle_alpha   109.47122063
_cell_angle_beta   109.47122063
_cell_angle_gamma   109.47122063
_symmetry_Int_Tables_number   1
_chemical_formula_structural   Zr6NCl15
_chemical_formula_sum   'Zr48 N8 Cl120'
_cell_volume   4929.96749808
_cell_formula_units_Z   8
loop_
 _symmetry_equiv_pos_site_id
 _symmetry_equiv_pos_as_xyz
  1  'x, y, z'
loop_
 _atom_site_type_symbol
 _atom_site_label
 _atom_site_symmetry_multiplicity
 _atom_site_fract_x
 _atom_site_fract_y
 _atom_site_fract_z
 _atom_site_occupancy
  Zr  Zr0  1  0.59562208  0.98100010  0.95465441  1
  Zr  Zr1  1  0.59562208  0.11462198  0.64096768  1
  Zr  Zr2  1  0.51899990  0.90437792  0.54534559  1
  Zr  Zr3  1  0.09562208  0.45465441  0.48100010  1
  Zr  Zr4  1  0.09562208  0.14096768  0.61462198  1
  Zr  Zr5  1  0.01899990  0.04534559  0.40437792  1
  Zr  Zr6  1  0.64096768  0.54534559  0.52634570  1
  Zr  Zr7  1  0.95465441  0.85903232  0.97365430  1
  Zr  Zr8  1  0.97365430  0.95465441  0.85903232  1
  Zr  Zr9  1  0.85903232  0.38537802  0.90437792  1
  Zr  Zr10  1  0.95465441  0.59562208  0.98100010  1
  Zr  Zr11  1  0.97365430  0.51899990  0.11462198  1
  Zr  Zr12  1  0.14096768  0.02634570  0.04534559  1
  Zr  Zr13  1  0.45465441  0.47365430  0.35903232  1
  Zr  Zr14  1  0.47365430  0.35903232  0.45465441  1
  Zr  Zr15  1  0.35903232  0.40437792  0.88537802  1
  Zr  Zr16  1  0.45465441  0.48100010  0.09562208  1
  Zr  Zr17  1  0.47365430  0.61462198  0.01899990  1
  Zr  Zr18  1  0.11462198  0.97365430  0.51899990  1
  Zr  Zr19  1  0.98100010  0.52634570  0.38537802  1
  Zr  Zr20  1  0.11462198  0.64096768  0.59562208  1
  Zr  Zr21  1  0.61462198  0.01899990  0.47365430  1
  Zr  Zr22  1  0.48100010  0.88537802  0.02634570  1
  Zr  Zr23  1  0.61462198  0.09562208  0.14096768  1
  Zr  Zr24  1  0.38537802  0.90437792  0.85903232  1
  Zr  Zr25  1  0.51899990  0.11462198  0.97365430  1
  Zr  Zr26  1  0.38537802  0.98100010  0.52634570  1
  Zr  Zr27  1  0.88537802  0.35903232  0.40437792  1
  Zr  Zr28  1  0.01899990  0.47365430  0.61462198  1
  Zr  Zr29  1  0.88537802  0.02634570  0.48100010  1
  Zr  Zr30  1  0.52634570  0.38537802  0.98100010  1
  Zr  Zr31  1  0.54534559  0.51899990  0.90437792  1
  Zr  Zr32  1  0.64096768  0.59562208  0.11462198  1
  Zr  Zr33  1  0.52634570  0.64096768  0.54534559  1
  Zr  Zr34  1  0.54534559  0.52634570  0.64096768  1
  Zr  Zr35  1  0.85903232  0.97365430  0.95465441  1
  Zr  Zr36  1  0.02634570  0.48100010  0.88537802  1
  Zr  Zr37  1  0.04534559  0.40437792  0.01899990  1
  Zr  Zr38  1  0.14096768  0.61462198  0.09562208  1
  Zr  Zr39  1  0.02634570  0.04534559  0.14096768  1
  Zr  Zr40  1  0.04534559  0.14096768  0.02634570  1
  Zr  Zr41  1  0.35903232  0.45465441  0.47365430  1
  Zr  Zr42  1  0.98100010  0.95465441  0.59562208  1
  Zr  Zr43  1  0.90437792  0.85903232  0.38537802  1
  Zr  Zr44  1  0.90437792  0.54534559  0.51899990  1
  Zr  Zr45  1  0.48100010  0.09562208  0.45465441  1
  Zr  Zr46  1  0.40437792  0.88537802  0.35903232  1
  Zr  Zr47  1  0.40437792  0.01899990  0.04534559  1
  N  N48  1  0.00000000  0.50000000  0.50000000  1
  N  N49  1  0.00000000  -0.00000000  0.50000000  1
  N  N50  1  0.00000000  0.50000000  0.00000000  1
  N  N51  1  0.00000000  -0.00000000  0.00000000  1
  N  N52  1  0.50000000  0.50000000  0.50000000  1
  N  N53  1  0.50000000  -0.00000000  0.50000000  1
  N  N54  1  0.50000000  0.50000000  0.00000000  1
  N  N55  1  0.50000000  -0.00000000  0.00000000  1
  Cl  Cl56  1  0.05195830  0.44804170  0.75000000  1
  Cl  Cl57  1  0.73152197  0.08875363  0.10391914  1
  Cl  Cl58  1  0.41124637  0.76847803  0.39608086  1
  Cl  Cl59  1  0.73152197  0.14276733  0.62760282  1
  Cl  Cl60  1  0.55195830  0.25000000  0.94804170  1
  Cl  Cl61  1  0.23152197  0.60391914  0.58875363  1
  Cl  Cl62  1  0.91124637  0.89608086  0.26847803  1
  Cl  Cl63  1  0.23152197  0.12760282  0.64276733  1
  Cl  Cl64  1  0.30195830  0.75000000  0.19804170  1
  Cl  Cl65  1  0.62760282  0.39608086  0.48483449  1
  Cl  Cl66  1  0.01516551  0.10391914  0.87239718  1
  Cl  Cl67  1  0.39484773  0.02122033  0.81578076  1
  Cl  Cl68  1  0.10391914  0.87239718  0.01516551  1
  Cl  Cl69  1  0.80195830  0.69804170  0.25000000  1
  Cl  Cl70  1  0.87239718  0.35723267  0.76847803  1
  Cl  Cl71  1  0.10391914  0.73152197  0.08875363  1
  Cl  Cl72  1  0.01516551  0.41124637  0.14276733  1
  Cl  Cl73  1  0.12760282  0.98483449  0.89608086  1
  Cl  Cl74  1  0.51516551  0.37239718  0.60391914  1
  Cl  Cl75  1  0.47877967  0.10515227  0.68421924  1
  Cl  Cl76  1  0.39484773  0.87362740  0.57906696  1
  Cl  Cl77  1  0.05195830  0.10391760  0.30195830  1
  Cl  Cl78  1  0.47877967  0.87362740  0.79456044  1
  Cl  Cl79  1  0.89484773  0.31578076  0.52122033  1
  Cl  Cl80  1  0.62637260  0.10515227  0.92093304  1
  Cl  Cl81  1  0.60391914  0.51516551  0.37239718  1
  Cl  Cl82  1  0.10391760  0.30195830  0.05195830  1
  Cl  Cl83  1  0.37239718  0.26847803  0.85723267  1
  Cl  Cl84  1  0.51516551  0.64276733  0.91124637  1
  Cl  Cl85  1  0.60391914  0.58875363  0.23152197  1
  Cl  Cl86  1  0.14276733  0.01516551  0.41124637  1
  Cl  Cl87  1  0.14276733  0.62760282  0.73152197  1
  Cl  Cl88  1  0.97877967  0.18421924  0.60515227  1
  Cl  Cl89  1  0.62637260  0.02122033  0.70543956  1
  Cl  Cl90  1  0.89484773  0.07906696  0.37362740  1
  Cl  Cl91  1  0.55195830  0.80195830  0.60391760  1
  Cl  Cl92  1  0.97877967  0.29456044  0.37362740  1
  Cl  Cl93  1  0.57906696  0.68421924  0.70543956  1
  Cl  Cl94  1  0.12637260  0.42093304  0.60515227  1
  Cl  Cl95  1  0.08875363  0.48483449  0.35723267  1
  Cl  Cl96  1  0.60391760  0.55195830  0.80195830  1
  Cl  Cl97  1  0.57906696  0.39484773  0.87362740  1
  Cl  Cl98  1  0.70543956  0.62637260  0.02122033  1
  Cl  Cl99  1  0.68421924  0.47877967  0.10515227  1
  Cl  Cl100  1  0.64276733  0.91124637  0.51516551  1
  Cl  Cl101  1  0.64276733  0.23152197  0.12760282  1
  Cl  Cl102  1  0.79456044  0.81578076  0.92093304  1
  Cl  Cl103  1  0.12637260  0.20543956  0.52122033  1
  Cl  Cl104  1  0.81578076  0.92093304  0.79456044  1
  Cl  Cl105  1  0.19804170  0.39608240  0.44804170  1
  Cl  Cl106  1  0.75000000  0.05195830  0.44804170  1
  Cl  Cl107  1  0.75000000  0.19804170  0.30195830  1
  Cl  Cl108  1  0.30195830  0.05195830  0.10391760  1
  Cl  Cl109  1  0.68421924  0.70543956  0.57906696  1
  Cl  Cl110  1  0.07906696  0.20543956  0.18421924  1
  Cl  Cl111  1  0.70543956  0.57906696  0.68421924  1
  Cl  Cl112  1  0.58875363  0.85723267  0.98483449  1
  Cl  Cl113  1  0.07906696  0.37362740  0.89484773  1
  Cl  Cl114  1  0.18421924  0.60515227  0.97877967  1
  Cl  Cl115  1  0.20543956  0.52122033  0.12637260  1
  Cl  Cl116  1  0.79456044  0.47877967  0.87362740  1
  Cl  Cl117  1  0.81578076  0.39484773  0.02122033  1
  Cl  Cl118  1  0.92093304  0.62637260  0.10515227  1
  Cl  Cl119  1  0.41124637  0.14276733  0.01516551  1
  Cl  Cl120  1  0.29456044  0.42093304  0.31578076  1
  Cl  Cl121  1  0.92093304  0.79456044  0.81578076  1
  Cl  Cl122  1  0.31578076  0.29456044  0.42093304  1
  Cl  Cl123  1  0.69804170  0.94804170  0.89608240  1
  Cl  Cl124  1  0.25000000  0.80195830  0.69804170  1
  Cl  Cl125  1  0.25000000  0.94804170  0.55195830  1
  Cl  Cl126  1  0.80195830  0.60391760  0.55195830  1
  Cl  Cl127  1  0.18421924  0.07906696  0.20543956  1
  Cl  Cl128  1  0.87362740  0.79456044  0.47877967  1
  Cl  Cl129  1  0.20543956  0.18421924  0.07906696  1
  Cl  Cl130  1  0.35723267  0.76847803  0.87239718  1
  Cl  Cl131  1  0.35723267  0.08875363  0.48483449  1
  Cl  Cl132  1  0.31578076  0.52122033  0.89484773  1
  Cl  Cl133  1  0.29456044  0.37362740  0.97877967  1
  Cl  Cl134  1  0.42093304  0.60515227  0.12637260  1
  Cl  Cl135  1  0.39608240  0.44804170  0.19804170  1
  Cl  Cl136  1  0.91124637  0.51516551  0.64276733  1
  Cl  Cl137  1  0.87362740  0.57906696  0.39484773  1
  Cl  Cl138  1  0.42093304  0.31578076  0.29456044  1
  Cl  Cl139  1  0.02122033  0.70543956  0.62637260  1
  Cl  Cl140  1  0.44804170  0.19804170  0.39608240  1
  Cl  Cl141  1  0.10515227  0.92093304  0.62637260  1
  Cl  Cl142  1  0.37362740  0.97877967  0.29456044  1
  Cl  Cl143  1  0.02122033  0.81578076  0.39484773  1
  Cl  Cl144  1  0.85723267  0.37239718  0.26847803  1
  Cl  Cl145  1  0.85723267  0.98483449  0.58875363  1
  Cl  Cl146  1  0.39608086  0.41124637  0.76847803  1
  Cl  Cl147  1  0.48483449  0.35723267  0.08875363  1
  Cl  Cl148  1  0.62760282  0.73152197  0.14276733  1
  Cl  Cl149  1  0.89608240  0.69804170  0.94804170  1
  Cl  Cl150  1  0.39608086  0.48483449  0.62760282  1
  Cl  Cl151  1  0.37362740  0.89484773  0.07906696  1
  Cl  Cl152  1  0.10515227  0.68421924  0.47877967  1
  Cl  Cl153  1  0.52122033  0.12637260  0.20543956  1
  Cl  Cl154  1  0.94804170  0.89608240  0.69804170  1
  Cl  Cl155  1  0.60515227  0.12637260  0.42093304  1
  Cl  Cl156  1  0.52122033  0.89484773  0.31578076  1
  Cl  Cl157  1  0.48483449  0.62760282  0.39608086  1
  Cl  Cl158  1  0.87239718  0.01516551  0.10391914  1
  Cl  Cl159  1  0.98483449  0.58875363  0.85723267  1
  Cl  Cl160  1  0.89608086  0.26847803  0.91124637  1
  Cl  Cl161  1  0.12760282  0.64276733  0.23152197  1
  Cl  Cl162  1  0.19804170  0.30195830  0.75000000  1
  Cl  Cl163  1  0.89608086  0.12760282  0.98483449  1
  Cl  Cl164  1  0.60515227  0.97877967  0.18421924  1
  Cl  Cl165  1  0.98483449  0.89608086  0.12760282  1
  Cl  Cl166  1  0.37239718  0.60391914  0.51516551  1
  Cl  Cl167  1  0.69804170  0.25000000  0.80195830  1
  Cl  Cl168  1  0.76847803  0.87239718  0.35723267  1
  Cl  Cl169  1  0.08875363  0.10391914  0.73152197  1
  Cl  Cl170  1  0.76847803  0.39608086  0.41124637  1
  Cl  Cl171  1  0.44804170  0.75000000  0.05195830  1
  Cl  Cl172  1  0.26847803  0.85723267  0.37239718  1
  Cl  Cl173  1  0.58875363  0.23152197  0.60391914  1
  Cl  Cl174  1  0.26847803  0.91124637  0.89608086  1
  Cl  Cl175  1  0.94804170  0.55195830  0.25000000  1
