# generated using pymatgen
data_Sr2CuBrO2
_symmetry_space_group_name_H-M   'P 1'
_cell_length_a   9.72821553
_cell_length_b   9.72821553
_cell_length_c   9.72821573
_cell_angle_alpha   24.01418199
_cell_angle_beta   24.01418199
_cell_angle_gamma   24.01418440
_symmetry_Int_Tables_number   1
_chemical_formula_structural   Sr2CuBrO2
_chemical_formula_sum   'Sr2 Cu1 Br1 O2'
_cell_volume   133.98229245
_cell_formula_units_Z   1
loop_
 _symmetry_equiv_pos_site_id
 _symmetry_equiv_pos_as_xyz
  1  'x, y, z'
loop_
 _atom_site_type_symbol
 _atom_site_label
 _atom_site_symmetry_multiplicity
 _atom_site_fract_x
 _atom_site_fract_y
 _atom_site_fract_z
 _atom_site_occupancy
  Sr  Sr0  1  0.25283633  0.25283633  0.25283633  1
  Sr  Sr1  1  0.74716367  0.74716367  0.74716367  1
  Cu  Cu2  1  0.50000000  0.50000000  0.50000000  1
  Br  Br3  1  0.00000000  0.00000000  -0.00000000  1
  O  O4  1  0.43652211  0.43652211  0.43652211  1
  O  O5  1  0.56347789  0.56347789  0.56347789  1
