# generated using pymatgen
data_RbNa3SnO4
_symmetry_space_group_name_H-M   'P 1'
_cell_length_a   11.73409838
_cell_length_b   11.73409838
_cell_length_c   11.73409838
_cell_angle_alpha   114.32771289
_cell_angle_beta   114.32771289
_cell_angle_gamma   100.14207942
_symmetry_Int_Tables_number   1
_chemical_formula_structural   RbNa3SnO4
_chemical_formula_sum   'Rb8 Na24 Sn8 O32'
_cell_volume   1219.59207180
_cell_formula_units_Z   8
loop_
 _symmetry_equiv_pos_site_id
 _symmetry_equiv_pos_as_xyz
  1  'x, y, z'
loop_
 _atom_site_type_symbol
 _atom_site_label
 _atom_site_symmetry_multiplicity
 _atom_site_fract_x
 _atom_site_fract_y
 _atom_site_fract_z
 _atom_site_occupancy
  Rb  Rb0  1  0.94596920  0.93921591  0.46667851  1
  Rb  Rb1  1  0.22929069  0.19596920  0.50675329  1
  Rb  Rb2  1  0.47253740  0.47929069  0.53332149  1
  Rb  Rb3  1  0.06078409  0.52746260  0.00675329  1
  Rb  Rb4  1  0.80403080  0.31078409  0.03332149  1
  Rb  Rb5  1  0.52070931  0.05403080  0.99324671  1
  Rb  Rb6  1  0.27746260  0.77070931  0.96667851  1
  Rb  Rb7  1  0.68921591  0.72253740  0.49324671  1
  Na  Na8  1  0.02847158  0.65812539  0.30828854  1
  Na  Na9  1  0.66789511  0.80161908  0.85968965  1
  Na  Na10  1  0.55820546  0.91789511  0.36627603  1
  Na  Na11  1  0.40812539  0.59983685  0.12965281  1
  Na  Na12  1  0.80807057  0.44179454  0.35968965  1
  Na  Na13  1  0.83829644  0.15953082  0.36222358  1
  Na  Na14  1  0.40016315  0.52981697  0.80828854  1
  Na  Na15  1  0.91170356  0.09046918  0.13777642  1
  Na  Na16  1  0.27981697  0.97152842  0.62965281  1
  Na  Na17  1  0.19179454  0.33210489  0.13372397  1
  Na  Na18  1  0.08210489  0.44838092  0.64031035  1
  Na  Na19  1  0.84046918  0.20269276  0.67876562  1
  Na  Na20  1  0.90953082  0.04730724  0.82123438  1
  Na  Na21  1  0.79730724  0.47607286  0.63777642  1
  Na  Na22  1  0.94192943  0.80820546  0.14031035  1
  Na  Na23  1  0.95269276  0.77392714  0.86222358  1
  Na  Na24  1  0.47018303  0.27847158  0.87034719  1
  Na  Na25  1  0.19838092  0.05807057  0.86627603  1
  Na  Na26  1  0.55161908  0.19192943  0.63372397  1
  Na  Na27  1  0.72152842  0.59187461  0.19171146  1
  Na  Na28  1  0.34187461  0.65016315  0.37034719  1
  Na  Na29  1  0.34983685  0.72018303  0.69171146  1
  Na  Na30  1  0.52392714  0.16170356  0.32123438  1
  Na  Na31  1  0.22607286  0.08829644  0.17876562  1
  Sn  Sn32  1  0.64250248  0.85529400  0.13891628  1
  Sn  Sn33  1  0.25358620  0.89250248  0.28720948  1
  Sn  Sn34  1  0.71637772  0.50358620  0.86108372  1
  Sn  Sn35  1  0.14470600  0.28362228  0.78720948  1
  Sn  Sn36  1  0.10749752  0.39470600  0.36108372  1
  Sn  Sn37  1  0.60529400  0.96637772  0.71279052  1
  Sn  Sn38  1  0.03362228  0.74641380  0.63891628  1
  Sn  Sn39  1  0.49641380  0.35749752  0.21279052  1
  O  O40  1  0.83111866  0.94176080  0.19070650  1
  O  O41  1  0.60126389  0.37220043  0.12061161  1
  O  O42  1  0.23713286  0.16129517  0.74630421  1
  O  O43  1  0.33500905  0.75917136  0.24630421  1
  O  O44  1  0.35958784  0.16888134  0.11064314  1
  O  O45  1  0.05823920  0.24894470  0.88935686  1
  O  O46  1  0.83870483  0.58500905  0.07583769  1
  O  O47  1  0.51934772  0.39873611  0.77093754  1
  O  O48  1  0.69176080  0.00105530  0.61064314  1
  O  O49  1  0.14873611  0.87779957  0.37938839  1
  O  O50  1  0.76420935  0.01957561  0.90493533  1
  O  O51  1  0.49841018  0.76934772  0.62061161  1
  O  O52  1  0.25158982  0.48065228  0.87938839  1
  O  O53  1  0.99894470  0.60958784  0.69070650  1
  O  O54  1  0.24082864  0.48713286  0.57583769  1
  O  O55  1  0.76957561  0.36464028  0.75536627  1
  O  O56  1  0.75105530  0.64041216  0.80929350  1
  O  O57  1  0.98042439  0.88535972  0.74463373  1
  O  O58  1  0.11464028  0.85927401  0.09506467  1
  O  O59  1  0.91888134  0.30823920  0.30929350  1
  O  O60  1  0.91129517  0.66499095  0.42416231  1
  O  O61  1  0.63535972  0.39072599  0.40493533  1
  O  O62  1  0.60927401  0.01420935  0.24463373  1
  O  O63  1  0.14072599  0.23579065  0.25536627  1
  O  O64  1  0.23065228  0.85126389  0.72906246  1
  O  O65  1  0.62779957  0.74841018  0.22906246  1
  O  O66  1  0.50917136  0.76286714  0.92416231  1
  O  O67  1  0.98579065  0.23042439  0.59506467  1
  O  O68  1  0.41499095  0.49082864  0.25369579  1
  O  O69  1  0.12220043  0.50158982  0.27093754  1
  O  O70  1  0.39041216  0.08111866  0.38935686  1
  O  O71  1  0.51286714  0.08870483  0.75369579  1
