# generated using pymatgen
data_Na5Li(PO4)2
_symmetry_space_group_name_H-M   'P 1'
_cell_length_a   10.25525100
_cell_length_b   10.26950300
_cell_length_c   14.93637100
_cell_angle_alpha   90.00000000
_cell_angle_beta   90.00000000
_cell_angle_gamma   90.00000000
_symmetry_Int_Tables_number   1
_chemical_formula_structural   Na5Li(PO4)2
_chemical_formula_sum   'Na40 Li8 P16 O64'
_cell_volume   1573.04379083
_cell_formula_units_Z   8
loop_
 _symmetry_equiv_pos_site_id
 _symmetry_equiv_pos_as_xyz
  1  'x, y, z'
loop_
 _atom_site_type_symbol
 _atom_site_label
 _atom_site_symmetry_multiplicity
 _atom_site_fract_x
 _atom_site_fract_y
 _atom_site_fract_z
 _atom_site_occupancy
  Na  Na0  1  0.24301000  0.74323400  0.60526000  1
  Na  Na1  1  0.51549300  0.49029000  0.88666000  1
  Na  Na2  1  0.75699000  0.25676600  0.39474000  1
  Na  Na3  1  0.93415300  0.76708500  0.25000000  1
  Na  Na4  1  0.01549300  0.00971000  0.11334000  1
  Na  Na5  1  0.98450700  0.99029000  0.88666000  1
  Na  Na6  1  0.22497400  0.75296100  0.13687900  1
  Na  Na7  1  0.72200200  0.99736700  0.00200700  1
  Na  Na8  1  0.22497400  0.75296100  0.36312100  1
  Na  Na9  1  0.48450700  0.50971000  0.38666000  1
  Na  Na10  1  0.72200200  0.99736700  0.49799300  1
  Na  Na11  1  0.77799800  0.49736700  0.00200700  1
  Na  Na12  1  0.48407900  0.21315400  0.75000000  1
  Na  Na13  1  0.56584700  0.26708500  0.25000000  1
  Na  Na14  1  0.74301000  0.75676600  0.10526000  1
  Na  Na15  1  0.77799800  0.49736700  0.49799300  1
  Na  Na16  1  0.48450700  0.50971000  0.11334000  1
  Na  Na17  1  0.51549300  0.49029000  0.61334000  1
  Na  Na18  1  0.06584700  0.23291500  0.75000000  1
  Na  Na19  1  0.74301000  0.75676600  0.39474000  1
  Na  Na20  1  0.01592100  0.71315400  0.75000000  1
  Na  Na21  1  0.24301000  0.74323400  0.89474000  1
  Na  Na22  1  0.98407900  0.28684600  0.25000000  1
  Na  Na23  1  0.25699000  0.24323400  0.60526000  1
  Na  Na24  1  0.22200200  0.50263300  0.99799300  1
  Na  Na25  1  0.77502600  0.24703900  0.86312100  1
  Na  Na26  1  0.27502600  0.25296100  0.13687900  1
  Na  Na27  1  0.27502600  0.25296100  0.36312100  1
  Na  Na28  1  0.01549300  0.00971000  0.38666000  1
  Na  Na29  1  0.43415300  0.73291500  0.75000000  1
  Na  Na30  1  0.27799800  0.00263300  0.50200700  1
  Na  Na31  1  0.72497400  0.74703900  0.63687900  1
  Na  Na32  1  0.51592100  0.78684600  0.25000000  1
  Na  Na33  1  0.75699000  0.25676600  0.10526000  1
  Na  Na34  1  0.98450700  0.99029000  0.61334000  1
  Na  Na35  1  0.72497400  0.74703900  0.86312100  1
  Na  Na36  1  0.27799800  0.00263300  0.99799300  1
  Na  Na37  1  0.22200200  0.50263300  0.50200700  1
  Na  Na38  1  0.77502600  0.24703900  0.63687900  1
  Na  Na39  1  0.25699000  0.24323400  0.89474000  1
  Li  Li40  1  0.99600200  0.48957300  0.63984800  1
  Li  Li41  1  0.50399800  0.98957300  0.63984800  1
  Li  Li42  1  0.50399800  0.98957300  0.86015200  1
  Li  Li43  1  0.99600200  0.48957300  0.86015200  1
  Li  Li44  1  0.49600200  0.01042700  0.36015200  1
  Li  Li45  1  0.49600200  0.01042700  0.13984800  1
  Li  Li46  1  0.00399800  0.51042700  0.36015200  1
  Li  Li47  1  0.00399800  0.51042700  0.13984800  1
  P  P48  1  0.72511700  0.49721200  0.75000000  1
  P  P49  1  0.49450700  0.75143600  0.50070800  1
  P  P50  1  0.49450700  0.75143600  0.99929200  1
  P  P51  1  0.99450700  0.74856400  0.49929200  1
  P  P52  1  0.27488300  0.50278800  0.25000000  1
  P  P53  1  0.77488300  0.99721200  0.75000000  1
  P  P54  1  0.75230700  0.02053800  0.25000000  1
  P  P55  1  0.25230700  0.47946200  0.75000000  1
  P  P56  1  0.24769300  0.97946200  0.75000000  1
  P  P57  1  0.00549300  0.25143600  0.99929200  1
  P  P58  1  0.50549300  0.24856400  0.00070800  1
  P  P59  1  0.74769300  0.52053800  0.25000000  1
  P  P60  1  0.22511700  0.00278800  0.25000000  1
  P  P61  1  0.00549300  0.25143600  0.50070800  1
  P  P62  1  0.50549300  0.24856400  0.49929200  1
  P  P63  1  0.99450700  0.74856400  0.00070800  1
  O  O64  1  0.13110900  0.18023600  0.03066000  1
  O  O65  1  0.86889100  0.81976400  0.53066000  1
  O  O66  1  0.18999900  0.49289300  0.33626300  1
  O  O67  1  0.68999900  0.00710700  0.66373700  1
  O  O68  1  0.18999900  0.49289300  0.16373700  1
  O  O69  1  0.39405800  0.35159000  0.01109700  1
  O  O70  1  0.35137400  0.63440500  0.25000000  1
  O  O71  1  0.46666000  0.81834200  0.59262800  1
  O  O72  1  0.81022800  0.95698700  0.16421300  1
  O  O73  1  0.36889100  0.68023600  0.03066000  1
  O  O74  1  0.62458300  0.61195500  0.75000000  1
  O  O75  1  0.89405800  0.14841000  0.51109700  1
  O  O76  1  0.81000100  0.50710700  0.66373700  1
  O  O77  1  0.89989200  0.50306300  0.25000000  1
  O  O78  1  0.89405800  0.14841000  0.98890300  1
  O  O79  1  0.31000100  0.99289300  0.33626300  1
  O  O80  1  0.96666000  0.68165800  0.40737200  1
  O  O81  1  0.12458300  0.88804500  0.25000000  1
  O  O82  1  0.87541700  0.11195500  0.75000000  1
  O  O83  1  0.46666000  0.81834200  0.90737200  1
  O  O84  1  0.14862600  0.13440500  0.25000000  1
  O  O85  1  0.37541700  0.38804500  0.25000000  1
  O  O86  1  0.68977200  0.45698700  0.16421300  1
  O  O87  1  0.85137400  0.86559500  0.75000000  1
  O  O88  1  0.68999900  0.00710700  0.83626300  1
  O  O89  1  0.54031400  0.85548300  0.43126600  1
  O  O90  1  0.86889100  0.81976400  0.96934000  1
  O  O91  1  0.71553300  0.66986100  0.25000000  1
  O  O92  1  0.81000100  0.50710700  0.83626300  1
  O  O93  1  0.64862600  0.36559500  0.75000000  1
  O  O94  1  0.53334000  0.18165800  0.40737200  1
  O  O95  1  0.95968600  0.35548300  0.43126600  1
  O  O96  1  0.96666000  0.68165800  0.09262800  1
  O  O97  1  0.60594200  0.64841000  0.98890300  1
  O  O98  1  0.04031400  0.64451700  0.56873400  1
  O  O99  1  0.39405800  0.35159000  0.48890300  1
  O  O100  1  0.10594200  0.85159000  0.01109700  1
  O  O101  1  0.03334000  0.31834200  0.59262800  1
  O  O102  1  0.60010800  0.00306300  0.25000000  1
  O  O103  1  0.45968600  0.14451700  0.93126600  1
  O  O104  1  0.39989200  0.99693700  0.75000000  1
  O  O105  1  0.18977200  0.04301300  0.83578700  1
  O  O106  1  0.31022800  0.54301300  0.66421300  1
  O  O107  1  0.63110900  0.31976400  0.96934000  1
  O  O108  1  0.53334000  0.18165800  0.09262800  1
  O  O109  1  0.95968600  0.35548300  0.06873400  1
  O  O110  1  0.60594200  0.64841000  0.51109700  1
  O  O111  1  0.28446700  0.33013900  0.75000000  1
  O  O112  1  0.78446700  0.16986100  0.25000000  1
  O  O113  1  0.63110900  0.31976400  0.53066000  1
  O  O114  1  0.10010800  0.49693700  0.75000000  1
  O  O115  1  0.31022800  0.54301300  0.83578700  1
  O  O116  1  0.31000100  0.99289300  0.16373700  1
  O  O117  1  0.18977200  0.04301300  0.66421300  1
  O  O118  1  0.54031400  0.85548300  0.06873400  1
  O  O119  1  0.45968600  0.14451700  0.56873400  1
  O  O120  1  0.81022800  0.95698700  0.33578700  1
  O  O121  1  0.03334000  0.31834200  0.90737200  1
  O  O122  1  0.21553300  0.83013900  0.75000000  1
  O  O123  1  0.13110900  0.18023600  0.46934000  1
  O  O124  1  0.36889100  0.68023600  0.46934000  1
  O  O125  1  0.04031400  0.64451700  0.93126600  1
  O  O126  1  0.68977200  0.45698700  0.33578700  1
  O  O127  1  0.10594200  0.85159000  0.48890300  1
