# generated using pymatgen
data_NaInAs2O7
_symmetry_space_group_name_H-M   'P 1'
_cell_length_a   6.75991460
_cell_length_b   6.75991460
_cell_length_c   13.95474742
_cell_angle_alpha   74.67441682
_cell_angle_beta   74.67441682
_cell_angle_gamma   80.39754524
_symmetry_Int_Tables_number   1
_chemical_formula_structural   NaInAs2O7
_chemical_formula_sum   'Na4 In4 As8 O28'
_cell_volume   589.90506614
_cell_formula_units_Z   4
loop_
 _symmetry_equiv_pos_site_id
 _symmetry_equiv_pos_as_xyz
  1  'x, y, z'
loop_
 _atom_site_type_symbol
 _atom_site_label
 _atom_site_symmetry_multiplicity
 _atom_site_fract_x
 _atom_site_fract_y
 _atom_site_fract_z
 _atom_site_occupancy
  Na  Na0  1  0.76334559  0.04114284  0.12158000  1
  Na  Na1  1  0.23665441  0.95885716  0.87842000  1
  Na  Na2  1  0.95885716  0.23665441  0.37842000  1
  Na  Na3  1  0.04114284  0.76334559  0.62158000  1
  In  In4  1  0.87289053  0.40384847  0.85999414  1
  In  In5  1  0.40384847  0.87289053  0.35999414  1
  In  In6  1  0.59615153  0.12710947  0.64000586  1
  In  In7  1  0.12710947  0.59615153  0.14000586  1
  As  As8  1  0.57957600  0.66576913  0.57701193  1
  As  As9  1  0.66576913  0.57957600  0.07701193  1
  As  As10  1  0.33423087  0.42042400  0.92298807  1
  As  As11  1  0.90891942  0.75346072  0.36582454  1
  As  As12  1  0.09108058  0.24653928  0.63417546  1
  As  As13  1  0.75346072  0.90891942  0.86582454  1
  As  As14  1  0.24653928  0.09108058  0.13417546  1
  As  As15  1  0.42042400  0.33423087  0.42298807  1
  O  O16  1  0.06908833  0.88319799  0.39488165  1
  O  O17  1  0.03305549  0.57516475  0.30134910  1
  O  O18  1  0.93091167  0.11680201  0.60511835  1
  O  O19  1  0.79673795  0.38692963  0.02206847  1
  O  O20  1  0.96694451  0.42483525  0.69865090  1
  O  O21  1  0.07890473  0.27044603  0.18502306  1
  O  O22  1  0.32226878  0.19025073  0.36952370  1
  O  O23  1  0.57516475  0.03305549  0.80134910  1
  O  O24  1  0.59381329  0.78904804  0.98083595  1
  O  O25  1  0.20326205  0.61307037  0.97793153  1
  O  O26  1  0.92109527  0.72955397  0.81497694  1
  O  O27  1  0.21095196  0.40618671  0.51916405  1
  O  O28  1  0.40618671  0.21095196  0.01916405  1
  O  O29  1  0.88319799  0.06908833  0.89488165  1
  O  O30  1  0.61307037  0.20326205  0.47793153  1
  O  O31  1  0.80974927  0.67773122  0.13047630  1
  O  O32  1  0.67773122  0.80974927  0.63047630  1
  O  O33  1  0.51112158  0.43925300  0.65081459  1
  O  O34  1  0.43925300  0.51112158  0.15081459  1
  O  O35  1  0.42483525  0.96694451  0.19865090  1
  O  O36  1  0.72955397  0.92109527  0.31497694  1
  O  O37  1  0.27044603  0.07890473  0.68502306  1
  O  O38  1  0.78904804  0.59381329  0.48083595  1
  O  O39  1  0.19025073  0.32226878  0.86952370  1
  O  O40  1  0.56074700  0.48887842  0.84918541  1
  O  O41  1  0.38692963  0.79673795  0.52206847  1
  O  O42  1  0.48887842  0.56074700  0.34918541  1
  O  O43  1  0.11680201  0.93091167  0.10511835  1
