# generated using pymatgen
data_SbICl8
_symmetry_space_group_name_H-M   'P 1'
_cell_length_a   7.13340617
_cell_length_b   7.13340617
_cell_length_c   24.26681464
_cell_angle_alpha   90.00000000
_cell_angle_beta   90.00000000
_cell_angle_gamma   90.00000000
_symmetry_Int_Tables_number   1
_chemical_formula_structural   SbICl8
_chemical_formula_sum   'Sb4 I4 Cl32'
_cell_volume   1234.82859805
_cell_formula_units_Z   4
loop_
 _symmetry_equiv_pos_site_id
 _symmetry_equiv_pos_as_xyz
  1  'x, y, z'
loop_
 _atom_site_type_symbol
 _atom_site_label
 _atom_site_symmetry_multiplicity
 _atom_site_fract_x
 _atom_site_fract_y
 _atom_site_fract_z
 _atom_site_occupancy
  Sb  Sb0  1  0.76718214  0.00322999  0.50131590  1
  Sb  Sb1  1  0.00322999  0.23281786  0.25131590  1
  Sb  Sb2  1  0.23281786  0.99677001  0.00131590  1
  Sb  Sb3  1  0.99677001  0.76718214  0.75131590  1
  I  I4  1  0.14287739  0.75995319  0.37153957  1
  I  I5  1  0.24004681  0.14287739  0.62153957  1
  I  I6  1  0.85712261  0.24004681  0.87153957  1
  I  I7  1  0.75995319  0.85712261  0.12153957  1
  Cl  Cl8  1  0.24062193  0.26343875  0.31771059  1
  Cl  Cl9  1  0.89683666  0.93423438  0.29460148  1
  Cl  Cl10  1  0.59933243  0.22391370  0.81188858  1
  Cl  Cl11  1  0.08248253  0.50933041  0.20420620  1
  Cl  Cl12  1  0.77608630  0.59933243  0.06188858  1
  Cl  Cl13  1  0.82133627  0.73305838  0.43644656  1
  Cl  Cl14  1  0.10316334  0.06576562  0.79460148  1
  Cl  Cl15  1  0.80875307  0.95015323  0.69260112  1
  Cl  Cl16  1  0.73305838  0.17866373  0.18644656  1
  Cl  Cl17  1  0.50933041  0.91751747  0.95420620  1
  Cl  Cl18  1  0.41338755  0.30533765  0.68800217  1
  Cl  Cl19  1  0.58661245  0.69466235  0.18800217  1
  Cl  Cl20  1  0.17866373  0.26694162  0.93644656  1
  Cl  Cl21  1  0.40066757  0.77608630  0.31188858  1
  Cl  Cl22  1  0.95015323  0.19124693  0.44260112  1
  Cl  Cl23  1  0.75937807  0.73656125  0.81771059  1
  Cl  Cl24  1  0.06576562  0.89683666  0.54460148  1
  Cl  Cl25  1  0.93423438  0.10316334  0.04460148  1
  Cl  Cl26  1  0.22019770  0.61025643  0.80618783  1
  Cl  Cl27  1  0.22391370  0.40066757  0.56188858  1
  Cl  Cl28  1  0.26694162  0.82133627  0.68644656  1
  Cl  Cl29  1  0.19124693  0.04984677  0.19260112  1
  Cl  Cl30  1  0.61025643  0.77980230  0.55618783  1
  Cl  Cl31  1  0.73656125  0.24062193  0.56771059  1
  Cl  Cl32  1  0.91751747  0.49066959  0.70420620  1
  Cl  Cl33  1  0.38974357  0.22019770  0.05618783  1
  Cl  Cl34  1  0.30533765  0.58661245  0.43800217  1
  Cl  Cl35  1  0.26343875  0.75937807  0.06771059  1
  Cl  Cl36  1  0.69466235  0.41338755  0.93800217  1
  Cl  Cl37  1  0.77980230  0.38974357  0.30618783  1
  Cl  Cl38  1  0.49066959  0.08248253  0.45420620  1
  Cl  Cl39  1  0.04984677  0.80875307  0.94260112  1
