# generated using pymatgen
data_Pr4(GeS4)3
_symmetry_space_group_name_H-M   'P 1'
_cell_length_a   11.57059899
_cell_length_b   11.57059899
_cell_length_c   11.57059867
_cell_angle_alpha   114.79348255
_cell_angle_beta   114.79348255
_cell_angle_gamma   114.79348590
_symmetry_Int_Tables_number   1
_chemical_formula_structural   Pr4(GeS4)3
_chemical_formula_sum   'Pr8 Ge6 S24'
_cell_volume   883.03308503
_cell_formula_units_Z   2
loop_
 _symmetry_equiv_pos_site_id
 _symmetry_equiv_pos_as_xyz
  1  'x, y, z'
loop_
 _atom_site_type_symbol
 _atom_site_label
 _atom_site_symmetry_multiplicity
 _atom_site_fract_x
 _atom_site_fract_y
 _atom_site_fract_z
 _atom_site_occupancy
  Pr  Pr0  1  0.99544713  0.99544713  0.99544713  1
  Pr  Pr1  1  0.49544713  0.49544713  0.49544713  1
  Pr  Pr2  1  0.43212096  0.20818711  0.97112225  1
  Pr  Pr3  1  0.20818711  0.97112225  0.43212096  1
  Pr  Pr4  1  0.97112225  0.43212096  0.20818711  1
  Pr  Pr5  1  0.70818711  0.93212096  0.47112225  1
  Pr  Pr6  1  0.93212096  0.47112225  0.70818711  1
  Pr  Pr7  1  0.47112225  0.70818711  0.93212096  1
  Ge  Ge8  1  0.14002821  0.35245246  0.96618293  1
  Ge  Ge9  1  0.35245246  0.96618293  0.14002821  1
  Ge  Ge10  1  0.96618293  0.14002821  0.35245246  1
  Ge  Ge11  1  0.85245246  0.64002821  0.46618293  1
  Ge  Ge12  1  0.64002821  0.46618293  0.85245246  1
  Ge  Ge13  1  0.46618293  0.85245246  0.64002821  1
  S  S14  1  0.38458076  0.31216139  0.77955214  1
  S  S15  1  0.31216139  0.77955214  0.38458076  1
  S  S16  1  0.77955214  0.38458076  0.31216139  1
  S  S17  1  0.81216139  0.88458076  0.27955214  1
  S  S18  1  0.88458076  0.27955214  0.81216139  1
  S  S19  1  0.27955214  0.81216139  0.88458076  1
  S  S20  1  0.18319654  0.36953870  0.18343090  1
  S  S21  1  0.36953870  0.18343090  0.18319654  1
  S  S22  1  0.18343090  0.18319654  0.36953870  1
  S  S23  1  0.86953870  0.68319654  0.68343090  1
  S  S24  1  0.68319654  0.68343090  0.86953870  1
  S  S25  1  0.68343090  0.86953870  0.68319654  1
  S  S26  1  0.08377141  0.11197109  0.79616998  1
  S  S27  1  0.11197109  0.79616998  0.08377141  1
  S  S28  1  0.79616998  0.08377141  0.11197109  1
  S  S29  1  0.61197109  0.58377141  0.29616998  1
  S  S30  1  0.58377141  0.29616998  0.61197109  1
  S  S31  1  0.29616998  0.61197109  0.58377141  1
  S  S32  1  0.84684469  0.58083619  0.12390316  1
  S  S33  1  0.58083619  0.12390316  0.84684469  1
  S  S34  1  0.12390316  0.84684469  0.58083619  1
  S  S35  1  0.08083619  0.34684469  0.62390316  1
  S  S36  1  0.34684469  0.62390316  0.08083619  1
  S  S37  1  0.62390316  0.08083619  0.34684469  1
