# generated using pymatgen
data_TiIn2O5
_symmetry_space_group_name_H-M   'P 1'
_cell_length_a   3.51601024
_cell_length_b   7.27430298
_cell_length_c   14.95963191
_cell_angle_alpha   90.00000000
_cell_angle_beta   90.00000000
_cell_angle_gamma   90.00000000
_symmetry_Int_Tables_number   1
_chemical_formula_structural   TiIn2O5
_chemical_formula_sum   'Ti4 In8 O20'
_cell_volume   382.61538108
_cell_formula_units_Z   4
loop_
 _symmetry_equiv_pos_site_id
 _symmetry_equiv_pos_as_xyz
  1  'x, y, z'
loop_
 _atom_site_type_symbol
 _atom_site_label
 _atom_site_symmetry_multiplicity
 _atom_site_fract_x
 _atom_site_fract_y
 _atom_site_fract_z
 _atom_site_occupancy
  Ti  Ti0  1  0.75000000  0.39245743  0.07736818  1
  Ti  Ti1  1  0.25000000  0.60754257  0.92263182  1
  Ti  Ti2  1  0.75000000  0.89245743  0.42263182  1
  Ti  Ti3  1  0.25000000  0.10754257  0.57736818  1
  In  In4  1  0.75000000  0.40092250  0.41636190  1
  In  In5  1  0.25000000  0.59907750  0.58363810  1
  In  In6  1  0.75000000  0.90092250  0.08363810  1
  In  In7  1  0.25000000  0.09907750  0.91636190  1
  In  In8  1  0.25000000  0.17369244  0.26035157  1
  In  In9  1  0.75000000  0.82630756  0.73964843  1
  In  In10  1  0.25000000  0.67369244  0.23964843  1
  In  In11  1  0.75000000  0.32630756  0.76035157  1
  O  O12  1  0.75000000  0.25959778  0.18051730  1
  O  O13  1  0.25000000  0.74040222  0.81948270  1
  O  O14  1  0.75000000  0.75959778  0.31948270  1
  O  O15  1  0.25000000  0.24040222  0.68051730  1
  O  O16  1  0.75000000  0.15425036  0.00421760  1
  O  O17  1  0.25000000  0.84574964  0.99578240  1
  O  O18  1  0.75000000  0.65425036  0.49578240  1
  O  O19  1  0.25000000  0.34574964  0.50421760  1
  O  O20  1  0.75000000  0.12955309  0.35129218  1
  O  O21  1  0.25000000  0.87044691  0.64870782  1
  O  O22  1  0.75000000  0.62955309  0.14870782  1
  O  O23  1  0.25000000  0.37044691  0.85129218  1
  O  O24  1  0.25000000  0.44017335  0.32455983  1
  O  O25  1  0.75000000  0.55982665  0.67544017  1
  O  O26  1  0.25000000  0.94017335  0.17544017  1
  O  O27  1  0.75000000  0.05982665  0.82455983  1
  O  O28  1  0.25000000  0.42808311  0.04548120  1
  O  O29  1  0.75000000  0.57191689  0.95451880  1
  O  O30  1  0.25000000  0.92808311  0.45451880  1
  O  O31  1  0.75000000  0.07191689  0.54548120  1
