# generated using pymatgen
data_Nb2CoO6
_symmetry_space_group_name_H-M   'P 1'
_cell_length_a   5.01916609
_cell_length_b   5.72237417
_cell_length_c   14.06555661
_cell_angle_alpha   90.00000000
_cell_angle_beta   90.00000000
_cell_angle_gamma   90.00000000
_symmetry_Int_Tables_number   1
_chemical_formula_structural   Nb2CoO6
_chemical_formula_sum   'Nb8 Co4 O24'
_cell_volume   403.98453665
_cell_formula_units_Z   4
loop_
 _symmetry_equiv_pos_site_id
 _symmetry_equiv_pos_as_xyz
  1  'x, y, z'
loop_
 _atom_site_type_symbol
 _atom_site_label
 _atom_site_symmetry_multiplicity
 _atom_site_fract_x
 _atom_site_fract_y
 _atom_site_fract_z
 _atom_site_occupancy
  Nb  Nb0  1  0.25291114  0.68148722  0.15800375  1
  Nb  Nb1  1  0.75291114  0.81851278  0.34199625  1
  Nb  Nb2  1  0.24708886  0.68148722  0.84199625  1
  Nb  Nb3  1  0.74708886  0.81851278  0.65800375  1
  Nb  Nb4  1  0.74708886  0.31851278  0.84199625  1
  Nb  Nb5  1  0.24708886  0.18148722  0.65800375  1
  Nb  Nb6  1  0.75291114  0.31851278  0.15800375  1
  Nb  Nb7  1  0.25291114  0.18148722  0.34199625  1
  Co  Co8  1  0.75000000  0.85516068  -0.00000000  1
  Co  Co9  1  0.25000000  0.64483932  0.50000000  1
  Co  Co10  1  0.25000000  0.14483932  -0.00000000  1
  Co  Co11  1  0.75000000  0.35516068  0.50000000  1
  O  O12  1  0.58037390  0.61307569  0.09284428  1
  O  O13  1  0.08037390  0.88692431  0.40715572  1
  O  O14  1  0.91962610  0.61307569  0.90715572  1
  O  O15  1  0.41962610  0.88692431  0.59284428  1
  O  O16  1  0.41962610  0.38692431  0.90715572  1
  O  O17  1  0.91962610  0.11307569  0.59284428  1
  O  O18  1  0.08037390  0.38692431  0.09284428  1
  O  O19  1  0.58037390  0.11307569  0.40715572  1
  O  O20  1  0.06925775  0.87775079  0.07537359  1
  O  O21  1  0.56925775  0.62224921  0.42462641  1
  O  O22  1  0.43074225  0.87775079  0.92462641  1
  O  O23  1  0.93074225  0.62224921  0.57537359  1
  O  O24  1  0.93074225  0.12224921  0.92462641  1
  O  O25  1  0.43074225  0.37775079  0.57537359  1
  O  O26  1  0.56925775  0.12224921  0.07537359  1
  O  O27  1  0.06925775  0.37775079  0.42462641  1
  O  O28  1  0.41846541  0.88333135  0.25540206  1
  O  O29  1  0.91846541  0.61666865  0.24459794  1
  O  O30  1  0.08153459  0.88333135  0.74459794  1
  O  O31  1  0.58153459  0.61666865  0.75540206  1
  O  O32  1  0.58153459  0.11666865  0.74459794  1
  O  O33  1  0.08153459  0.38333135  0.75540206  1
  O  O34  1  0.91846541  0.11666865  0.25540206  1
  O  O35  1  0.41846541  0.38333135  0.24459794  1
