# generated using pymatgen
data_RbVBr3
_symmetry_space_group_name_H-M   'P 1'
_cell_length_a   7.44792638
_cell_length_b   7.44793748
_cell_length_c   6.45835375
_cell_angle_alpha   89.99999874
_cell_angle_beta   90.00000321
_cell_angle_gamma   119.99882902
_symmetry_Int_Tables_number   1
_chemical_formula_structural   RbVBr3
_chemical_formula_sum   'Rb2 V2 Br6'
_cell_volume   310.26228259
_cell_formula_units_Z   2
loop_
 _symmetry_equiv_pos_site_id
 _symmetry_equiv_pos_as_xyz
  1  'x, y, z'
loop_
 _atom_site_type_symbol
 _atom_site_label
 _atom_site_symmetry_multiplicity
 _atom_site_fract_x
 _atom_site_fract_y
 _atom_site_fract_z
 _atom_site_occupancy
  Rb  Rb0  1  0.66666454  0.33333309  0.24999993  1
  Rb  Rb1  1  0.33333546  0.66666698  0.75000002  1
  V  V2  1  0.00000006  -0.00000010  -0.00000014  1
  V  V3  1  -0.00000005  -0.00000001  0.50000013  1
  Br  Br4  1  0.16245811  0.32491892  0.25000009  1
  Br  Br5  1  0.83753634  0.16246656  0.74999996  1
  Br  Br6  1  0.16246412  0.83753391  0.24999998  1
  Br  Br7  1  0.32492049  0.16245774  0.75000003  1
  Br  Br8  1  0.67507949  0.83754178  0.24999996  1
  Br  Br9  1  0.83754143  0.67508112  0.75000004  1
