# generated using pymatgen
data_CdI2
_symmetry_space_group_name_H-M   'P 1'
_cell_length_a   4.28155609
_cell_length_b   4.28155567
_cell_length_c   71.60491356
_cell_angle_alpha   90.00000000
_cell_angle_beta   90.00000000
_cell_angle_gamma   119.99999518
_symmetry_Int_Tables_number   1
_chemical_formula_structural   CdI2
_chemical_formula_sum   'Cd10 I20'
_cell_volume   1136.78074879
_cell_formula_units_Z   10
loop_
 _symmetry_equiv_pos_site_id
 _symmetry_equiv_pos_as_xyz
  1  'x, y, z'
loop_
 _atom_site_type_symbol
 _atom_site_label
 _atom_site_symmetry_multiplicity
 _atom_site_fract_x
 _atom_site_fract_y
 _atom_site_fract_z
 _atom_site_occupancy
  Cd  Cd0  1  0.66666700  0.33333300  0.22500870  1
  Cd  Cd1  1  -0.00000000  0.00000000  0.82500708  1
  Cd  Cd2  1  0.66666700  0.33333300  0.72500027  1
  Cd  Cd3  1  -0.00000000  0.00000000  0.92499215  1
  Cd  Cd4  1  0.66666700  0.33333300  0.62500434  1
  Cd  Cd5  1  -0.00000000  0.00000000  0.32499583  1
  Cd  Cd6  1  -0.00000000  0.00000000  0.52500083  1
  Cd  Cd7  1  0.66666700  0.33333300  0.42500310  1
  Cd  Cd8  1  -0.00000000  0.00000000  0.12499338  1
  Cd  Cd9  1  0.66666700  0.33333300  0.02498979  1
  I  I10  1  -0.00000000  0.00000000  0.20093104  1
  I  I11  1  0.33333300  0.66666700  0.44906900  1
  I  I12  1  0.33333300  0.66666700  0.34906900  1
  I  I13  1  0.66666700  0.33333300  0.80093103  1
  I  I14  1  0.66666700  0.33333300  0.90093107  1
  I  I15  1  0.33333300  0.66666700  0.94906898  1
  I  I16  1  0.00000000  0.00000000  0.60093101  1
  I  I17  1  0.00000000  0.00000000  0.40093124  1
  I  I18  1  0.66666700  0.33333300  0.10093101  1
  I  I19  1  0.33333300  0.66666700  0.04906899  1
  I  I20  1  0.66666700  0.33333300  0.30093100  1
  I  I21  1  -0.00000000  0.00000000  0.00093105  1
  I  I22  1  0.33333300  0.66666700  0.54906898  1
  I  I23  1  0.33333300  0.66666700  0.14906901  1
  I  I24  1  0.33333300  0.66666700  0.24906898  1
  I  I25  1  0.00000000  0.00000000  0.70093106  1
  I  I26  1  0.66666700  0.33333300  0.50093104  1
  I  I27  1  0.33333300  0.66666700  0.84906899  1
  I  I28  1  0.33333300  0.66666700  0.64906902  1
  I  I29  1  0.33333300  0.66666700  0.74906900  1
