# generated using pymatgen
data_Rb2CoF6
_symmetry_space_group_name_H-M   'P 1'
_cell_length_a   5.96543504
_cell_length_b   5.96543610
_cell_length_c   5.87980318
_cell_angle_alpha   60.47372028
_cell_angle_beta   60.47373445
_cell_angle_gamma   59.05256198
_symmetry_Int_Tables_number   1
_chemical_formula_structural   Rb2CoF6
_chemical_formula_sum   'Rb2 Co1 F6'
_cell_volume   147.89574374
_cell_formula_units_Z   1
loop_
 _symmetry_equiv_pos_site_id
 _symmetry_equiv_pos_as_xyz
  1  'x, y, z'
loop_
 _atom_site_type_symbol
 _atom_site_label
 _atom_site_symmetry_multiplicity
 _atom_site_fract_x
 _atom_site_fract_y
 _atom_site_fract_z
 _atom_site_occupancy
  Rb  Rb0  1  0.75000000  0.75000000  0.75000000  1
  Rb  Rb1  1  0.25000000  0.25000000  0.25000000  1
  Co  Co2  1  -0.00000000  -0.00000000  0.00000000  1
  F  F3  1  0.21385292  0.78614708  0.78614708  1
  F  F4  1  0.21385292  0.78614708  0.21385292  1
  F  F5  1  0.78614708  0.21385292  0.78614708  1
  F  F6  1  0.78614708  0.21385292  0.21385292  1
  F  F7  1  0.78722550  0.78722550  0.21277450  1
  F  F8  1  0.21277450  0.21277450  0.78722550  1
