# generated using pymatgen
data_CsTmSeCl2O3
_symmetry_space_group_name_H-M   'P 1'
_cell_length_a   6.86270476
_cell_length_b   6.57443597
_cell_length_c   17.82411666
_cell_angle_alpha   77.69142740
_cell_angle_beta   90.00000000
_cell_angle_gamma   90.00000000
_symmetry_Int_Tables_number   1
_chemical_formula_structural   CsTmSeCl2O3
_chemical_formula_sum   'Cs4 Tm4 Se4 Cl8 O12'
_cell_volume   785.71036159
_cell_formula_units_Z   4
loop_
 _symmetry_equiv_pos_site_id
 _symmetry_equiv_pos_as_xyz
  1  'x, y, z'
loop_
 _atom_site_type_symbol
 _atom_site_label
 _atom_site_symmetry_multiplicity
 _atom_site_fract_x
 _atom_site_fract_y
 _atom_site_fract_z
 _atom_site_occupancy
  Cs  Cs0  1  0.20985575  0.75150988  0.05513308  1
  Cs  Cs1  1  0.70985575  0.24849012  0.44486692  1
  Cs  Cs2  1  0.79014425  0.24849012  0.94486692  1
  Cs  Cs3  1  0.29014425  0.75150988  0.55513308  1
  Tm  Tm4  1  0.82204420  0.86372955  0.75753268  1
  Tm  Tm5  1  0.67795580  0.86372955  0.25753268  1
  Tm  Tm6  1  0.17795580  0.13627045  0.24246732  1
  Tm  Tm7  1  0.32204420  0.13627045  0.74246732  1
  Se  Se8  1  0.18329789  0.63788673  0.29324980  1
  Se  Se9  1  0.68329789  0.36211327  0.20675020  1
  Se  Se10  1  0.31670211  0.63788673  0.79324980  1
  Se  Se11  1  0.81670211  0.36211327  0.70675020  1
  Cl  Cl12  1  0.69056216  0.87884721  0.11067203  1
  Cl  Cl13  1  0.19056216  0.12115279  0.38932797  1
  Cl  Cl14  1  0.80943784  0.87884721  0.61067203  1
  Cl  Cl15  1  0.30943784  0.12115279  0.88932797  1
  Cl  Cl16  1  0.15693773  0.22685442  0.09304942  1
  Cl  Cl17  1  0.65693773  0.77314558  0.40695058  1
  Cl  Cl18  1  0.84306227  0.77314558  0.90695058  1
  Cl  Cl19  1  0.34306227  0.22685442  0.59304942  1
  O  O20  1  0.82672165  0.51409465  0.77130018  1
  O  O21  1  0.00065131  0.81724815  0.26456234  1
  O  O22  1  0.17327835  0.48590535  0.22869982  1
  O  O23  1  0.99934869  0.18275185  0.73543766  1
  O  O24  1  0.64535773  0.17754500  0.74541757  1
  O  O25  1  0.50065131  0.18275185  0.23543766  1
  O  O26  1  0.35464227  0.82245500  0.25458243  1
  O  O27  1  0.85464227  0.17754500  0.24541757  1
  O  O28  1  0.14535773  0.82245500  0.75458243  1
  O  O29  1  0.49934869  0.81724815  0.76456234  1
  O  O30  1  0.32672165  0.48590535  0.72869982  1
  O  O31  1  0.67327835  0.51409465  0.27130018  1
