# generated using pymatgen
data_K6Si2S6O
_symmetry_space_group_name_H-M   'P 1'
_cell_length_a   11.71922160
_cell_length_b   8.34951744
_cell_length_c   8.73788645
_cell_angle_alpha   68.12925215
_cell_angle_beta   90.00000000
_cell_angle_gamma   90.00000000
_symmetry_Int_Tables_number   1
_chemical_formula_structural   K6Si2S6O
_chemical_formula_sum   'K12 Si4 S12 O2'
_cell_volume   793.46348515
_cell_formula_units_Z   2
loop_
 _symmetry_equiv_pos_site_id
 _symmetry_equiv_pos_as_xyz
  1  'x, y, z'
loop_
 _atom_site_type_symbol
 _atom_site_label
 _atom_site_symmetry_multiplicity
 _atom_site_fract_x
 _atom_site_fract_y
 _atom_site_fract_z
 _atom_site_occupancy
  K  K0  1  0.32767539  0.98877548  0.00706257  1
  K  K1  1  0.22107985  0.69308702  0.45606940  1
  K  K2  1  0.56212645  0.28292491  0.22570960  1
  K  K3  1  0.82767539  0.51122452  0.99293743  1
  K  K4  1  0.43787355  0.71707509  0.77429040  1
  K  K5  1  0.77892015  0.30691298  0.54393060  1
  K  K6  1  0.06212645  0.21707509  0.77429040  1
  K  K7  1  0.93787355  0.78292491  0.22570960  1
  K  K8  1  0.27892015  0.19308702  0.45606940  1
  K  K9  1  0.72107985  0.80691298  0.54393060  1
  K  K10  1  0.67232461  0.01122452  0.99293743  1
  K  K11  1  0.17232461  0.48877548  0.00706257  1
  Si  Si12  1  0.48970700  0.35018750  0.68445061  1
  Si  Si13  1  0.98970700  0.14981250  0.31554939  1
  Si  Si14  1  0.51029300  0.64981250  0.31554939  1
  Si  Si15  1  0.01029300  0.85018750  0.68445061  1
  S  S16  1  0.97764474  0.60908219  0.66459944  1
  S  S17  1  0.88388920  0.91174834  0.82763928  1
  S  S18  1  0.82024562  0.13039757  0.23940123  1
  S  S19  1  0.61611080  0.41174834  0.82763928  1
  S  S20  1  0.32024562  0.36960243  0.76059877  1
  S  S21  1  0.11611080  0.08825166  0.17236072  1
  S  S22  1  0.47764474  0.89091781  0.33540056  1
  S  S23  1  0.38388920  0.58825166  0.17236072  1
  S  S24  1  0.02235526  0.39091781  0.33540056  1
  S  S25  1  0.67975438  0.63039757  0.23940123  1
  S  S26  1  0.52235526  0.10908219  0.66459944  1
  S  S27  1  0.17975438  0.86960243  0.76059877  1
  O  O28  1  0.50000000  0.50000000  0.50000000  1
  O  O29  1  0.00000000  -0.00000000  0.50000000  1
