# generated using pymatgen
data_TiCdO3
_symmetry_space_group_name_H-M   'P 1'
_cell_length_a   5.31246054
_cell_length_b   5.42898714
_cell_length_c   7.64691644
_cell_angle_alpha   90.00000000
_cell_angle_beta   90.00000000
_cell_angle_gamma   90.00000000
_symmetry_Int_Tables_number   1
_chemical_formula_structural   TiCdO3
_chemical_formula_sum   'Ti4 Cd4 O12'
_cell_volume   220.54685783
_cell_formula_units_Z   4
loop_
 _symmetry_equiv_pos_site_id
 _symmetry_equiv_pos_as_xyz
  1  'x, y, z'
loop_
 _atom_site_type_symbol
 _atom_site_label
 _atom_site_symmetry_multiplicity
 _atom_site_fract_x
 _atom_site_fract_y
 _atom_site_fract_z
 _atom_site_occupancy
  Ti  Ti0  1  0.49887423  0.00109045  0.49624022  1
  Ti  Ti1  1  0.50112577  0.99890955  0.99624022  1
  Ti  Ti2  1  0.00112577  0.50109045  0.49624022  1
  Ti  Ti3  1  0.99887423  0.49890955  0.99624022  1
  Cd  Cd4  1  0.50887107  0.46056743  0.24727408  1
  Cd  Cd5  1  0.49112893  0.53943257  0.74727408  1
  Cd  Cd6  1  0.99112893  0.96056743  0.24727408  1
  Cd  Cd7  1  0.00887107  0.03943257  0.74727408  1
  O  O8  1  0.79568451  0.21229498  0.05195509  1
  O  O9  1  0.20431549  0.78770502  0.55195509  1
  O  O10  1  0.70431549  0.71229498  0.05195509  1
  O  O11  1  0.29568551  0.28770502  0.55195509  1
  O  O12  1  0.80138053  0.19576258  0.45596526  1
  O  O13  1  0.19861947  0.80423742  0.95596526  1
  O  O14  1  0.69861947  0.69576258  0.45596526  1
  O  O15  1  0.30138053  0.30423742  0.95596526  1
  O  O16  1  0.90857874  0.47133659  0.75346635  1
  O  O17  1  0.09142126  0.52866341  0.25346635  1
  O  O18  1  0.59142126  0.97133659  0.75346635  1
  O  O19  1  0.40857874  0.02866341  0.25346635  1
