# generated using pymatgen
data_KSn
_symmetry_space_group_name_H-M   'P 1'
_cell_length_a   11.44586767
_cell_length_b   11.44586696
_cell_length_c   12.38905069
_cell_angle_alpha   117.51202571
_cell_angle_beta   117.51202833
_cell_angle_gamma   90.00000244
_symmetry_Int_Tables_number   1
_chemical_formula_structural   KSn
_chemical_formula_sum   'K16 Sn16'
_cell_volume   1228.85554925
_cell_formula_units_Z   16
loop_
 _symmetry_equiv_pos_site_id
 _symmetry_equiv_pos_as_xyz
  1  'x, y, z'
loop_
 _atom_site_type_symbol
 _atom_site_label
 _atom_site_symmetry_multiplicity
 _atom_site_fract_x
 _atom_site_fract_y
 _atom_site_fract_z
 _atom_site_occupancy
  K  K0  1  0.25000000  0.88707468  -0.00000000  1
  K  K1  1  0.61292532  0.25000000  0.50000000  1
  K  K2  1  0.88707468  0.75000000  0.50000000  1
  K  K3  1  0.75000000  0.61292532  0.00000000  1
  K  K4  1  0.75000000  0.11292532  0.00000000  1
  K  K5  1  0.38707468  0.75000000  0.50000000  1
  K  K6  1  0.11292532  0.25000000  0.50000000  1
  K  K7  1  0.25000000  0.38707468  -0.00000000  1
  K  K8  1  0.74756750  0.99756750  0.25000000  1
  K  K9  1  0.75243250  0.74756750  0.75000000  1
  K  K10  1  0.99756750  0.50243250  0.75000000  1
  K  K11  1  0.50243250  0.75243250  0.25000000  1
  K  K12  1  0.25243250  0.00243250  0.75000000  1
  K  K13  1  0.24756750  0.25243250  0.25000000  1
  K  K14  1  0.00243250  0.49756750  0.25000000  1
  K  K15  1  0.49756750  0.24756750  0.75000000  1
  Sn  Sn16  1  0.93165654  0.13379167  0.63840920  1
  Sn  Sn17  1  0.00461653  0.93165654  0.13840920  1
  Sn  Sn18  1  0.13379167  0.70675167  0.13840920  1
  Sn  Sn19  1  0.79324833  0.36620833  0.36158980  1
  Sn  Sn20  1  0.56834346  0.49538347  0.36158980  1
  Sn  Sn21  1  0.49538347  0.79324833  0.86159080  1
  Sn  Sn22  1  0.36620833  0.56834346  0.86159080  1
  Sn  Sn23  1  0.70675167  0.00461653  0.63840920  1
  Sn  Sn24  1  0.06834346  0.86620833  0.36158980  1
  Sn  Sn25  1  0.99538347  0.06834346  0.86159080  1
  Sn  Sn26  1  0.86620833  0.29324833  0.86159080  1
  Sn  Sn27  1  0.20675167  0.63379167  0.63840920  1
  Sn  Sn28  1  0.43165654  0.50461653  0.63840920  1
  Sn  Sn29  1  0.50461653  0.20675167  0.13840920  1
  Sn  Sn30  1  0.63379167  0.43165654  0.13840920  1
  Sn  Sn31  1  0.29324833  0.99538347  0.36158980  1
