# generated using pymatgen
data_Ba3SrTa2O9
_symmetry_space_group_name_H-M   'P 1'
_cell_length_a   6.09507275
_cell_length_b   6.09507241
_cell_length_c   15.39206311
_cell_angle_alpha   90.00000000
_cell_angle_beta   90.00000000
_cell_angle_gamma   119.99999998
_symmetry_Int_Tables_number   1
_chemical_formula_structural   Ba3SrTa2O9
_chemical_formula_sum   'Ba6 Sr2 Ta4 O18'
_cell_volume   495.20523850
_cell_formula_units_Z   2
loop_
 _symmetry_equiv_pos_site_id
 _symmetry_equiv_pos_as_xyz
  1  'x, y, z'
loop_
 _atom_site_type_symbol
 _atom_site_label
 _atom_site_symmetry_multiplicity
 _atom_site_fract_x
 _atom_site_fract_y
 _atom_site_fract_z
 _atom_site_occupancy
  Ba  Ba0  1  0.00000000  0.00000000  0.25000000  1
  Ba  Ba1  1  0.00000000  0.00000000  0.75000000  1
  Ba  Ba2  1  0.33333300  0.66666700  0.11788170  1
  Ba  Ba3  1  0.66666700  0.33333300  0.61788170  1
  Ba  Ba4  1  0.66666700  0.33333300  0.88211830  1
  Ba  Ba5  1  0.33333300  0.66666700  0.38211830  1
  Sr  Sr6  1  0.00000000  0.00000000  -0.00000000  1
  Sr  Sr7  1  0.00000000  0.00000000  0.50000000  1
  Ta  Ta8  1  0.33333300  0.66666700  0.84584450  1
  Ta  Ta9  1  0.66666700  0.33333300  0.34584450  1
  Ta  Ta10  1  0.66666700  0.33333300  0.15415550  1
  Ta  Ta11  1  0.33333300  0.66666700  0.65415550  1
  O  O12  1  0.56869556  0.04516784  0.25000000  1
  O  O13  1  0.52352672  0.56869556  0.75000000  1
  O  O14  1  0.04516784  0.47647328  0.75000000  1
  O  O15  1  0.95483216  0.52352672  0.25000000  1
  O  O16  1  0.47647328  0.43130444  0.25000000  1
  O  O17  1  0.43130444  0.95483216  0.75000000  1
  O  O18  1  0.76062050  0.64376967  0.09799479  1
  O  O19  1  0.11684883  0.76062050  0.59799479  1
  O  O20  1  0.64376967  0.88315117  0.59799479  1
  O  O21  1  0.35623033  0.11684883  0.09799479  1
  O  O22  1  0.88315117  0.23937950  0.09799479  1
  O  O23  1  0.23937950  0.35623033  0.59799479  1
  O  O24  1  0.23937950  0.35623033  0.90200521  1
  O  O25  1  0.88315117  0.23937950  0.40200521  1
  O  O26  1  0.35623033  0.11684883  0.40200521  1
  O  O27  1  0.64376967  0.88315117  0.90200521  1
  O  O28  1  0.11684883  0.76062050  0.90200521  1
  O  O29  1  0.76062050  0.64376967  0.40200521  1
