# generated using pymatgen
data_K2Th(PSe3)3
_symmetry_space_group_name_H-M   'P 1'
_cell_length_a   7.85756121
_cell_length_b   10.36645180
_cell_length_c   20.66248519
_cell_angle_alpha   93.35969859
_cell_angle_beta   90.00000000
_cell_angle_gamma   90.00000000
_symmetry_Int_Tables_number   1
_chemical_formula_structural   K2Th(PSe3)3
_chemical_formula_sum   'K8 Th4 P12 Se36'
_cell_volume   1680.17065450
_cell_formula_units_Z   4
loop_
 _symmetry_equiv_pos_site_id
 _symmetry_equiv_pos_as_xyz
  1  'x, y, z'
loop_
 _atom_site_type_symbol
 _atom_site_label
 _atom_site_symmetry_multiplicity
 _atom_site_fract_x
 _atom_site_fract_y
 _atom_site_fract_z
 _atom_site_occupancy
  K  K0  1  0.41349305  0.75665411  0.00052033  1
  K  K1  1  0.89845590  0.73779306  0.17713472  1
  K  K2  1  0.58650695  0.24334589  -0.00052033  1
  K  K3  1  0.08650695  0.25665411  0.50052033  1
  K  K4  1  0.10154410  0.26220694  0.82286528  1
  K  K5  1  0.91349305  0.74334589  0.49947967  1
  K  K6  1  0.60154410  0.23779306  0.67713472  1
  K  K7  1  0.39845590  0.76220694  0.32286528  1
  Th  Th8  1  0.40792481  0.74982327  0.64482870  1
  Th  Th9  1  0.59207519  0.25017673  0.35517130  1
  Th  Th10  1  0.90792481  0.75017673  0.85517130  1
  Th  Th11  1  0.09207519  0.24982327  0.14482870  1
  P  P12  1  0.87634238  0.95895109  0.34213792  1
  P  P13  1  0.12365762  0.04104891  0.65786208  1
  P  P14  1  0.11133387  0.05651085  0.98566071  1
  P  P15  1  0.61133387  0.44348915  0.51433929  1
  P  P16  1  0.91399397  0.91694576  0.69261681  1
  P  P17  1  0.08600603  0.08305424  0.30738319  1
  P  P18  1  0.37634238  0.54104891  0.15786208  1
  P  P19  1  0.41399397  0.58305424  0.80738319  1
  P  P20  1  0.88866613  0.94348915  0.01433929  1
  P  P21  1  0.62365762  0.45895109  0.84213792  1
  P  P22  1  0.58600603  0.41694576  0.19261681  1
  P  P23  1  0.38866613  0.55651085  0.48566071  1
  Se  Se24  1  0.17656840  0.00258517  0.21391366  1
  Se  Se25  1  0.04340295  0.73021947  0.70889937  1
  Se  Se26  1  0.28763338  0.43696736  0.06751817  1
  Se  Se27  1  0.32970293  0.00761783  0.72530627  1
  Se  Se28  1  0.02935860  0.23389067  0.65642100  1
  Se  Se29  1  0.22039975  0.58599788  0.88391466  1
  Se  Se30  1  0.69841305  0.53174619  0.60628387  1
  Se  Se31  1  0.80158695  0.03174619  0.10628387  1
  Se  Se32  1  0.67656840  0.49741483  0.28608634  1
  Se  Se33  1  0.30158695  0.46825381  0.39371613  1
  Se  Se34  1  0.82970293  0.49238217  0.77469373  1
  Se  Se35  1  0.52935860  0.26610933  0.84357900  1
  Se  Se36  1  0.70445471  0.95280524  0.93501341  1
  Se  Se37  1  0.52017537  0.24395326  0.50948400  1
  Se  Se38  1  0.97982463  0.74395326  0.00948400  1
  Se  Se39  1  0.29554529  0.04719476  0.06498659  1
  Se  Se40  1  0.32343160  0.50258517  0.71391366  1
  Se  Se41  1  0.47064140  0.73389067  0.15642100  1
  Se  Se42  1  0.21236662  0.93696736  0.56751817  1
  Se  Se43  1  0.45659805  0.23021947  0.20889937  1
  Se  Se44  1  0.47982463  0.75604674  0.49051600  1
  Se  Se45  1  0.79554529  0.45280524  0.43501341  1
  Se  Se46  1  0.19841305  0.96825381  0.89371613  1
  Se  Se47  1  0.78763338  0.06303264  0.43248183  1
  Se  Se48  1  0.17029707  0.50761783  0.22530627  1
  Se  Se49  1  0.54340295  0.76978053  0.79110063  1
  Se  Se50  1  0.67029707  0.99238217  0.27469373  1
  Se  Se51  1  0.71236662  0.56303264  0.93248183  1
  Se  Se52  1  0.95659705  0.26978053  0.29110063  1
  Se  Se53  1  0.97064140  0.76610933  0.34357900  1
  Se  Se54  1  0.82343160  0.99741483  0.78608634  1
  Se  Se55  1  0.27960025  0.08599788  0.38391466  1
  Se  Se56  1  0.20445471  0.54719476  0.56498659  1
  Se  Se57  1  0.77960025  0.41400212  0.11608534  1
  Se  Se58  1  0.02017537  0.25604674  0.99051600  1
  Se  Se59  1  0.72039975  0.91400212  0.61608534  1
