# generated using pymatgen
data_SnCl2
_symmetry_space_group_name_H-M   'P 1'
_cell_length_a   4.28953839
_cell_length_b   8.06362599
_cell_length_c   9.62264224
_cell_angle_alpha   90.00000000
_cell_angle_beta   90.00000000
_cell_angle_gamma   90.00000000
_symmetry_Int_Tables_number   1
_chemical_formula_structural   SnCl2
_chemical_formula_sum   'Sn4 Cl8'
_cell_volume   332.83981689
_cell_formula_units_Z   4
loop_
 _symmetry_equiv_pos_site_id
 _symmetry_equiv_pos_as_xyz
  1  'x, y, z'
loop_
 _atom_site_type_symbol
 _atom_site_label
 _atom_site_symmetry_multiplicity
 _atom_site_fract_x
 _atom_site_fract_y
 _atom_site_fract_z
 _atom_site_occupancy
  Sn  Sn0  1  0.75000000  0.27339334  0.06259928  1
  Sn  Sn1  1  0.25000000  0.72660666  0.93740072  1
  Sn  Sn2  1  0.25000000  0.22660666  0.56259928  1
  Sn  Sn3  1  0.75000000  0.77339334  0.43740072  1
  Cl  Cl4  1  0.25000000  0.02204815  0.35271164  1
  Cl  Cl5  1  0.25000000  0.64444706  0.57850867  1
  Cl  Cl6  1  0.25000000  0.52204815  0.14728836  1
  Cl  Cl7  1  0.75000000  0.97795185  0.64728836  1
  Cl  Cl8  1  0.75000000  0.35555294  0.42149133  1
  Cl  Cl9  1  0.75000000  0.85555294  0.07850867  1
  Cl  Cl10  1  0.25000000  0.14444706  0.92149133  1
  Cl  Cl11  1  0.75000000  0.47795185  0.85271164  1
