# generated using pymatgen
data_Nd6Si4S17
_symmetry_space_group_name_H-M   'P 1'
_cell_length_a   8.96623435
_cell_length_b   9.98136180
_cell_length_c   14.26205730
_cell_angle_alpha   81.99889679
_cell_angle_beta   87.01240611
_cell_angle_gamma   89.28710006
_symmetry_Int_Tables_number   1
_chemical_formula_structural   Nd6Si4S17
_chemical_formula_sum   'Nd12 Si8 S34'
_cell_volume   1262.22567556
_cell_formula_units_Z   2
loop_
 _symmetry_equiv_pos_site_id
 _symmetry_equiv_pos_as_xyz
  1  'x, y, z'
loop_
 _atom_site_type_symbol
 _atom_site_label
 _atom_site_symmetry_multiplicity
 _atom_site_fract_x
 _atom_site_fract_y
 _atom_site_fract_z
 _atom_site_occupancy
  Nd  Nd0  1  0.63167999  0.93586941  0.32400536  1
  Nd  Nd1  1  0.36832001  0.06413059  0.67599464  1
  Nd  Nd2  1  0.55157409  0.26149364  0.99849881  1
  Nd  Nd3  1  0.91544361  0.91937996  0.83413853  1
  Nd  Nd4  1  0.44842591  0.73850636  0.00150119  1
  Nd  Nd5  1  0.98196283  0.23180007  0.53924328  1
  Nd  Nd6  1  0.89355740  0.61517488  0.18397281  1
  Nd  Nd7  1  0.66759507  0.58898960  0.65766813  1
  Nd  Nd8  1  0.01803717  0.76819993  0.46075672  1
  Nd  Nd9  1  0.10644260  0.38482512  0.81602719  1
  Nd  Nd10  1  0.08455639  0.08062004  0.16586147  1
  Nd  Nd11  1  0.33240493  0.41101040  0.34233187  1
  Si  Si12  1  0.27582498  0.05772309  0.39369191  1
  Si  Si13  1  0.76903327  0.56141800  0.90117347  1
  Si  Si14  1  0.72417502  0.94227691  0.60630809  1
  Si  Si15  1  0.24956296  0.50014842  0.58386911  1
  Si  Si16  1  0.75043704  0.49985158  0.41613089  1
  Si  Si17  1  0.25060603  0.05993391  0.92299687  1
  Si  Si18  1  0.23096673  0.43858200  0.09882653  1
  Si  Si19  1  0.74939397  0.94006609  0.07700313  1
  S  S20  1  0.35508098  0.53125008  0.70658848  1
  S  S21  1  0.10765731  0.20090394  0.34496531  1
  S  S22  1  0.30414563  0.91243595  0.30144746  1
  S  S23  1  0.38251427  0.21207562  0.83862782  1
  S  S24  1  0.04150111  0.14895168  0.95216771  1
  S  S25  1  0.64491902  0.46874992  0.29341152  1
  S  S26  1  0.32102702  0.48185220  0.95670114  1
  S  S27  1  0.89234269  0.79909606  0.65503469  1
  S  S28  1  0.29724267  0.30777712  0.54148801  1
  S  S29  1  0.65976591  0.99915536  0.94322817  1
  S  S30  1  0.30654540  0.63333244  0.46092123  1
  S  S31  1  0.99053613  0.62658055  0.88509063  1
  S  S32  1  0.74292693  0.11529072  0.14823708  1
  S  S33  1  0.98472757  0.50701448  0.37707980  1
  S  S34  1  0.75187251  0.38582503  0.83248312  1
  S  S35  1  0.69585437  0.08756405  0.69855254  1
  S  S36  1  0.81506981  0.01992264  0.46863632  1
  S  S37  1  0.70275733  0.69222288  0.45851199  1
  S  S38  1  0.06683482  0.14291494  0.72125705  1
  S  S39  1  0.18493019  0.98007736  0.53136368  1
  S  S40  1  0.61748573  0.78792438  0.16137218  1
  S  S41  1  0.00946387  0.37341945  0.11490937  1
  S  S42  1  0.34023409  0.00084464  0.05677183  1
  S  S43  1  0.25707307  0.88470928  0.85176292  1
  S  S44  1  0.36740771  0.28286288  0.16618751  1
  S  S45  1  0.24812749  0.61417497  0.16751688  1
  S  S46  1  0.95849889  0.85104832  0.04783229  1
  S  S47  1  0.48302002  0.15364877  0.39680249  1
  S  S48  1  0.69345460  0.36666756  0.53907877  1
  S  S49  1  0.51697998  0.84635123  0.60319751  1
  S  S50  1  0.01527243  0.49298552  0.62292020  1
  S  S51  1  0.63259229  0.71713712  0.83381249  1
  S  S52  1  0.67897298  0.51814780  0.04329886  1
  S  S53  1  0.93316518  0.85708506  0.27874295  1
