# generated using pymatgen
data_CuMo3Cl7
_symmetry_space_group_name_H-M   'P 1'
_cell_length_a   12.91942001
_cell_length_b   12.91942001
_cell_length_c   12.91942001
_cell_angle_alpha   90.00000000
_cell_angle_beta   90.00000000
_cell_angle_gamma   90.00000000
_symmetry_Int_Tables_number   1
_chemical_formula_structural   CuMo3Cl7
_chemical_formula_sum   'Cu8 Mo24 Cl56'
_cell_volume   2156.39865411
_cell_formula_units_Z   8
loop_
 _symmetry_equiv_pos_site_id
 _symmetry_equiv_pos_as_xyz
  1  'x, y, z'
loop_
 _atom_site_type_symbol
 _atom_site_label
 _atom_site_symmetry_multiplicity
 _atom_site_fract_x
 _atom_site_fract_y
 _atom_site_fract_z
 _atom_site_occupancy
  Cu  Cu0  1  0.19019154  0.19019154  0.19019154  1
  Cu  Cu1  1  0.30980846  0.69019154  0.69019154  1
  Cu  Cu2  1  0.69019154  0.30980846  0.69019154  1
  Cu  Cu3  1  0.19019154  0.80980846  0.80980846  1
  Cu  Cu4  1  0.30980846  0.30980846  0.30980846  1
  Cu  Cu5  1  0.69019154  0.69019154  0.30980846  1
  Cu  Cu6  1  0.80980846  0.80980846  0.19019154  1
  Cu  Cu7  1  0.80980846  0.19019154  0.80980846  1
  Mo  Mo8  1  0.61354152  0.77518143  0.71879566  1
  Mo  Mo9  1  0.38645848  0.22481857  0.71879566  1
  Mo  Mo10  1  0.71879566  0.61354152  0.77518143  1
  Mo  Mo11  1  0.78120434  0.11354152  0.27518143  1
  Mo  Mo12  1  0.88645848  0.27518143  0.21879566  1
  Mo  Mo13  1  0.72481857  0.78120434  0.88645848  1
  Mo  Mo14  1  0.22481857  0.71879566  0.38645848  1
  Mo  Mo15  1  0.71879566  0.38645848  0.22481857  1
  Mo  Mo16  1  0.72481857  0.21879566  0.11354152  1
  Mo  Mo17  1  0.21879566  0.88645848  0.27518143  1
  Mo  Mo18  1  0.77518143  0.28120434  0.38645848  1
  Mo  Mo19  1  0.11354152  0.72481857  0.21879566  1
  Mo  Mo20  1  0.27518143  0.21879566  0.88645848  1
  Mo  Mo21  1  0.28120434  0.38645848  0.77518143  1
  Mo  Mo22  1  0.21879566  0.11354152  0.72481857  1
  Mo  Mo23  1  0.88645848  0.72481857  0.78120434  1
  Mo  Mo24  1  0.27518143  0.78120434  0.11354152  1
  Mo  Mo25  1  0.11354152  0.27518143  0.78120434  1
  Mo  Mo26  1  0.78120434  0.88645848  0.72481857  1
  Mo  Mo27  1  0.22481857  0.28120434  0.61354152  1
  Mo  Mo28  1  0.28120434  0.61354152  0.22481857  1
  Mo  Mo29  1  0.77518143  0.71879566  0.61354152  1
  Mo  Mo30  1  0.38645848  0.77518143  0.28120434  1
  Mo  Mo31  1  0.61354152  0.22481857  0.28120434  1
  Cl  Cl32  1  0.43362228  0.67439153  0.12464824  1
  Cl  Cl33  1  0.17439153  0.37535176  0.93362228  1
  Cl  Cl34  1  0.88658174  0.11341826  0.11341826  1
  Cl  Cl35  1  0.32560847  0.87535176  0.43362228  1
  Cl  Cl36  1  0.87535176  0.43362228  0.32560847  1
  Cl  Cl37  1  0.11341826  0.88658174  0.11341826  1
  Cl  Cl38  1  0.06820640  0.31149218  0.17164334  1
  Cl  Cl39  1  0.43179360  0.18850782  0.32835666  1
  Cl  Cl40  1  0.93362228  0.82560847  0.62464824  1
  Cl  Cl41  1  0.31149218  0.82835666  0.93179360  1
  Cl  Cl42  1  0.31149218  0.17164334  0.06820640  1
  Cl  Cl43  1  0.11341826  0.11341826  0.88658174  1
  Cl  Cl44  1  0.67439153  0.87535176  0.56637772  1
  Cl  Cl45  1  0.93179360  0.68850782  0.17164334  1
  Cl  Cl46  1  0.61341826  0.61341826  0.61341826  1
  Cl  Cl47  1  0.12464824  0.56637772  0.32560847  1
  Cl  Cl48  1  0.06820640  0.68850782  0.82835666  1
  Cl  Cl49  1  0.87535176  0.56637772  0.67439153  1
  Cl  Cl50  1  0.56637772  0.32560847  0.12464824  1
  Cl  Cl51  1  0.32835666  0.43179360  0.18850782  1
  Cl  Cl52  1  0.82560847  0.37535176  0.06637772  1
  Cl  Cl53  1  0.17439153  0.62464824  0.06637772  1
  Cl  Cl54  1  0.37535176  0.93362228  0.17439153  1
  Cl  Cl55  1  0.38658174  0.38658174  0.61341826  1
  Cl  Cl56  1  0.12464824  0.43362228  0.67439153  1
  Cl  Cl57  1  0.81149218  0.67164334  0.43179360  1
  Cl  Cl58  1  0.43179360  0.81149218  0.67164334  1
  Cl  Cl59  1  0.38658174  0.61341826  0.38658174  1
  Cl  Cl60  1  0.56820640  0.18850782  0.67164334  1
  Cl  Cl61  1  0.93362228  0.17439153  0.37535176  1
  Cl  Cl62  1  0.43362228  0.32560847  0.87535176  1
  Cl  Cl63  1  0.37535176  0.06637772  0.82560847  1
  Cl  Cl64  1  0.62464824  0.93362228  0.82560847  1
  Cl  Cl65  1  0.17164334  0.06820640  0.31149218  1
  Cl  Cl66  1  0.56820640  0.81149218  0.32835666  1
  Cl  Cl67  1  0.82560847  0.62464824  0.93362228  1
  Cl  Cl68  1  0.93179360  0.31149218  0.82835666  1
  Cl  Cl69  1  0.68850782  0.17164334  0.93179360  1
  Cl  Cl70  1  0.06637772  0.82560847  0.37535176  1
  Cl  Cl71  1  0.32560847  0.12464824  0.56637772  1
  Cl  Cl72  1  0.67439153  0.12464824  0.43362228  1
  Cl  Cl73  1  0.61341826  0.38658174  0.38658174  1
  Cl  Cl74  1  0.88658174  0.88658174  0.88658174  1
  Cl  Cl75  1  0.81149218  0.32835666  0.56820640  1
  Cl  Cl76  1  0.17164334  0.93179360  0.68850782  1
  Cl  Cl77  1  0.18850782  0.67164334  0.56820640  1
  Cl  Cl78  1  0.67164334  0.43179360  0.81149218  1
  Cl  Cl79  1  0.32835666  0.56820640  0.81149218  1
  Cl  Cl80  1  0.67164334  0.56820640  0.18850782  1
  Cl  Cl81  1  0.82835666  0.93179360  0.31149218  1
  Cl  Cl82  1  0.18850782  0.32835666  0.43179360  1
  Cl  Cl83  1  0.68850782  0.82835666  0.06820640  1
  Cl  Cl84  1  0.06637772  0.17439153  0.62464824  1
  Cl  Cl85  1  0.82835666  0.06820640  0.68850782  1
  Cl  Cl86  1  0.62464824  0.06637772  0.17439153  1
  Cl  Cl87  1  0.56637772  0.67439153  0.87535176  1
