# generated using pymatgen
data_La4S3N2
_symmetry_space_group_name_H-M   'P 1'
_cell_length_a   4.08526170
_cell_length_b   6.70649937
_cell_length_c   15.65353845
_cell_angle_alpha   90.00000000
_cell_angle_beta   90.00000000
_cell_angle_gamma   90.00000000
_symmetry_Int_Tables_number   1
_chemical_formula_structural   La4S3N2
_chemical_formula_sum   'La8 S6 N4'
_cell_volume   428.87259428
_cell_formula_units_Z   2
loop_
 _symmetry_equiv_pos_site_id
 _symmetry_equiv_pos_as_xyz
  1  'x, y, z'
loop_
 _atom_site_type_symbol
 _atom_site_label
 _atom_site_symmetry_multiplicity
 _atom_site_fract_x
 _atom_site_fract_y
 _atom_site_fract_z
 _atom_site_occupancy
  La  La0  1  -0.00000000  0.27249449  0.84417066  1
  La  La1  1  0.50000000  0.22750551  0.34417066  1
  La  La2  1  0.50000000  0.72051094  0.93516912  1
  La  La3  1  0.50000000  0.77249449  0.65582934  1
  La  La4  1  0.00000000  0.22051094  0.56483088  1
  La  La5  1  0.00000000  0.77948906  0.43516912  1
  La  La6  1  0.50000000  0.27948906  0.06483088  1
  La  La7  1  0.00000000  0.72750551  0.15582934  1
  S  S8  1  0.50000000  0.21331749  0.70134479  1
  S  S9  1  -0.00000000  0.28668251  0.20134479  1
  S  S10  1  0.00000000  0.71331749  0.79865521  1
  S  S11  1  -0.00000000  -0.00000000  0.00000000  1
  S  S12  1  0.50000000  0.78668251  0.29865521  1
  S  S13  1  0.50000000  0.50000000  0.50000000  1
  N  N14  1  -0.00000000  0.87345318  0.58323535  1
  N  N15  1  0.50000000  0.62654682  0.08323535  1
  N  N16  1  -0.00000000  0.12654682  0.41676465  1
  N  N17  1  0.50000000  0.37345318  0.91676465  1
