# generated using pymatgen
data_TcBi3O8
_symmetry_space_group_name_H-M   'P 1'
_cell_length_a   11.50615417
_cell_length_b   11.50615417
_cell_length_c   11.50615417
_cell_angle_alpha   90.00000000
_cell_angle_beta   90.00000000
_cell_angle_gamma   90.00000000
_symmetry_Int_Tables_number   1
_chemical_formula_structural   TcBi3O8
_chemical_formula_sum   'Tc8 Bi24 O64'
_cell_volume   1523.31797383
_cell_formula_units_Z   8
loop_
 _symmetry_equiv_pos_site_id
 _symmetry_equiv_pos_as_xyz
  1  'x, y, z'
loop_
 _atom_site_type_symbol
 _atom_site_label
 _atom_site_symmetry_multiplicity
 _atom_site_fract_x
 _atom_site_fract_y
 _atom_site_fract_z
 _atom_site_occupancy
  Tc  Tc0  1  0.11565660  0.88434340  0.38434340  1
  Tc  Tc1  1  0.88434340  0.38434340  0.11565660  1
  Tc  Tc2  1  0.12040465  0.12040465  0.12040465  1
  Tc  Tc3  1  0.87959535  0.62040465  0.37959535  1
  Tc  Tc4  1  0.38434340  0.11565660  0.88434340  1
  Tc  Tc5  1  0.61565660  0.61565660  0.61565660  1
  Tc  Tc6  1  0.62040465  0.37959535  0.87959535  1
  Tc  Tc7  1  0.37959535  0.87959535  0.62040465  1
  Bi  Bi8  1  0.35506254  0.64215983  0.88707987  1
  Bi  Bi9  1  0.15048995  0.63702554  0.11612127  1
  Bi  Bi10  1  0.13702554  0.38387873  0.84951005  1
  Bi  Bi11  1  0.38387873  0.84951005  0.13702554  1
  Bi  Bi12  1  0.85784017  0.11292013  0.85506254  1
  Bi  Bi13  1  0.85506254  0.85784017  0.11292013  1
  Bi  Bi14  1  0.65048995  0.86297446  0.88387873  1
  Bi  Bi15  1  0.86297446  0.88387873  0.65048995  1
  Bi  Bi16  1  0.11612127  0.15048995  0.63702554  1
  Bi  Bi17  1  0.61292013  0.64493746  0.14215983  1
  Bi  Bi18  1  0.14215983  0.61292013  0.64493746  1
  Bi  Bi19  1  0.34951005  0.36297446  0.61612127  1
  Bi  Bi20  1  0.38707987  0.14493746  0.35784017  1
  Bi  Bi21  1  0.35784017  0.38707987  0.14493746  1
  Bi  Bi22  1  0.61612127  0.34951005  0.36297446  1
  Bi  Bi23  1  0.63702554  0.11612127  0.15048995  1
  Bi  Bi24  1  0.11292013  0.85506254  0.85784017  1
  Bi  Bi25  1  0.84951005  0.13702554  0.38387873  1
  Bi  Bi26  1  0.14493746  0.35784017  0.38707987  1
  Bi  Bi27  1  0.88707987  0.35506254  0.64215983  1
  Bi  Bi28  1  0.36297446  0.61612127  0.34951005  1
  Bi  Bi29  1  0.88387873  0.65048995  0.86297446  1
  Bi  Bi30  1  0.64215983  0.88707987  0.35506254  1
  Bi  Bi31  1  0.64493746  0.14215983  0.61292013  1
  O  O32  1  0.46598300  0.96598300  0.53401700  1
  O  O33  1  0.77063653  0.77063653  0.77063653  1
  O  O34  1  0.22770772  0.50213739  0.24456280  1
  O  O35  1  0.27229228  0.49786261  0.74456280  1
  O  O36  1  0.11784774  0.74660164  0.43957924  1
  O  O37  1  0.22936347  0.27063653  0.72936347  1
  O  O38  1  0.25287254  0.05608508  0.14174973  1
  O  O39  1  0.72936347  0.22936347  0.27063653  1
  O  O40  1  0.77229228  0.00213739  0.25543720  1
  O  O41  1  0.24245604  0.46902362  0.50259719  1
  O  O42  1  0.53097638  0.00259719  0.25754396  1
  O  O43  1  0.24712746  0.94391492  0.64174973  1
  O  O44  1  0.53401700  0.46598300  0.96598300  1
  O  O45  1  0.78147147  0.21852853  0.71852853  1
  O  O46  1  0.24660164  0.06042076  0.88215226  1
  O  O47  1  0.74245604  0.03097638  0.49740281  1
  O  O48  1  0.35825027  0.74712746  0.55608508  1
  O  O49  1  0.55608508  0.35825027  0.74712746  1
  O  O50  1  0.75543720  0.72770772  0.99786261  1
  O  O51  1  0.47116970  0.02883030  0.97116970  1
  O  O52  1  0.28147147  0.28147147  0.28147147  1
  O  O53  1  0.49740281  0.74245604  0.03097638  1
  O  O54  1  0.75754396  0.96902362  0.99740281  1
  O  O55  1  0.72770772  0.99786261  0.75543720  1
  O  O56  1  0.03401700  0.03401700  0.03401700  1
  O  O57  1  0.21852853  0.71852853  0.78147147  1
  O  O58  1  0.25754396  0.53097638  0.00259719  1
  O  O59  1  0.85825027  0.75287254  0.44391492  1
  O  O60  1  0.93957924  0.38215226  0.25339836  1
  O  O61  1  0.52883030  0.52883030  0.52883030  1
  O  O62  1  0.24456280  0.22770772  0.50213739  1
  O  O63  1  0.43957924  0.11784774  0.74660164  1
  O  O64  1  0.99740281  0.75754396  0.96902362  1
  O  O65  1  0.96902362  0.99740281  0.75754396  1
  O  O66  1  0.03097638  0.49740281  0.74245604  1
  O  O67  1  0.38215226  0.25339836  0.93957924  1
  O  O68  1  0.00213739  0.25543720  0.77229228  1
  O  O69  1  0.61784774  0.75339836  0.56042076  1
  O  O70  1  0.94391492  0.64174973  0.24712746  1
  O  O71  1  0.74712746  0.55608508  0.35825027  1
  O  O72  1  0.06042076  0.88215226  0.24660164  1
  O  O73  1  0.56042076  0.61784774  0.75339836  1
  O  O74  1  0.71852853  0.78147147  0.21852853  1
  O  O75  1  0.75287254  0.44391492  0.85825027  1
  O  O76  1  0.74660164  0.43957924  0.11784774  1
  O  O77  1  0.25543720  0.77229228  0.00213739  1
  O  O78  1  0.88215226  0.24660164  0.06042076  1
  O  O79  1  0.99786261  0.75543720  0.72770772  1
  O  O80  1  0.02883030  0.97116970  0.47116970  1
  O  O81  1  0.97116970  0.47116970  0.02883030  1
  O  O82  1  0.44391492  0.85825027  0.75287254  1
  O  O83  1  0.27063653  0.72936347  0.22936347  1
  O  O84  1  0.25339836  0.93957924  0.38215226  1
  O  O85  1  0.49786261  0.74456280  0.27229228  1
  O  O86  1  0.75339836  0.56042076  0.61784774  1
  O  O87  1  0.96598300  0.53401700  0.46598300  1
  O  O88  1  0.14174973  0.25287254  0.05608508  1
  O  O89  1  0.64174973  0.24712746  0.94391492  1
  O  O90  1  0.46902362  0.50259719  0.24245604  1
  O  O91  1  0.50213739  0.24456280  0.22770772  1
  O  O92  1  0.74456280  0.27229228  0.49786261  1
  O  O93  1  0.00259719  0.25754396  0.53097638  1
  O  O94  1  0.50259719  0.24245604  0.46902362  1
  O  O95  1  0.05608508  0.14174973  0.25287254  1
