# generated using pymatgen
data_Hg2SeO3
_symmetry_space_group_name_H-M   'P 1'
_cell_length_a   5.03493381
_cell_length_b   9.93756849
_cell_length_c   9.93756863
_cell_angle_alpha   110.88474001
_cell_angle_beta   90.00000000
_cell_angle_gamma   90.00000000
_symmetry_Int_Tables_number   1
_chemical_formula_structural   Hg2SeO3
_chemical_formula_sum   'Hg8 Se4 O12'
_cell_volume   464.55820672
_cell_formula_units_Z   4
loop_
 _symmetry_equiv_pos_site_id
 _symmetry_equiv_pos_as_xyz
  1  'x, y, z'
loop_
 _atom_site_type_symbol
 _atom_site_label
 _atom_site_symmetry_multiplicity
 _atom_site_fract_x
 _atom_site_fract_y
 _atom_site_fract_z
 _atom_site_occupancy
  Hg  Hg0  1  0.45545427  0.64315242  0.13072502  1
  Hg  Hg1  1  0.95545427  0.35684758  0.86927498  1
  Hg  Hg2  1  0.97631817  0.80330457  0.97066118  1
  Hg  Hg3  1  0.45545427  0.86927498  0.35684758  1
  Hg  Hg4  1  0.97631817  0.02933882  0.19669543  1
  Hg  Hg5  1  0.47631817  0.97066118  0.80330457  1
  Hg  Hg6  1  0.47631817  0.19669543  0.02933882  1
  Hg  Hg7  1  0.95545427  0.13072502  0.64315242  1
  Se  Se8  1  0.41413268  0.21706107  0.42920582  1
  Se  Se9  1  0.91413268  0.78293893  0.57079418  1
  Se  Se10  1  0.41413268  0.57079418  0.78293893  1
  Se  Se11  1  0.91413268  0.42920582  0.21706107  1
  O  O12  1  0.48704597  0.48870459  0.90639460  1
  O  O13  1  0.07398326  0.19654996  0.41114088  1
  O  O14  1  0.48704597  0.09360540  0.51129541  1
  O  O15  1  0.01156665  0.87519829  0.74110365  1
  O  O16  1  0.98704597  0.90639460  0.48870459  1
  O  O17  1  0.98704597  0.51129541  0.09360540  1
  O  O18  1  0.51156665  0.74110365  0.87519829  1
  O  O19  1  0.01156665  0.25889635  0.12480171  1
  O  O20  1  0.57398326  0.80345004  0.58885912  1
  O  O21  1  0.57398326  0.41114088  0.19654996  1
  O  O22  1  0.07398326  0.58885912  0.80345004  1
  O  O23  1  0.51156665  0.12480171  0.25889635  1
