# generated using pymatgen
data_Cd5Mo2(P2O7)4
_symmetry_space_group_name_H-M   'P 1'
_cell_length_a   6.69116050
_cell_length_b   6.69116050
_cell_length_c   24.44349561
_cell_angle_alpha   84.71921275
_cell_angle_beta   84.71921275
_cell_angle_gamma   96.77827622
_symmetry_Int_Tables_number   1
_chemical_formula_structural   Cd5Mo2(P2O7)4
_chemical_formula_sum   'Cd10 Mo4 P16 O56'
_cell_volume   1076.23791487
_cell_formula_units_Z   2
loop_
 _symmetry_equiv_pos_site_id
 _symmetry_equiv_pos_as_xyz
  1  'x, y, z'
loop_
 _atom_site_type_symbol
 _atom_site_label
 _atom_site_symmetry_multiplicity
 _atom_site_fract_x
 _atom_site_fract_y
 _atom_site_fract_z
 _atom_site_occupancy
  Cd  Cd0  1  0.68168378  0.70240841  0.00790814  1
  Cd  Cd1  1  0.31831622  0.29759159  0.99209186  1
  Cd  Cd2  1  0.20140798  0.79859202  0.75000000  1
  Cd  Cd3  1  0.79859202  0.20140798  0.25000000  1
  Cd  Cd4  1  0.11515277  0.41507685  0.86318605  1
  Cd  Cd5  1  0.88484723  0.58492315  0.13681395  1
  Cd  Cd6  1  0.41507685  0.11515277  0.36318605  1
  Cd  Cd7  1  0.29759159  0.31831622  0.49209186  1
  Cd  Cd8  1  0.70240841  0.68168378  0.50790814  1
  Cd  Cd9  1  0.58492315  0.88484723  0.63681395  1
  Mo  Mo10  1  0.02403359  0.71925888  0.38280045  1
  Mo  Mo11  1  0.28074112  0.97596641  0.11719955  1
  Mo  Mo12  1  0.71925888  0.02403359  0.88280045  1
  Mo  Mo13  1  0.97596641  0.28074112  0.61719955  1
  P  P14  1  0.30710029  0.20412243  0.23107936  1
  P  P15  1  0.69289971  0.79587757  0.76892064  1
  P  P16  1  0.17619337  0.76682793  0.00709092  1
  P  P17  1  0.76682793  0.17619337  0.50709092  1
  P  P18  1  0.80658575  0.08288869  0.11282546  1
  P  P19  1  0.52325171  0.61800723  0.37366854  1
  P  P20  1  0.47674829  0.38199277  0.62633146  1
  P  P21  1  0.79587757  0.69289971  0.26892064  1
  P  P22  1  0.08288869  0.80658575  0.61282546  1
  P  P23  1  0.23317207  0.82380663  0.49290908  1
  P  P24  1  0.61800723  0.52325171  0.87366854  1
  P  P25  1  0.19341425  0.91711131  0.88717454  1
  P  P26  1  0.38199277  0.47674829  0.12633146  1
  P  P27  1  0.20412243  0.30710029  0.73107936  1
  P  P28  1  0.91711131  0.19341425  0.38717454  1
  P  P29  1  0.82380663  0.23317207  0.99290908  1
  O  O30  1  0.95521856  0.93133835  0.12544948  1
  O  O31  1  0.89677684  0.18597601  0.05197852  1
  O  O32  1  0.71666524  0.97700106  0.80218858  1
  O  O33  1  0.66634522  0.98248489  0.54012217  1
  O  O34  1  0.11744899  0.26204198  0.25803996  1
  O  O35  1  0.64237878  0.24087319  0.62915720  1
  O  O36  1  0.70420553  0.71084497  0.40195648  1
  O  O37  1  0.41104703  0.43548300  0.90117503  1
  O  O38  1  0.02299894  0.28333476  0.69781142  1
  O  O39  1  0.56451700  0.58895297  0.59882497  1
  O  O40  1  0.41154193  0.39486704  0.18711799  1
  O  O41  1  0.97700106  0.71666524  0.30218858  1
  O  O42  1  0.63497663  0.34439896  0.50307965  1
  O  O43  1  0.98319065  0.59779550  0.60593041  1
  O  O44  1  0.03226486  0.74154181  0.47180819  1
  O  O45  1  0.39486704  0.41154193  0.68711799  1
  O  O46  1  0.53748877  0.81727192  0.72816852  1
  O  O47  1  0.96773514  0.25845819  0.52819181  1
  O  O48  1  0.04478144  0.06866165  0.87455052  1
  O  O49  1  0.75912681  0.35762122  0.87084280  1
  O  O50  1  0.36502337  0.65560104  0.49692035  1
  O  O51  1  0.26204198  0.11744899  0.75803996  1
  O  O52  1  0.06866165  0.04478144  0.37455052  1
  O  O53  1  0.35762122  0.75912681  0.37084280  1
  O  O54  1  0.93133835  0.95521856  0.62544948  1
  O  O55  1  0.01751511  0.33365478  0.95987783  1
  O  O56  1  0.29579447  0.28915503  0.59804352  1
  O  O57  1  0.58895297  0.56451700  0.09882497  1
  O  O58  1  0.81402399  0.10322316  0.44802148  1
  O  O59  1  0.46251123  0.18272808  0.27183148  1
  O  O60  1  0.71084497  0.70420553  0.90195648  1
  O  O61  1  0.33365478  0.01751511  0.45987783  1
  O  O62  1  0.98248489  0.66634522  0.04012217  1
  O  O63  1  0.75308367  0.18058567  0.34928978  1
  O  O64  1  0.40220450  0.01680935  0.89406959  1
  O  O65  1  0.18597601  0.89677684  0.55197852  1
  O  O66  1  0.60513296  0.58845807  0.31288201  1
  O  O67  1  0.10322316  0.81402399  0.94802148  1
  O  O68  1  0.73795802  0.88255101  0.24196004  1
  O  O69  1  0.81941433  0.24691633  0.15071022  1
  O  O70  1  0.34439896  0.63497663  0.00307965  1
  O  O71  1  0.28333476  0.02299894  0.19781142  1
  O  O72  1  0.18058567  0.75308367  0.84928978  1
  O  O73  1  0.28915503  0.29579447  0.09804352  1
  O  O74  1  0.24691633  0.81941433  0.65071022  1
  O  O75  1  0.59779550  0.98319065  0.10593041  1
  O  O76  1  0.24087319  0.64237878  0.12915720  1
  O  O77  1  0.25845819  0.96773514  0.02819181  1
  O  O78  1  0.88255101  0.73795802  0.74196004  1
  O  O79  1  0.65560104  0.36502337  0.99692035  1
  O  O80  1  0.58845807  0.60513296  0.81288201  1
  O  O81  1  0.01680935  0.40220450  0.39406959  1
  O  O82  1  0.18272808  0.46251123  0.77183148  1
  O  O83  1  0.81727192  0.53748877  0.22816852  1
  O  O84  1  0.43548300  0.41104703  0.40117503  1
  O  O85  1  0.74154181  0.03226486  0.97180819  1
