# generated using pymatgen
data_ZnS
_symmetry_space_group_name_H-M   'P 1'
_cell_length_a   3.80712216
_cell_length_b   3.80712232
_cell_length_c   62.27760984
_cell_angle_alpha   90.00000000
_cell_angle_beta   90.00000000
_cell_angle_gamma   119.99998971
_symmetry_Int_Tables_number   1
_chemical_formula_structural   ZnS
_chemical_formula_sum   'Zn20 S20'
_cell_volume   781.72905965
_cell_formula_units_Z   20
loop_
 _symmetry_equiv_pos_site_id
 _symmetry_equiv_pos_as_xyz
  1  'x, y, z'
loop_
 _atom_site_type_symbol
 _atom_site_label
 _atom_site_symmetry_multiplicity
 _atom_site_fract_x
 _atom_site_fract_y
 _atom_site_fract_z
 _atom_site_occupancy
  Zn  Zn0  1  0.33333300  0.66666700  0.04998799  1
  Zn  Zn1  1  0.66666700  0.33333300  0.79997989  1
  Zn  Zn2  1  0.33333300  0.66666700  0.69993361  1
  Zn  Zn3  1  0.00000000  0.00000000  0.30001760  1
  Zn  Zn4  1  0.66666700  0.33333300  0.35003612  1
  Zn  Zn5  1  0.66666700  0.33333300  0.49998531  1
  Zn  Zn6  1  0.66666700  0.33333300  0.94994302  1
  Zn  Zn7  1  0.66666700  0.33333300  0.10008130  1
  Zn  Zn8  1  0.00000000  -0.00000000  0.64997453  1
  Zn  Zn9  1  0.33333300  0.66666700  0.55012389  1
  Zn  Zn10  1  0.66666700  0.33333300  0.60015053  1
  Zn  Zn11  1  0.00000000  0.00000000  -0.00000900  1
  Zn  Zn12  1  -0.00000000  0.00000000  0.45001670  1
  Zn  Zn13  1  0.33333300  0.66666700  0.40008502  1
  Zn  Zn14  1  0.00000000  -0.00000000  0.89997325  1
  Zn  Zn15  1  0.00000000  -0.00000000  0.15001982  1
  Zn  Zn16  1  0.33333300  0.66666700  0.85006633  1
  Zn  Zn17  1  0.33333300  0.66666700  0.19999610  1
  Zn  Zn18  1  0.00000000  -0.00000000  0.74998127  1
  Zn  Zn19  1  0.66666700  0.33333300  0.25005328  1
  S  S20  1  0.00000000  -0.00000000  0.33751368  1
  S  S21  1  0.66666700  0.33333300  0.83747888  1
  S  S22  1  0.00000000  -0.00000000  0.93738914  1
  S  S23  1  0.33333300  0.66666700  0.88750445  1
  S  S24  1  0.66666700  0.33333300  0.28747745  1
  S  S25  1  0.33333300  0.66666700  0.58762247  1
  S  S26  1  0.33333300  0.66666700  0.08748756  1
  S  S27  1  -0.00000000  0.00000000  0.03744551  1
  S  S28  1  0.00000000  -0.00000000  0.78743695  1
  S  S29  1  0.66666700  0.33333300  0.38750798  1
  S  S30  1  0.33333300  0.66666700  0.73744034  1
  S  S31  1  0.33333300  0.66666700  0.23748417  1
  S  S32  1  0.00000000  -0.00000000  0.48746460  1
  S  S33  1  0.66666700  0.33333300  0.98745040  1
  S  S34  1  0.66666700  0.33333300  0.53746684  1
  S  S35  1  0.66666700  0.33333300  0.63753641  1
  S  S36  1  0.66666700  0.33333300  0.13752628  1
  S  S37  1  -0.00000000  0.00000000  0.68737851  1
  S  S38  1  0.33333300  0.66666700  0.43752617  1
  S  S39  1  0.00000000  -0.00000000  0.18746865  1
