# generated using pymatgen
data_ZnS
_symmetry_space_group_name_H-M   'P 1'
_cell_length_a   3.80963038
_cell_length_b   3.80962952
_cell_length_c   87.16336220
_cell_angle_alpha   90.00000000
_cell_angle_beta   90.00000000
_cell_angle_gamma   119.99998976
_symmetry_Int_Tables_number   1
_chemical_formula_structural   ZnS
_chemical_formula_sum   'Zn28 S28'
_cell_volume   1095.54503643
_cell_formula_units_Z   28
loop_
 _symmetry_equiv_pos_site_id
 _symmetry_equiv_pos_as_xyz
  1  'x, y, z'
loop_
 _atom_site_type_symbol
 _atom_site_label
 _atom_site_symmetry_multiplicity
 _atom_site_fract_x
 _atom_site_fract_y
 _atom_site_fract_z
 _atom_site_occupancy
  Zn  Zn0  1  0.66666700  0.33333300  0.07144736  1
  Zn  Zn1  1  -0.00000000  0.00000000  0.92857436  1
  Zn  Zn2  1  -0.00000000  -0.00000000  0.32142960  1
  Zn  Zn3  1  0.00000000  -0.00000000  0.67860175  1
  Zn  Zn4  1  0.33333300  0.66666700  0.14286598  1
  Zn  Zn5  1  0.33333300  0.66666700  0.35714563  1
  Zn  Zn6  1  0.66666700  0.33333300  0.39284445  1
  Zn  Zn7  1  0.66666700  0.33333300  0.57142124  1
  Zn  Zn8  1  0.66666700  0.33333300  0.46431124  1
  Zn  Zn9  1  -0.00000000  0.00000000  0.21429002  1
  Zn  Zn10  1  0.66666700  0.33333300  0.64289617  1
  Zn  Zn11  1  -0.00000000  0.00000000  0.78568395  1
  Zn  Zn12  1  0.33333300  0.66666700  0.89288985  1
  Zn  Zn13  1  0.33333300  0.66666700  0.60715117  1
  Zn  Zn14  1  0.33333300  0.66666700  0.82141866  1
  Zn  Zn15  1  0.66666700  0.33333300  0.28569055  1
  Zn  Zn16  1  0.66666700  0.33333300  0.85715576  1
  Zn  Zn17  1  -0.00000000  0.00000000  0.53569500  1
  Zn  Zn18  1  0.66666700  0.33333300  0.96427939  1
  Zn  Zn19  1  -0.00000000  -0.00000000  0.10716037  1
  Zn  Zn20  1  0.33333300  0.66666700  0.03570248  1
  Zn  Zn21  1  0.33333300  0.66666700  0.25001940  1
  Zn  Zn22  1  0.66666700  0.33333300  0.17860034  1
  Zn  Zn23  1  -0.00000000  0.00000000  0.00004229  1
  Zn  Zn24  1  0.66666700  0.33333300  0.75002305  1
  Zn  Zn25  1  0.33333300  0.66666700  0.71428640  1
  Zn  Zn26  1  -0.00000000  0.00000000  0.42859809  1
  Zn  Zn27  1  0.33333300  0.66666700  0.50003037  1
  S  S28  1  0.66666700  0.33333300  0.20536198  1
  S  S29  1  -0.00000000  0.00000000  0.34820119  1
  S  S30  1  0.33333300  0.66666700  0.84818174  1
  S  S31  1  0.66666700  0.33333300  0.49106823  1
  S  S32  1  0.33333300  0.66666700  0.74106069  1
  S  S33  1  0.33333300  0.66666700  0.27677807  1
  S  S34  1  -0.00000000  0.00000000  0.45539588  1
  S  S35  1  0.66666700  0.33333300  0.88395996  1
  S  S36  1  -0.00000000  0.00000000  0.02678364  1
  S  S37  1  0.66666700  0.33333300  0.59818007  1
  S  S38  1  0.33333300  0.66666700  0.63395760  1
  S  S39  1  0.66666700  0.33333300  0.41960772  1
  S  S40  1  0.33333300  0.66666700  0.06247600  1
  S  S41  1  0.66666700  0.33333300  0.09822078  1
  S  S42  1  -0.00000000  0.00000000  0.13392203  1
  S  S43  1  0.66666700  0.33333300  0.31246905  1
  S  S44  1  0.66666700  0.33333300  0.77677376  1
  S  S45  1  0.66666700  0.33333300  0.66965312  1
  S  S46  1  0.33333300  0.66666700  0.52678271  1
  S  S47  1  -0.00000000  0.00000000  0.24107048  1
  S  S48  1  -0.00000000  0.00000000  0.70536193  1
  S  S49  1  0.66666700  0.33333300  0.99108356  1
  S  S50  1  -0.00000000  0.00000000  0.95531861  1
  S  S51  1  0.33333300  0.66666700  0.38391297  1
  S  S52  1  0.33333300  0.66666700  0.91964676  1
  S  S53  1  -0.00000000  -0.00000000  0.81246348  1
  S  S54  1  -0.00000000  0.00000000  0.56247553  1
  S  S55  1  0.33333300  0.66666700  0.16963956  1
