# generated using pymatgen
data_RbTeF5
_symmetry_space_group_name_H-M   'P 1'
_cell_length_a   6.25169732
_cell_length_b   11.31806509
_cell_length_c   13.74546932
_cell_angle_alpha   90.00000000
_cell_angle_beta   90.00000000
_cell_angle_gamma   90.00000000
_symmetry_Int_Tables_number   1
_chemical_formula_structural   RbTeF5
_chemical_formula_sum   'Rb8 Te8 F40'
_cell_volume   972.58978352
_cell_formula_units_Z   8
loop_
 _symmetry_equiv_pos_site_id
 _symmetry_equiv_pos_as_xyz
  1  'x, y, z'
loop_
 _atom_site_type_symbol
 _atom_site_label
 _atom_site_symmetry_multiplicity
 _atom_site_fract_x
 _atom_site_fract_y
 _atom_site_fract_z
 _atom_site_occupancy
  Rb  Rb0  1  0.75000000  0.50971024  0.09619403  1
  Rb  Rb1  1  0.25000000  0.66098949  0.59700646  1
  Rb  Rb2  1  0.75000000  0.16098949  0.90299354  1
  Rb  Rb3  1  0.75000000  0.99028976  0.59619403  1
  Rb  Rb4  1  0.25000000  0.83901051  0.09700646  1
  Rb  Rb5  1  0.25000000  0.49028976  0.90380597  1
  Rb  Rb6  1  0.75000000  0.33901051  0.40299354  1
  Rb  Rb7  1  0.25000000  0.00971024  0.40380597  1
  Te  Te8  1  0.75000000  0.78358308  0.92044726  1
  Te  Te9  1  0.75000000  0.71641692  0.42044726  1
  Te  Te10  1  0.25000000  0.21641692  0.07955274  1
  Te  Te11  1  0.25000000  0.28358308  0.57955274  1
  Te  Te12  1  0.75000000  0.03664998  0.23948510  1
  Te  Te13  1  0.25000000  0.53664998  0.26051490  1
  Te  Te14  1  0.25000000  0.96335002  0.76051490  1
  Te  Te15  1  0.75000000  0.46335002  0.73948510  1
  F  F16  1  0.75000000  0.01594054  0.37794017  1
  F  F17  1  0.96513797  0.91176119  0.92066959  1
  F  F18  1  0.75000000  0.48405946  0.87794017  1
  F  F19  1  0.52259541  0.58514141  0.75561772  1
  F  F20  1  0.47740459  0.08514141  0.74438228  1
  F  F21  1  0.02083009  0.17883300  0.52625449  1
  F  F22  1  0.75000000  0.67411267  0.55414747  1
  F  F23  1  0.47916991  0.32116700  0.02625449  1
  F  F24  1  0.25000000  0.17411267  0.94585253  1
  F  F25  1  0.02083009  0.32116700  0.02625449  1
  F  F26  1  0.75000000  0.82588733  0.05414747  1
  F  F27  1  0.02259541  0.41485859  0.24438228  1
  F  F28  1  0.52259541  0.91485859  0.25561772  1
  F  F29  1  0.47740459  0.41485859  0.24438228  1
  F  F30  1  0.96513797  0.58823881  0.42066959  1
  F  F31  1  0.03486203  0.41176119  0.57933041  1
  F  F32  1  0.97916991  0.82116700  0.47374551  1
  F  F33  1  0.02259541  0.08514141  0.74438228  1
  F  F34  1  0.53486203  0.58823881  0.42066959  1
  F  F35  1  0.03247591  0.84528236  0.72041232  1
  F  F36  1  0.25000000  0.51594054  0.12205983  1
  F  F37  1  0.25000000  0.98405946  0.62205983  1
  F  F38  1  0.52083009  0.82116700  0.47374551  1
  F  F39  1  0.53486203  0.91176119  0.92066959  1
  F  F40  1  0.96752409  0.15471764  0.27958768  1
  F  F41  1  0.97916991  0.67883300  0.97374551  1
  F  F42  1  0.52083009  0.67883300  0.97374551  1
  F  F43  1  0.97740459  0.58514141  0.75561772  1
  F  F44  1  0.53247591  0.15471764  0.27958768  1
  F  F45  1  0.97740459  0.91485859  0.25561772  1
  F  F46  1  0.46752409  0.84528236  0.72041232  1
  F  F47  1  0.53247591  0.34528236  0.77958768  1
  F  F48  1  0.03247591  0.65471764  0.22041232  1
  F  F49  1  0.03486203  0.08823881  0.07933041  1
  F  F50  1  0.47916991  0.17883300  0.52625449  1
  F  F51  1  0.25000000  0.32588733  0.44585253  1
  F  F52  1  0.46513797  0.41176119  0.57933041  1
  F  F53  1  0.46513797  0.08823881  0.07933041  1
  F  F54  1  0.96752409  0.34528236  0.77958768  1
  F  F55  1  0.46752409  0.65471764  0.22041232  1
