# generated using pymatgen
data_Ga2Te2Cl7
_symmetry_space_group_name_H-M   'P 1'
_cell_length_a   11.25712405
_cell_length_b   9.32439531
_cell_length_c   13.25462122
_cell_angle_alpha   87.99906994
_cell_angle_beta   90.00000000
_cell_angle_gamma   90.00000000
_symmetry_Int_Tables_number   1
_chemical_formula_structural   Ga2Te2Cl7
_chemical_formula_sum   'Ga8 Te8 Cl28'
_cell_volume   1390.43458947
_cell_formula_units_Z   4
loop_
 _symmetry_equiv_pos_site_id
 _symmetry_equiv_pos_as_xyz
  1  'x, y, z'
loop_
 _atom_site_type_symbol
 _atom_site_label
 _atom_site_symmetry_multiplicity
 _atom_site_fract_x
 _atom_site_fract_y
 _atom_site_fract_z
 _atom_site_occupancy
  Ga  Ga0  1  0.57925033  0.25957856  0.15892556  1
  Ga  Ga1  1  0.07925033  0.74042144  0.34107444  1
  Ga  Ga2  1  0.42074967  0.74042144  0.84107444  1
  Ga  Ga3  1  0.92074967  0.25957856  0.65892556  1
  Ga  Ga4  1  0.68084852  0.87738477  0.20357537  1
  Ga  Ga5  1  0.18084852  0.12261523  0.29642463  1
  Ga  Ga6  1  0.31915148  0.12261523  0.79642463  1
  Ga  Ga7  1  0.81915148  0.87738477  0.70357537  1
  Te  Te8  1  0.84410221  0.56503295  0.96548343  1
  Te  Te9  1  0.34410221  0.43496705  0.53451657  1
  Te  Te10  1  0.15589779  0.43496705  0.03451657  1
  Te  Te11  1  0.65589779  0.56503295  0.46548343  1
  Te  Te12  1  0.93558041  0.32180393  0.04964266  1
  Te  Te13  1  0.43558041  0.67819607  0.45035734  1
  Te  Te14  1  0.06441959  0.67819607  0.95035734  1
  Te  Te15  1  0.56441959  0.32180393  0.54964266  1
  Cl  Cl16  1  0.41836268  0.36626330  0.20087879  1
  Cl  Cl17  1  0.91836268  0.63373670  0.29912121  1
  Cl  Cl18  1  0.58163732  0.63373670  0.79912121  1
  Cl  Cl19  1  0.08163732  0.36626330  0.70087879  1
  Cl  Cl20  1  0.64208425  0.31667286  0.00694249  1
  Cl  Cl21  1  0.14208425  0.68332714  0.49305751  1
  Cl  Cl22  1  0.35791575  0.68332714  0.99305751  1
  Cl  Cl23  1  0.85791575  0.31667286  0.50694249  1
  Cl  Cl24  1  0.72075906  0.26960173  0.26746553  1
  Cl  Cl25  1  0.22075906  0.73039827  0.23253447  1
  Cl  Cl26  1  0.27924094  0.73039827  0.73253447  1
  Cl  Cl27  1  0.77924094  0.26960173  0.76746553  1
  Cl  Cl28  1  0.52595273  0.02185543  0.14410837  1
  Cl  Cl29  1  0.02595273  0.97814457  0.35589163  1
  Cl  Cl30  1  0.47404727  0.97814457  0.85589163  1
  Cl  Cl31  1  0.97404727  0.02185543  0.64410837  1
  Cl  Cl32  1  0.67244855  0.89543858  0.36706492  1
  Cl  Cl33  1  0.17244855  0.10456142  0.13293508  1
  Cl  Cl34  1  0.32755145  0.10456142  0.63293508  1
  Cl  Cl35  1  0.82755145  0.89543858  0.86706492  1
  Cl  Cl36  1  0.83823939  0.95662748  0.12906457  1
  Cl  Cl37  1  0.33823939  0.04337252  0.37093543  1
  Cl  Cl38  1  0.16176061  0.04337252  0.87093543  1
  Cl  Cl39  1  0.66176061  0.95662748  0.62906457  1
  Cl  Cl40  1  0.62408507  0.66831403  0.15943567  1
  Cl  Cl41  1  0.12408507  0.33168597  0.34056433  1
  Cl  Cl42  1  0.37591493  0.33168597  0.84056433  1
  Cl  Cl43  1  0.87591493  0.66831403  0.65943567  1
