# generated using pymatgen
data_RbAuCl4
_symmetry_space_group_name_H-M   'P 1'
_cell_length_a   5.88056476
_cell_length_b   6.90008214
_cell_length_c   9.92933226
_cell_angle_alpha   100.86018339
_cell_angle_beta   90.00000000
_cell_angle_gamma   115.22175883
_symmetry_Int_Tables_number   1
_chemical_formula_structural   RbAuCl4
_chemical_formula_sum   'Rb2 Au2 Cl8'
_cell_volume   356.49380562
_cell_formula_units_Z   2
loop_
 _symmetry_equiv_pos_site_id
 _symmetry_equiv_pos_as_xyz
  1  'x, y, z'
loop_
 _atom_site_type_symbol
 _atom_site_label
 _atom_site_symmetry_multiplicity
 _atom_site_fract_x
 _atom_site_fract_y
 _atom_site_fract_z
 _atom_site_occupancy
  Rb  Rb0  1  0.72698315  0.50000000  0.25000000  1
  Rb  Rb1  1  0.27301685  0.50000000  0.75000000  1
  Au  Au2  1  -0.00000000  -0.00000000  -0.00000000  1
  Au  Au3  1  0.50000000  -0.00000000  0.50000000  1
  Cl  Cl4  1  0.83032615  0.62593651  0.93037158  1
  Cl  Cl5  1  0.31245273  0.03761127  0.85255174  1
  Cl  Cl6  1  0.70438864  0.37406349  0.56962842  1
  Cl  Cl7  1  0.16967385  0.37406349  0.06962842  1
  Cl  Cl8  1  0.68754727  0.96238873  0.14744826  1
  Cl  Cl9  1  0.77484146  0.96238873  0.64744826  1
  Cl  Cl10  1  0.22515854  0.03761127  0.35255174  1
  Cl  Cl11  1  0.29561136  0.62593651  0.43037158  1
