# generated using pymatgen
data_Sb3O2F5
_symmetry_space_group_name_H-M   'P 1'
_cell_length_a   5.88998659
_cell_length_b   9.03582187
_cell_length_c   13.12133252
_cell_angle_alpha   72.63657262
_cell_angle_beta   90.00000000
_cell_angle_gamma   90.00000000
_symmetry_Int_Tables_number   1
_chemical_formula_structural   Sb3O2F5
_chemical_formula_sum   'Sb12 O8 F20'
_cell_volume   666.50659681
_cell_formula_units_Z   4
loop_
 _symmetry_equiv_pos_site_id
 _symmetry_equiv_pos_as_xyz
  1  'x, y, z'
loop_
 _atom_site_type_symbol
 _atom_site_label
 _atom_site_symmetry_multiplicity
 _atom_site_fract_x
 _atom_site_fract_y
 _atom_site_fract_z
 _atom_site_occupancy
  Sb  Sb0  1  0.96218484  0.75000000  -0.00000000  1
  Sb  Sb1  1  0.03781516  0.25000000  -0.00000000  1
  Sb  Sb2  1  0.56267237  0.87805114  0.20777785  1
  Sb  Sb3  1  0.56267237  0.62194886  0.79222215  1
  Sb  Sb4  1  0.43732763  0.12194886  0.79222215  1
  Sb  Sb5  1  0.43732763  0.37805114  0.20777785  1
  Sb  Sb6  1  0.61164226  0.75000000  0.50000000  1
  Sb  Sb7  1  0.38835774  0.25000000  0.50000000  1
  Sb  Sb8  1  0.95851914  0.58118284  0.36155767  1
  Sb  Sb9  1  0.95851914  0.91881716  0.63844233  1
  Sb  Sb10  1  0.04148086  0.41881716  0.63844233  1
  Sb  Sb11  1  0.04148086  0.08118284  0.36155767  1
  O  O12  1  0.73679608  0.77794333  0.33913774  1
  O  O13  1  0.73679608  0.72205667  0.66086226  1
  O  O14  1  0.26320392  0.22205667  0.66086226  1
  O  O15  1  0.26320392  0.27794333  0.33913774  1
  O  O16  1  0.83150222  0.92430691  0.49254867  1
  O  O17  1  0.83150222  0.57569309  0.50745133  1
  O  O18  1  0.16849778  0.07569309  0.50745133  1
  O  O19  1  0.16849778  0.42430691  0.49254867  1
  F  F20  1  0.19787906  0.73434284  0.35958161  1
  F  F21  1  0.19787906  0.76565716  0.64041839  1
  F  F22  1  0.80212094  0.26565716  0.64041839  1
  F  F23  1  0.80212094  0.23434284  0.35958161  1
  F  F24  1  0.73630257  0.91454346  0.95998579  1
  F  F25  1  0.73630257  0.58545654  0.04001421  1
  F  F26  1  0.26369743  0.08545654  0.04001421  1
  F  F27  1  0.26369743  0.41454346  0.95998579  1
  F  F28  1  0.54436983  0.51218217  0.29594160  1
  F  F29  1  0.54436983  0.98781783  0.70405840  1
  F  F30  1  0.45563017  0.48781783  0.70405840  1
  F  F31  1  0.45563017  0.01218217  0.29594160  1
  F  F32  1  0.86952545  0.76825121  0.15110755  1
  F  F33  1  0.86952545  0.73174879  0.84889245  1
  F  F34  1  0.13047455  0.23174879  0.84889245  1
  F  F35  1  0.13047455  0.26825121  0.15110755  1
  F  F36  1  0.22533479  0.94929252  0.84383295  1
  F  F37  1  0.22533479  0.55070748  0.15616705  1
  F  F38  1  0.77466521  0.05070748  0.15616705  1
  F  F39  1  0.77466521  0.44929252  0.84383295  1
