# generated using pymatgen
data_ZnS
_symmetry_space_group_name_H-M   'P 1'
_cell_length_a   3.80885506
_cell_length_b   3.80885506
_cell_length_c   68.45229874
_cell_angle_alpha   90.00000000
_cell_angle_beta   90.00000000
_cell_angle_gamma   120.00001494
_symmetry_Int_Tables_number   1
_chemical_formula_structural   ZnS
_chemical_formula_sum   'Zn22 S22'
_cell_volume   860.01791196
_cell_formula_units_Z   22
loop_
 _symmetry_equiv_pos_site_id
 _symmetry_equiv_pos_as_xyz
  1  'x, y, z'
loop_
 _atom_site_type_symbol
 _atom_site_label
 _atom_site_symmetry_multiplicity
 _atom_site_fract_x
 _atom_site_fract_y
 _atom_site_fract_z
 _atom_site_occupancy
  Zn  Zn0  1  -0.00000000  -0.00000000  0.36361795  1
  Zn  Zn1  1  -0.00000000  0.00000000  0.63638139  1
  Zn  Zn2  1  0.33333300  0.66666700  0.86362514  1
  Zn  Zn3  1  0.66666700  0.33333300  0.31817052  1
  Zn  Zn4  1  0.66666700  0.33333300  0.95452302  1
  Zn  Zn5  1  0.66666700  0.33333300  0.04548066  1
  Zn  Zn6  1  0.33333300  0.66666700  0.54546258  1
  Zn  Zn7  1  0.33333300  0.66666700  0.27272657  1
  Zn  Zn8  1  0.33333300  0.66666700  0.13639034  1
  Zn  Zn9  1  0.00000000  -0.00000000  0.90908635  1
  Zn  Zn10  1  0.66666700  0.33333300  0.72728122  1
  Zn  Zn11  1  0.66666700  0.33333300  0.59090501  1
  Zn  Zn12  1  0.66666700  0.33333300  0.18182317  1
  Zn  Zn13  1  0.33333300  0.66666700  0.68182046  1
  Zn  Zn14  1  0.00000000  -0.00000000  0.09090802  1
  Zn  Zn15  1  0.33333300  0.66666700  0.40908811  1
  Zn  Zn16  1  -0.00000000  0.00000000  0.77273014  1
  Zn  Zn17  1  0.66666700  0.33333300  0.45452951  1
  Zn  Zn18  1  0.33333300  0.66666700  0.99999643  1
  Zn  Zn19  1  -0.00000000  -0.00000000  0.22729130  1
  Zn  Zn20  1  0.66666700  0.33333300  0.81821174  1
  Zn  Zn21  1  -0.00000000  0.00000000  0.49999093  1
  S  S22  1  0.66666700  0.33333300  0.76134035  1
  S  S23  1  0.33333300  0.66666700  0.89771262  1
  S  S24  1  0.33333300  0.66666700  0.30680177  1
  S  S25  1  0.66666700  0.33333300  0.07954902  1
  S  S26  1  -0.00000000  -0.00000000  0.53408000  1
  S  S27  1  0.66666700  0.33333300  0.85226996  1
  S  S28  1  0.66666700  0.33333300  0.48861125  1
  S  S29  1  -0.00000000  -0.00000000  0.94316718  1
  S  S30  1  -0.00000000  -0.00000000  0.26137003  1
  S  S31  1  -0.00000000  -0.00000000  0.12500234  1
  S  S32  1  0.33333300  0.66666700  0.17046471  1
  S  S33  1  -0.00000000  0.00000000  0.67046146  1
  S  S34  1  -0.00000000  0.00000000  0.39771359  1
  S  S35  1  0.66666700  0.33333300  0.35223943  1
  S  S36  1  0.33333300  0.66666700  0.57954032  1
  S  S37  1  0.66666700  0.33333300  0.21591349  1
  S  S38  1  0.66666700  0.33333300  0.98857970  1
  S  S39  1  0.33333300  0.66666700  0.44317189  1
  S  S40  1  0.33333300  0.66666700  0.71591086  1
  S  S41  1  0.33333300  0.66666700  0.03411550  1
  S  S42  1  0.00000000  -0.00000000  0.80684529  1
  S  S43  1  0.66666700  0.33333300  0.62499765  1
