# generated using pymatgen
data_La2CO5
_symmetry_space_group_name_H-M   'P 1'
_cell_length_a   7.04905708
_cell_length_b   7.04905708
_cell_length_c   16.47944280
_cell_angle_alpha   77.66573556
_cell_angle_beta   77.66573556
_cell_angle_gamma   60.03080975
_symmetry_Int_Tables_number   1
_chemical_formula_structural   La2CO5
_chemical_formula_sum   'La12 C6 O30'
_cell_volume   687.44032798
_cell_formula_units_Z   6
loop_
 _symmetry_equiv_pos_site_id
 _symmetry_equiv_pos_as_xyz
  1  'x, y, z'
loop_
 _atom_site_type_symbol
 _atom_site_label
 _atom_site_symmetry_multiplicity
 _atom_site_fract_x
 _atom_site_fract_y
 _atom_site_fract_z
 _atom_site_occupancy
  La  La0  1  0.13922474  0.96456195  0.59474534  1
  La  La1  1  0.63538321  0.79730064  0.09446671  1
  La  La2  1  0.03543805  0.86077526  0.90525466  1
  La  La3  1  0.86077526  0.03543805  0.40525466  1
  La  La4  1  0.36461679  0.20269936  0.90553329  1
  La  La5  1  0.46789478  0.30497838  0.59686528  1
  La  La6  1  0.30497838  0.46789478  0.09686528  1
  La  La7  1  0.20269936  0.36461679  0.40553329  1
  La  La8  1  0.53210522  0.69502162  0.40313472  1
  La  La9  1  0.69502162  0.53210522  0.90313472  1
  La  La10  1  0.79730064  0.63538321  0.59446671  1
  La  La11  1  0.96456195  0.13922474  0.09474534  1
  C  C12  1  0.80422916  0.19577084  0.75000000  1
  C  C13  1  0.41571150  0.96952523  0.75027095  1
  C  C14  1  0.19577084  0.80422916  0.25000000  1
  C  C15  1  0.96952523  0.41571150  0.25027095  1
  C  C16  1  0.03047477  0.58428850  0.74972905  1
  C  C17  1  0.58428850  0.03047477  0.24972905  1
  O  O18  1  0.18456019  0.02162379  0.44078632  1
  O  O19  1  0.84811126  0.58560869  0.74855701  1
  O  O20  1  0.39272941  0.85553945  0.82048722  1
  O  O21  1  0.81543981  0.97837621  0.55921368  1
  O  O22  1  0.02162379  0.18456019  0.94078632  1
  O  O23  1  0.73967501  0.30756008  0.67913934  1
  O  O24  1  0.14507993  0.31404608  0.55944006  1
  O  O25  1  0.01371976  0.98628024  0.25000000  1
  O  O26  1  0.97837621  0.81543981  0.05921368  1
  O  O27  1  0.90750069  0.44013331  0.17879943  1
  O  O28  1  0.60727059  0.14446055  0.17951278  1
  O  O29  1  0.44013331  0.90750069  0.67879943  1
  O  O30  1  0.65126872  0.48258080  0.05228086  1
  O  O31  1  0.51741920  0.34873128  0.44771914  1
  O  O32  1  0.26032499  0.69243992  0.32086066  1
  O  O33  1  0.31404608  0.14507993  0.05944006  1
  O  O34  1  0.48258080  0.65126872  0.55228086  1
  O  O35  1  0.85492007  0.68595392  0.44055994  1
  O  O36  1  0.68595392  0.85492007  0.94055994  1
  O  O37  1  0.41439131  0.15188874  0.75144299  1
  O  O38  1  0.98628024  0.01371976  0.75000000  1
  O  O39  1  0.69243992  0.26032499  0.82086066  1
  O  O40  1  0.58560869  0.84811126  0.24855701  1
  O  O41  1  0.34873128  0.51741920  0.94771914  1
  O  O42  1  0.15188874  0.41439131  0.25144299  1
  O  O43  1  0.55986669  0.09249931  0.32120057  1
  O  O44  1  0.85553945  0.39272941  0.32048722  1
  O  O45  1  0.30756008  0.73967501  0.17913934  1
  O  O46  1  0.14446055  0.60727059  0.67951278  1
  O  O47  1  0.09249931  0.55986669  0.82120057  1
