# generated using pymatgen
data_GePbO3
_symmetry_space_group_name_H-M   'P 1'
_cell_length_a   9.34683462
_cell_length_b   9.34683462
_cell_length_c   9.34683482
_cell_angle_alpha   113.50188580
_cell_angle_beta   113.50188584
_cell_angle_gamma   113.50187542
_symmetry_Int_Tables_number   1
_chemical_formula_structural   GePbO3
_chemical_formula_sum   'Ge6 Pb6 O18'
_cell_volume   513.91670662
_cell_formula_units_Z   6
loop_
 _symmetry_equiv_pos_site_id
 _symmetry_equiv_pos_as_xyz
  1  'x, y, z'
loop_
 _atom_site_type_symbol
 _atom_site_label
 _atom_site_symmetry_multiplicity
 _atom_site_fract_x
 _atom_site_fract_y
 _atom_site_fract_z
 _atom_site_occupancy
  Ge  Ge0  1  0.51998721  0.25648089  0.65437563  1
  Ge  Ge1  1  0.65437563  0.51998721  0.25648089  1
  Ge  Ge2  1  0.48001279  0.74351911  0.34562437  1
  Ge  Ge3  1  0.74351911  0.34562437  0.48001279  1
  Ge  Ge4  1  0.34562437  0.48001279  0.74351911  1
  Ge  Ge5  1  0.25648089  0.65437563  0.51998721  1
  Pb  Pb6  1  0.99109608  0.29178772  0.83138515  1
  Pb  Pb7  1  0.70821228  0.16861485  0.00890392  1
  Pb  Pb8  1  0.16861485  0.00890392  0.70821228  1
  Pb  Pb9  1  0.29178772  0.83138515  0.99109608  1
  Pb  Pb10  1  0.00890392  0.70821228  0.16861485  1
  Pb  Pb11  1  0.83138515  0.99109608  0.29178772  1
  O  O12  1  0.52066048  0.21867862  0.45294190  1
  O  O13  1  0.73764445  0.31684468  0.84704562  1
  O  O14  1  0.03060170  0.53742260  0.28389175  1
  O  O15  1  0.15295438  0.26235555  0.68315532  1
  O  O16  1  0.71610825  0.96939830  0.46257740  1
  O  O17  1  0.21867862  0.45294190  0.52066048  1
  O  O18  1  0.31684468  0.84704562  0.73764445  1
  O  O19  1  0.28389175  0.03060170  0.53742260  1
  O  O20  1  0.26235555  0.68315532  0.15295438  1
  O  O21  1  0.84704562  0.73764445  0.31684468  1
  O  O22  1  0.45294190  0.52066048  0.21867862  1
  O  O23  1  0.54705810  0.47933952  0.78132138  1
  O  O24  1  0.46257740  0.71610825  0.96939830  1
  O  O25  1  0.78132138  0.54705810  0.47933952  1
  O  O26  1  0.68315532  0.15295438  0.26235555  1
  O  O27  1  0.47933952  0.78132138  0.54705810  1
  O  O28  1  0.96939830  0.46257740  0.71610825  1
  O  O29  1  0.53742260  0.28389175  0.03060170  1
