# generated using pymatgen
data_RbNdTe2
_symmetry_space_group_name_H-M   'P 1'
_cell_length_a   8.93566436
_cell_length_b   8.93566436
_cell_length_c   8.93566432
_cell_angle_alpha   30.12277866
_cell_angle_beta   30.12277866
_cell_angle_gamma   30.12278317
_symmetry_Int_Tables_number   1
_chemical_formula_structural   RbNdTe2
_chemical_formula_sum   'Rb1 Nd1 Te2'
_cell_volume   159.19979939
_cell_formula_units_Z   1
loop_
 _symmetry_equiv_pos_site_id
 _symmetry_equiv_pos_as_xyz
  1  'x, y, z'
loop_
 _atom_site_type_symbol
 _atom_site_label
 _atom_site_symmetry_multiplicity
 _atom_site_fract_x
 _atom_site_fract_y
 _atom_site_fract_z
 _atom_site_occupancy
  Rb  Rb0  1  0.50000000  0.50000000  0.50000000  1
  Nd  Nd1  1  0.00000000  0.00000000  -0.00000000  1
  Te  Te2  1  0.26446269  0.26446269  0.26446269  1
  Te  Te3  1  0.73553731  0.73553731  0.73553731  1
