# generated using pymatgen
data_TaTl(GeO3)3
_symmetry_space_group_name_H-M   'P 1'
_cell_length_a   7.03700893
_cell_length_b   7.03700893
_cell_length_c   10.22177859
_cell_angle_alpha   90.00000000
_cell_angle_beta   90.00000000
_cell_angle_gamma   120.00000365
_symmetry_Int_Tables_number   1
_chemical_formula_structural   TaTl(GeO3)3
_chemical_formula_sum   'Ta2 Tl2 Ge6 O18'
_cell_volume   438.36239334
_cell_formula_units_Z   2
loop_
 _symmetry_equiv_pos_site_id
 _symmetry_equiv_pos_as_xyz
  1  'x, y, z'
loop_
 _atom_site_type_symbol
 _atom_site_label
 _atom_site_symmetry_multiplicity
 _atom_site_fract_x
 _atom_site_fract_y
 _atom_site_fract_z
 _atom_site_occupancy
  Ta  Ta0  1  0.33333300  0.66666700  -0.00000000  1
  Ta  Ta1  1  0.33333300  0.66666700  0.50000000  1
  Tl  Tl2  1  0.66666700  0.33333300  -0.00000000  1
  Tl  Tl3  1  0.66666700  0.33333300  0.50000000  1
  Ge  Ge4  1  0.07192189  0.28929419  0.25000000  1
  Ge  Ge5  1  0.21737231  0.92807811  0.25000000  1
  Ge  Ge6  1  0.71070581  0.78262769  0.25000000  1
  Ge  Ge7  1  0.71070581  0.92807811  0.75000000  1
  Ge  Ge8  1  0.21737231  0.28929419  0.75000000  1
  Ge  Ge9  1  0.07192189  0.78262769  0.75000000  1
  O  O10  1  0.26391246  0.19830479  0.25000000  1
  O  O11  1  0.93439132  0.73608754  0.25000000  1
  O  O12  1  0.80169521  0.06560868  0.25000000  1
  O  O13  1  0.80169521  0.73608754  0.75000000  1
  O  O14  1  0.93439132  0.19830479  0.75000000  1
  O  O15  1  0.26391246  0.06560868  0.75000000  1
  O  O16  1  0.09845343  0.43991821  0.11007711  1
  O  O17  1  0.34146477  0.90154657  0.38992289  1
  O  O18  1  0.56008179  0.65853523  0.38992289  1
  O  O19  1  0.56008179  0.65853523  0.11007711  1
  O  O20  1  0.34146477  0.90154657  0.11007711  1
  O  O21  1  0.56008179  0.90154657  0.88992289  1
  O  O22  1  0.34146477  0.43991821  0.88992289  1
  O  O23  1  0.09845343  0.65853523  0.88992289  1
  O  O24  1  0.34146477  0.43991821  0.61007711  1
  O  O25  1  0.09845343  0.65853523  0.61007711  1
  O  O26  1  0.09845343  0.43991821  0.38992289  1
  O  O27  1  0.56008179  0.90154657  0.61007711  1
