# generated using pymatgen
data_CsCr3O8
_symmetry_space_group_name_H-M   'P 1'
_cell_length_a   5.49029963
_cell_length_b   8.31945763
_cell_length_c   16.09218002
_cell_angle_alpha   90.00272652
_cell_angle_beta   89.99941666
_cell_angle_gamma   89.99998187
_symmetry_Int_Tables_number   1
_chemical_formula_structural   CsCr3O8
_chemical_formula_sum   'Cs4 Cr12 O32'
_cell_volume   735.03148557
_cell_formula_units_Z   4
loop_
 _symmetry_equiv_pos_site_id
 _symmetry_equiv_pos_as_xyz
  1  'x, y, z'
loop_
 _atom_site_type_symbol
 _atom_site_label
 _atom_site_symmetry_multiplicity
 _atom_site_fract_x
 _atom_site_fract_y
 _atom_site_fract_z
 _atom_site_occupancy
  Cs  Cs0  1  0.75000561  0.51267693  0.28136978  1
  Cs  Cs1  1  0.24999701  0.48732330  0.71863697  1
  Cs  Cs2  1  0.24999647  0.01265126  0.21863376  1
  Cs  Cs3  1  0.75000068  0.98735777  0.78136221  1
  Cr  Cr4  1  0.24998974  0.23918181  0.45518555  1
  Cr  Cr5  1  0.74999863  0.04466053  0.39115476  1
  Cr  Cr6  1  0.75000157  0.73917851  0.04481290  1
  Cr  Cr7  1  0.25000103  0.86506353  0.91875574  1
  Cr  Cr8  1  0.75000820  0.76080932  0.54483291  1
  Cr  Cr9  1  0.24999697  0.26079165  0.95517201  1
  Cr  Cr10  1  0.25001463  0.63491704  0.41876352  1
  Cr  Cr11  1  0.25000092  0.95533167  0.60884985  1
  Cr  Cr12  1  0.74999722  0.45532133  0.89115057  1
  Cr  Cr13  1  0.24999943  0.54468006  0.10884307  1
  Cr  Cr14  1  0.74999536  0.36508310  0.58124484  1
  Cr  Cr15  1  0.74999988  0.13495702  0.08123454  1
  O  O16  1  0.25000763  0.08844761  0.68084412  1
  O  O17  1  0.50062255  0.17768911  0.02802449  1
  O  O18  1  0.49963879  0.34113835  0.87946989  1
  O  O19  1  0.50035323  0.65885448  0.12052028  1
  O  O20  1  0.74999986  0.91155501  0.31915415  1
  O  O21  1  0.00035194  0.34113504  0.87947091  1
  O  O22  1  0.25000188  0.06058699  0.89343477  1
  O  O23  1  0.50035483  0.84114958  0.62052857  1
  O  O24  1  0.25000517  0.43939501  0.39343147  1
  O  O25  1  0.00063385  0.82232249  0.97197372  1
  O  O26  1  0.49938785  0.67766544  0.47197447  1
  O  O27  1  -0.00035910  0.84115527  0.62053095  1
  O  O28  1  0.49937516  0.82232372  0.97197294  1
  O  O29  1  0.25000838  0.73090689  0.33221293  1
  O  O30  1  0.00064372  0.67767174  0.47197806  1
  O  O31  1  0.49964951  0.15882861  0.37947426  1
  O  O32  1  0.74999938  0.23094066  0.16779226  1
  O  O33  1  0.74999915  0.53778863  0.98427720  1
  O  O34  1  0.24999963  0.03777305  0.51572057  1
  O  O35  1  0.75000249  0.96220776  0.48427742  1
  O  O36  1  0.24999815  0.46221634  0.01572050  1
  O  O37  1  0.74999733  0.93943740  0.10655613  1
  O  O38  1  -0.00035410  0.65885431  0.12052093  1
  O  O39  1  0.00034618  0.15882930  0.37947282  1
  O  O40  1  0.50061410  0.32232905  0.52803271  1
  O  O41  1  0.24999686  0.41156426  0.18083137  1
  O  O42  1  0.74999024  0.26910824  0.66779586  1
  O  O43  1  -0.00062663  0.17768792  0.02802598  1
  O  O44  1  0.74999293  0.56060821  0.60657869  1
  O  O45  1  0.25000444  0.76908040  0.83220594  1
  O  O46  1  -0.00063825  0.32232787  0.52802943  1
  O  O47  1  0.74999950  0.58843441  0.81916324  1
