# generated using pymatgen
data_RbSb2F7
_symmetry_space_group_name_H-M   'P 1'
_cell_length_a   6.57137924
_cell_length_b   8.69073689
_cell_length_c   12.43197929
_cell_angle_alpha   77.83589476
_cell_angle_beta   90.00000000
_cell_angle_gamma   90.00000000
_symmetry_Int_Tables_number   1
_chemical_formula_structural   RbSb2F7
_chemical_formula_sum   'Rb4 Sb8 F28'
_cell_volume   694.05125651
_cell_formula_units_Z   4
loop_
 _symmetry_equiv_pos_site_id
 _symmetry_equiv_pos_as_xyz
  1  'x, y, z'
loop_
 _atom_site_type_symbol
 _atom_site_label
 _atom_site_symmetry_multiplicity
 _atom_site_fract_x
 _atom_site_fract_y
 _atom_site_fract_z
 _atom_site_occupancy
  Rb  Rb0  1  0.23427077  0.07402449  0.11150183  1
  Rb  Rb1  1  0.26572923  0.57402449  0.11150183  1
  Rb  Rb2  1  0.73427077  0.42597551  0.88849817  1
  Rb  Rb3  1  0.76572923  0.92597551  0.88849817  1
  Sb  Sb4  1  0.76093950  0.28506533  0.22190283  1
  Sb  Sb5  1  0.26093950  0.21493467  0.77809717  1
  Sb  Sb6  1  0.23906050  0.71493467  0.77809717  1
  Sb  Sb7  1  0.73906050  0.78506533  0.22190283  1
  Sb  Sb8  1  0.70952763  0.84394643  0.57986502  1
  Sb  Sb9  1  0.79047237  0.34394643  0.57986502  1
  Sb  Sb10  1  0.29047237  0.15605357  0.42013498  1
  Sb  Sb11  1  0.20952763  0.65605357  0.42013498  1
  F  F12  1  0.43010745  0.83965317  0.49832716  1
  F  F13  1  0.38180703  0.36960309  0.35498290  1
  F  F14  1  0.80087840  0.08228796  0.17606018  1
  F  F15  1  0.88180703  0.13039691  0.64501710  1
  F  F16  1  0.04307065  0.18065780  0.89143824  1
  F  F17  1  0.43968533  0.13315607  0.90317394  1
  F  F18  1  0.45692935  0.68065780  0.89143824  1
  F  F19  1  0.08961686  0.21297095  0.28518809  1
  F  F20  1  0.56031467  0.86684393  0.09682606  1
  F  F21  1  0.06031467  0.63315607  0.90317394  1
  F  F22  1  0.61819297  0.63039691  0.64501710  1
  F  F23  1  0.41038314  0.71297095  0.28518809  1
  F  F24  1  0.95692935  0.81934220  0.10856176  1
  F  F25  1  0.06989255  0.33965317  0.49832716  1
  F  F26  1  0.53149029  0.90475270  0.69380808  1
  F  F27  1  0.93968533  0.36684393  0.09682606  1
  F  F28  1  0.54307065  0.31934220  0.10856176  1
  F  F29  1  0.30087840  0.41771204  0.82393982  1
  F  F30  1  0.03149029  0.59524730  0.30619192  1
  F  F31  1  0.19912160  0.91771204  0.82393982  1
  F  F32  1  0.46850971  0.09524730  0.30619192  1
  F  F33  1  0.96850971  0.40475270  0.69380808  1
  F  F34  1  0.11819297  0.86960309  0.35498290  1
  F  F35  1  0.58961686  0.28702905  0.71481191  1
  F  F36  1  0.56989255  0.16034683  0.50167284  1
  F  F37  1  0.69912160  0.58228796  0.17606018  1
  F  F38  1  0.93010745  0.66034683  0.50167284  1
  F  F39  1  0.91038314  0.78702905  0.71481191  1
