# generated using pymatgen
data_Rb2MoSeO6
_symmetry_space_group_name_H-M   'P 1'
_cell_length_a   6.19431804
_cell_length_b   7.79857809
_cell_length_c   14.41127885
_cell_angle_alpha   90.00000000
_cell_angle_beta   90.00000000
_cell_angle_gamma   90.00000000
_symmetry_Int_Tables_number   1
_chemical_formula_structural   Rb2MoSeO6
_chemical_formula_sum   'Rb8 Mo4 Se4 O24'
_cell_volume   696.16381644
_cell_formula_units_Z   4
loop_
 _symmetry_equiv_pos_site_id
 _symmetry_equiv_pos_as_xyz
  1  'x, y, z'
loop_
 _atom_site_type_symbol
 _atom_site_label
 _atom_site_symmetry_multiplicity
 _atom_site_fract_x
 _atom_site_fract_y
 _atom_site_fract_z
 _atom_site_occupancy
  Rb  Rb0  1  0.25000000  0.87304696  0.46707181  1
  Rb  Rb1  1  0.25000000  0.37304696  0.03292819  1
  Rb  Rb2  1  0.75000000  0.15664548  0.79880128  1
  Rb  Rb3  1  0.75000000  0.12695304  0.53292819  1
  Rb  Rb4  1  0.25000000  0.34335452  0.29880128  1
  Rb  Rb5  1  0.75000000  0.62695304  0.96707181  1
  Rb  Rb6  1  0.75000000  0.65664548  0.70119872  1
  Rb  Rb7  1  0.25000000  0.84335452  0.20119872  1
  Mo  Mo8  1  0.25000000  0.89783401  0.73062450  1
  Mo  Mo9  1  0.75000000  0.60216599  0.23062450  1
  Mo  Mo10  1  0.25000000  0.39783401  0.76937550  1
  Mo  Mo11  1  0.75000000  0.10216599  0.26937550  1
  Se  Se12  1  0.75000000  0.08253072  0.06207031  1
  Se  Se13  1  0.25000000  0.91746928  0.93792969  1
  Se  Se14  1  0.75000000  0.58253072  0.43792969  1
  Se  Se15  1  0.25000000  0.41746928  0.56207031  1
  O  O16  1  0.97437998  0.04854638  0.33552812  1
  O  O17  1  0.95286808  0.11222458  0.14374330  1
  O  O18  1  0.04713192  0.38777542  0.64374330  1
  O  O19  1  0.75000000  0.25849365  0.99731659  1
  O  O20  1  0.25000000  0.66973589  0.72231389  1
  O  O21  1  0.04713192  0.88777542  0.85625670  1
  O  O22  1  0.52562002  0.54854638  0.16447188  1
  O  O23  1  0.02562002  0.45145362  0.83552812  1
  O  O24  1  0.54713192  0.61222458  0.35625670  1
  O  O25  1  0.52562002  0.04854638  0.33552812  1
  O  O26  1  0.25000000  0.16973589  0.77768611  1
  O  O27  1  0.25000000  0.74150635  0.00268341  1
  O  O28  1  0.02562002  0.95145362  0.66447188  1
  O  O29  1  0.45286808  0.38777542  0.64374330  1
  O  O30  1  0.25000000  0.24150635  0.49731659  1
  O  O31  1  0.47437998  0.95145362  0.66447188  1
  O  O32  1  0.75000000  0.33026411  0.27768611  1
  O  O33  1  0.75000000  0.75849365  0.50268341  1
  O  O34  1  0.47437998  0.45145362  0.83552812  1
  O  O35  1  0.95286808  0.61222458  0.35625670  1
  O  O36  1  0.97437998  0.54854638  0.16447188  1
  O  O37  1  0.54713192  0.11222458  0.14374330  1
  O  O38  1  0.45286808  0.88777542  0.85625670  1
  O  O39  1  0.75000000  0.83026411  0.22231389  1
