# generated using pymatgen
data_K3ZnNCl4O3
_symmetry_space_group_name_H-M   'P 1'
_cell_length_a   9.22607372
_cell_length_b   9.65866943
_cell_length_c   11.98452549
_cell_angle_alpha   90.00000000
_cell_angle_beta   90.00000000
_cell_angle_gamma   90.00000000
_symmetry_Int_Tables_number   1
_chemical_formula_structural   K3ZnNCl4O3
_chemical_formula_sum   'K12 Zn4 N4 Cl16 O12'
_cell_volume   1067.96019609
_cell_formula_units_Z   4
loop_
 _symmetry_equiv_pos_site_id
 _symmetry_equiv_pos_as_xyz
  1  'x, y, z'
loop_
 _atom_site_type_symbol
 _atom_site_label
 _atom_site_symmetry_multiplicity
 _atom_site_fract_x
 _atom_site_fract_y
 _atom_site_fract_z
 _atom_site_occupancy
  K  K0  1  0.87484026  0.99380920  0.68238335  1
  K  K1  1  0.87484026  0.50619080  0.68238335  1
  K  K2  1  0.12515974  0.49380920  0.31761665  1
  K  K3  1  0.12515974  0.00619080  0.31761665  1
  K  K4  1  0.57758884  0.75000000  0.46101605  1
  K  K5  1  0.62515974  0.49380920  0.18238335  1
  K  K6  1  0.37484026  0.50619080  0.81761665  1
  K  K7  1  0.92241116  0.25000000  0.96101605  1
  K  K8  1  0.42241116  0.25000000  0.53898395  1
  K  K9  1  0.62515974  0.00619080  0.18238335  1
  K  K10  1  0.07758884  0.75000000  0.03898395  1
  K  K11  1  0.37484026  0.99380920  0.81761665  1
  Zn  Zn12  1  0.17799549  0.75000000  0.59144921  1
  Zn  Zn13  1  0.32200451  0.25000000  0.09144921  1
  Zn  Zn14  1  0.67799549  0.75000000  0.90855079  1
  Zn  Zn15  1  0.82200451  0.25000000  0.40855079  1
  N  N16  1  0.34227069  0.75000000  0.27016731  1
  N  N17  1  0.84227069  0.75000000  0.22983269  1
  N  N18  1  0.65772931  0.25000000  0.72983269  1
  N  N19  1  0.15772931  0.25000000  0.77016731  1
  Cl  Cl20  1  0.12457304  0.75000000  0.77718714  1
  Cl  Cl21  1  0.30734268  0.55853952  0.55062758  1
  Cl  Cl22  1  0.53496465  0.25000000  -0.00245673  1
  Cl  Cl23  1  0.19265732  0.44146048  0.05062758  1
  Cl  Cl24  1  0.62457304  0.75000000  0.72281286  1
  Cl  Cl25  1  0.80734268  0.94146048  0.94937242  1
  Cl  Cl26  1  0.87542696  0.25000000  0.22281286  1
  Cl  Cl27  1  0.19265732  0.05853952  0.05062758  1
  Cl  Cl28  1  0.80734268  0.55853952  0.94937242  1
  Cl  Cl29  1  0.69265732  0.44146048  0.44937242  1
  Cl  Cl30  1  0.03496465  0.25000000  0.50245673  1
  Cl  Cl31  1  0.46503535  0.75000000  0.00245673  1
  Cl  Cl32  1  0.37542696  0.25000000  0.27718714  1
  Cl  Cl33  1  0.96503535  0.75000000  0.49754327  1
  Cl  Cl34  1  0.69265732  0.05853952  0.44937242  1
  Cl  Cl35  1  0.30734268  0.94146048  0.55062758  1
  O  O36  1  0.40595804  0.63664443  0.28672278  1
  O  O37  1  0.59404196  0.13664443  0.71327722  1
  O  O38  1  0.40595804  0.86335557  0.28672278  1
  O  O39  1  0.71092113  0.75000000  0.25962547  1
  O  O40  1  0.28907887  0.25000000  0.74037453  1
  O  O41  1  0.78907887  0.25000000  0.75962547  1
  O  O42  1  0.09404196  0.36335557  0.78672278  1
  O  O43  1  0.09404196  0.13664443  0.78672278  1
  O  O44  1  0.90595804  0.63664443  0.21327722  1
  O  O45  1  0.59404196  0.36335557  0.71327722  1
  O  O46  1  0.21092113  0.75000000  0.24037453  1
  O  O47  1  0.90595804  0.86335557  0.21327722  1
