# generated using pymatgen
data_Sn(S4I)4
_symmetry_space_group_name_H-M   'P 1'
_cell_length_a   15.49178094
_cell_length_b   12.57684171
_cell_length_c   12.27909329
_cell_angle_alpha   77.21176738
_cell_angle_beta   52.28347557
_cell_angle_gamma   50.56097998
_symmetry_Int_Tables_number   1
_chemical_formula_structural   Sn(S4I)4
_chemical_formula_sum   'Sn2 S32 I8'
_cell_volume   1405.74540013
_cell_formula_units_Z   2
loop_
 _symmetry_equiv_pos_site_id
 _symmetry_equiv_pos_as_xyz
  1  'x, y, z'
loop_
 _atom_site_type_symbol
 _atom_site_label
 _atom_site_symmetry_multiplicity
 _atom_site_fract_x
 _atom_site_fract_y
 _atom_site_fract_z
 _atom_site_occupancy
  Sn  Sn0  1  0.24864213  0.25128598  0.25116481  1
  Sn  Sn1  1  -0.00090055  0.00099710  0.00157217  1
  S  S2  1  0.52609253  0.46571674  0.26414123  1
  S  S3  1  0.31697265  0.88508556  0.16803938  1
  S  S4  1  0.74335276  0.26420641  0.46601519  1
  S  S5  1  0.81343078  0.52496083  0.32527826  1
  S  S6  1  0.62993289  0.16808736  0.88524779  1
  S  S7  1  0.18071590  0.30803474  0.64370370  1
  S  S8  1  0.59520207  0.92999868  0.59089198  1
  S  S9  1  0.32235286  0.82015021  0.33380060  1
  S  S10  1  0.63687223  0.64915874  0.33466836  1
  S  S11  1  0.33599382  0.32558779  0.52535754  1
  S  S12  1  0.72497551  0.43637365  0.91368673  1
  S  S13  1  0.78394779  0.72388056  0.50641210  1
  S  S14  1  0.32004262  0.65466677  0.36614341  1
  S  S15  1  0.91566003  0.87080569  0.61297589  1
  S  S16  1  0.60615376  0.38245889  0.06898196  1
  S  S17  1  0.88368091  0.59119493  0.93004378  1
  S  S18  1  0.26667035  0.54496971  0.72893224  1
  S  S19  1  0.70504053  0.98352230  0.79051635  1
  S  S20  1  0.42920356  0.92833370  0.72646199  1
  S  S21  1  0.36443018  0.93334975  0.62012887  1
  S  S22  1  0.37909625  0.33457854  0.64957550  1
  S  S23  1  0.94203562  0.06904395  0.38236794  1
  S  S24  1  0.08182525  0.62049535  0.93318706  1
  S  S25  1  0.52327751  0.33379913  0.82057329  1
  S  S26  1  0.52144975  0.79002645  0.98343277  1
  S  S27  1  0.92464114  0.91376232  0.43678089  1
  S  S28  1  0.65856148  0.36625809  0.65473891  1
  S  S29  1  0.86764396  0.64349445  0.30794176  1
  S  S30  1  0.91599145  0.72673135  0.92765946  1
  S  S31  1  0.60082176  0.61283201  0.87072218  1
  S  S32  1  0.45941683  0.72895759  0.54517141  1
  S  S33  1  0.98522816  0.50638068  0.72426946  1
  I  I34  1  0.23254874  0.76935621  0.97388203  1
  I  I35  1  0.96805962  0.23054662  0.03412860  1
  I  I36  1  0.02448658  0.97447351  0.77012652  1
  I  I37  1  0.76706556  0.03490961  0.23130244  1
  I  I38  1  0.48051986  0.01861170  0.22525046  1
  I  I39  1  0.27596202  0.22430761  0.01849078  1
  I  I40  1  0.21776263  0.48148978  0.28065578  1
  I  I41  1  0.01794250  0.28431797  0.48277442  1
