# generated using pymatgen
data_CdBr2
_symmetry_space_group_name_H-M   'P 1'
_cell_length_a   6.89343696
_cell_length_b   6.89343760
_cell_length_c   6.89343676
_cell_angle_alpha   33.92470195
_cell_angle_beta   33.92469755
_cell_angle_gamma   33.92469245
_symmetry_Int_Tables_number   1
_chemical_formula_structural   CdBr2
_chemical_formula_sum   'Cd1 Br2'
_cell_volume   90.93740051
_cell_formula_units_Z   1
loop_
 _symmetry_equiv_pos_site_id
 _symmetry_equiv_pos_as_xyz
  1  'x, y, z'
loop_
 _atom_site_type_symbol
 _atom_site_label
 _atom_site_symmetry_multiplicity
 _atom_site_fract_x
 _atom_site_fract_y
 _atom_site_fract_z
 _atom_site_occupancy
  Cd  Cd0  1  0.00000000  -0.00000000  0.00000000  1
  Br  Br1  1  0.74690517  0.74690517  0.74690517  1
  Br  Br2  1  0.25309483  0.25309483  0.25309483  1
