# generated using pymatgen
data_ZnS
_symmetry_space_group_name_H-M   'P 1'
_cell_length_a   3.80681365
_cell_length_b   3.80681343
_cell_length_c   62.29478102
_cell_angle_alpha   90.00000000
_cell_angle_beta   90.00000000
_cell_angle_gamma   119.99999310
_symmetry_Int_Tables_number   1
_chemical_formula_structural   ZnS
_chemical_formula_sum   'Zn20 S20'
_cell_volume   781.81776846
_cell_formula_units_Z   20
loop_
 _symmetry_equiv_pos_site_id
 _symmetry_equiv_pos_as_xyz
  1  'x, y, z'
loop_
 _atom_site_type_symbol
 _atom_site_label
 _atom_site_symmetry_multiplicity
 _atom_site_fract_x
 _atom_site_fract_y
 _atom_site_fract_z
 _atom_site_occupancy
  Zn  Zn0  1  0.33333300  0.66666700  0.45006043  1
  Zn  Zn1  1  0.33333300  0.66666700  0.95002106  1
  Zn  Zn2  1  -0.00000000  -0.00000000  0.85001903  1
  Zn  Zn3  1  0.66666700  0.33333300  0.40002809  1
  Zn  Zn4  1  0.66666700  0.33333300  0.90005277  1
  Zn  Zn5  1  0.00000000  -0.00000000  0.30000945  1
  Zn  Zn6  1  0.33333300  0.66666700  0.34999982  1
  Zn  Zn7  1  0.66666700  0.33333300  0.69999094  1
  Zn  Zn8  1  0.66666700  0.33333300  0.10003145  1
  Zn  Zn9  1  0.66666700  0.33333300  0.55002414  1
  Zn  Zn10  1  0.00000000  0.00000000  0.65000713  1
  Zn  Zn11  1  0.33333300  0.66666700  0.05005433  1
  Zn  Zn12  1  -0.00000000  0.00000000  0.00002778  1
  Zn  Zn13  1  0.33333300  0.66666700  0.20001368  1
  Zn  Zn14  1  0.00000000  -0.00000000  0.15001249  1
  Zn  Zn15  1  0.33333300  0.66666700  0.60002559  1
  Zn  Zn16  1  -0.00000000  0.00000000  0.50002460  1
  Zn  Zn17  1  0.66666700  0.33333300  0.25001938  1
  Zn  Zn18  1  0.66666700  0.33333300  0.80003033  1
  Zn  Zn19  1  0.33333300  0.66666700  0.75001377  1
  S  S20  1  -0.00000000  0.00000000  0.33746414  1
  S  S21  1  0.66666700  0.33333300  0.83743878  1
  S  S22  1  0.66666700  0.33333300  0.13747762  1
  S  S23  1  0.33333300  0.66666700  0.63747814  1
  S  S24  1  0.66666700  0.33333300  0.58748318  1
  S  S25  1  0.33333300  0.66666700  0.98744062  1
  S  S26  1  0.00000000  -0.00000000  0.03751744  1
  S  S27  1  0.33333300  0.66666700  0.08748772  1
  S  S28  1  0.66666700  0.33333300  0.73742547  1
  S  S29  1  0.66666700  0.33333300  0.93748486  1
  S  S30  1  0.66666700  0.33333300  0.43752565  1
  S  S31  1  0.66666700  0.33333300  0.28747561  1
  S  S32  1  0.33333300  0.66666700  0.23747415  1
  S  S33  1  -0.00000000  0.00000000  0.53748119  1
  S  S34  1  -0.00000000  0.00000000  0.88751423  1
  S  S35  1  0.33333300  0.66666700  0.48749310  1
  S  S36  1  0.33333300  0.66666700  0.38743684  1
  S  S37  1  0.33333300  0.66666700  0.78750728  1
  S  S38  1  0.00000000  0.00000000  0.68746055  1
  S  S39  1  -0.00000000  0.00000000  0.18746617  1
