# generated using pymatgen
data_Li3Mo3P3O17
_symmetry_space_group_name_H-M   'P 1'
_cell_length_a   8.42275242
_cell_length_b   12.17195849
_cell_length_c   12.98279876
_cell_angle_alpha   89.81041753
_cell_angle_beta   89.82271079
_cell_angle_gamma   82.82056066
_symmetry_Int_Tables_number   1
_chemical_formula_structural   Li3Mo3P3O17
_chemical_formula_sum   'Li12 Mo12 P12 O68'
_cell_volume   1320.56689389
_cell_formula_units_Z   4
loop_
 _symmetry_equiv_pos_site_id
 _symmetry_equiv_pos_as_xyz
  1  'x, y, z'
loop_
 _atom_site_type_symbol
 _atom_site_label
 _atom_site_symmetry_multiplicity
 _atom_site_fract_x
 _atom_site_fract_y
 _atom_site_fract_z
 _atom_site_occupancy
  Li  Li0  1  0.36134333  0.86524255  0.62383802  1
  Li  Li1  1  0.63865667  0.13475745  0.37616198  1
  Li  Li2  1  0.21685787  0.30906257  0.56852738  1
  Li  Li3  1  0.64676822  0.79427437  0.25345061  1
  Li  Li4  1  0.85646378  0.20643534  0.75460358  1
  Li  Li5  1  0.28700731  0.69229916  0.06824610  1
  Li  Li6  1  0.86444963  0.86661354  0.87285254  1
  Li  Li7  1  0.13555037  0.13338646  0.12714746  1
  Li  Li8  1  0.78314213  0.69093743  0.43147262  1
  Li  Li9  1  0.71299269  0.30770084  0.93175390  1
  Li  Li10  1  0.35323178  0.20572563  0.74654939  1
  Li  Li11  1  0.14353622  0.79356466  0.24539642  1
  Mo  Mo12  1  0.84777052  0.60610869  0.87158102  1
  Mo  Mo13  1  0.81133302  0.47964903  0.61792224  1
  Mo  Mo14  1  0.65459925  0.39596529  0.37023316  1
  Mo  Mo15  1  0.25415935  0.01349016  0.38502009  1
  Mo  Mo16  1  0.15222948  0.39389131  0.12841898  1
  Mo  Mo17  1  0.24753525  0.98515768  0.88489743  1
  Mo  Mo18  1  0.31494111  0.47759905  0.88070708  1
  Mo  Mo19  1  0.68505889  0.52240095  0.11929292  1
  Mo  Mo20  1  0.34540075  0.60403471  0.62976684  1
  Mo  Mo21  1  0.18866698  0.52035097  0.38207776  1
  Mo  Mo22  1  0.74584065  0.98650984  0.61497991  1
  Mo  Mo23  1  0.75246475  0.01484232  0.11510257  1
  P  P24  1  0.06052201  0.27360511  0.34977530  1
  P  P25  1  0.56014567  0.27307630  0.15538958  1
  P  P26  1  0.14409064  0.05416096  0.63820268  1
  P  P27  1  0.85590936  0.94583904  0.36179732  1
  P  P28  1  0.43985433  0.72692370  0.84461042  1
  P  P29  1  0.09990298  0.26388030  0.90709599  1
  P  P30  1  0.59709340  0.26646078  0.59518694  1
  P  P31  1  0.35602682  0.94557622  0.13855970  1
  P  P32  1  0.64397318  0.05442378  0.86144030  1
  P  P33  1  0.40290660  0.73353922  0.40481306  1
  P  P34  1  0.93947799  0.72639489  0.65022470  1
  P  P35  1  0.90009702  0.73611970  0.09290401  1
  O  O36  1  0.45094159  0.45022833  0.36501795  1
  O  O37  1  0.16358312  0.35380402  0.40718364  1
  O  O38  1  0.56935731  0.69206947  0.36735431  1
  O  O39  1  0.87234379  0.73587988  0.97345195  1
  O  O40  1  0.95056979  0.44919350  0.11178224  1
  O  O41  1  0.92689810  0.07371105  0.09634858  1
  O  O42  1  0.26763940  0.02396130  0.22390404  1
  O  O43  1  0.80222192  0.83140620  0.35972207  1
  O  O44  1  0.89410694  0.84259716  0.60504996  1
  O  O45  1  0.72261106  0.47735696  0.47618226  1
  O  O46  1  0.62012363  0.69708155  0.84684417  1
  O  O47  1  0.27228231  0.66964262  0.35285417  1
  O  O48  1  0.93110079  0.30602377  0.87536186  1
  O  O49  1  0.10589306  0.15740284  0.39495004  1
  O  O50  1  0.88437175  0.30789218  0.37203309  1
  O  O51  1  0.80514858  0.51688257  0.76501052  1
  O  O52  1  0.51110046  0.41792907  0.88145387  1
  O  O53  1  0.38606528  0.72908466  0.52511106  1
  O  O54  1  0.85642565  0.85628672  0.13220317  1
  O  O55  1  0.43064269  0.30793053  0.63264569  1
  O  O56  1  0.20144744  0.98606709  0.53835909  1
  O  O57  1  0.72373157  0.47737516  0.26372979  1
  O  O58  1  0.64231109  0.14486984  0.63033395  1
  O  O59  1  0.06889921  0.69397623  0.12463814  1
  O  O60  1  0.48889954  0.58207093  0.11854613  1
  O  O61  1  0.60361274  0.15942267  0.10447885  1
  O  O62  1  0.37881299  0.73265117  0.73090721  1
  O  O63  1  0.35252840  0.64172921  0.90861585  1
  O  O64  1  0.12765621  0.26412012  0.02654805  1
  O  O65  1  0.37987637  0.30291845  0.15315583  1
  O  O66  1  0.04943021  0.55080650  0.88821776  1
  O  O67  1  0.14357435  0.14371328  0.86779683  1
  O  O68  1  0.72771769  0.33035738  0.64714583  1
  O  O69  1  0.07310190  0.92628895  0.90365142  1
  O  O70  1  0.42832218  0.07263725  0.40262704  1
  O  O71  1  0.53986983  0.93772727  0.15348247  1
  O  O72  1  0.70083736  0.98762328  0.96197017  1
  O  O73  1  0.27738894  0.52264304  0.52381774  1
  O  O74  1  0.62118701  0.26734883  0.26909279  1
  O  O75  1  0.90451875  0.72831872  0.76836459  1
  O  O76  1  0.74849003  0.53430823  0.97266922  1
  O  O77  1  0.57167782  0.92736275  0.59737296  1
  O  O78  1  0.96007433  0.06263941  0.65321103  1
  O  O79  1  0.09548125  0.27168128  0.23163541  1
  O  O80  1  0.54905841  0.54977167  0.63498205  1
  O  O81  1  0.46013017  0.06227273  0.84651753  1
  O  O82  1  0.29916264  0.01237672  0.03802983  1
  O  O83  1  0.19777808  0.16859380  0.64027793  1
  O  O84  1  0.79855256  0.01393291  0.46164091  1
  O  O85  1  0.73236060  0.97603870  0.77609596  1
  O  O86  1  0.77393486  0.66981264  0.14749465  1
  O  O87  1  0.99331594  0.57915132  0.39711482  1
  O  O88  1  0.00668406  0.42084868  0.60288518  1
  O  O89  1  0.39638726  0.84057733  0.89552115  1
  O  O90  1  0.61393472  0.27091534  0.47488894  1
  O  O91  1  0.83641688  0.64619598  0.59281636  1
  O  O92  1  0.25150997  0.46569177  0.02733078  1
  O  O93  1  0.19485142  0.48311743  0.23498948  1
  O  O94  1  0.11562825  0.69210782  0.62796691  1
  O  O95  1  0.03992567  0.93736059  0.34678897  1
  O  O96  1  0.22606514  0.33018736  0.85250535  1
  O  O97  1  0.76778709  0.02392055  0.27604639  1
  O  O98  1  0.35768891  0.85513016  0.36966605  1
  O  O99  1  0.27626843  0.52262484  0.73627021  1
  O  O100  1  0.30304786  0.83100467  0.14235588  1
  O  O101  1  0.64747160  0.35827079  0.09138415  1
  O  O102  1  0.23221291  0.97607945  0.72395361  1
  O  O103  1  0.69695214  0.16899533  0.85764412  1
