# generated using pymatgen
data_Sr2RhF7
_symmetry_space_group_name_H-M   'P 1'
_cell_length_a   11.67757002
_cell_length_b   5.51078606
_cell_length_c   8.62421066
_cell_angle_alpha   89.31127450
_cell_angle_beta   90.00000000
_cell_angle_gamma   90.00000000
_symmetry_Int_Tables_number   1
_chemical_formula_structural   Sr2RhF7
_chemical_formula_sum   'Sr8 Rh4 F28'
_cell_volume   554.95019839
_cell_formula_units_Z   4
loop_
 _symmetry_equiv_pos_site_id
 _symmetry_equiv_pos_as_xyz
  1  'x, y, z'
loop_
 _atom_site_type_symbol
 _atom_site_label
 _atom_site_symmetry_multiplicity
 _atom_site_fract_x
 _atom_site_fract_y
 _atom_site_fract_z
 _atom_site_occupancy
  Sr  Sr0  1  0.55995997  0.22594203  0.84558316  1
  Sr  Sr1  1  0.05995997  0.77405797  0.65441684  1
  Sr  Sr2  1  0.44004003  0.77405797  0.15441684  1
  Sr  Sr3  1  0.94004003  0.22594203  0.34558316  1
  Sr  Sr4  1  0.70771325  0.76617305  0.55471134  1
  Sr  Sr5  1  0.20771325  0.23382695  0.94528866  1
  Sr  Sr6  1  0.29228675  0.23382695  0.44528866  1
  Sr  Sr7  1  0.79228675  0.76617305  0.05471134  1
  Rh  Rh8  1  0.86730930  0.31202869  0.82099262  1
  Rh  Rh9  1  0.36730930  0.68797131  0.67900738  1
  Rh  Rh10  1  0.13269070  0.68797131  0.17900738  1
  Rh  Rh11  1  0.63269070  0.31202869  0.32099262  1
  F  F12  1  0.39472332  0.10447067  0.98817369  1
  F  F13  1  0.89472332  0.89552933  0.51182631  1
  F  F14  1  0.60527668  0.89552933  0.01182631  1
  F  F15  1  0.10527668  0.10447067  0.48817369  1
  F  F16  1  0.48501642  0.13245840  0.32482362  1
  F  F17  1  0.98501642  0.86754160  0.17517638  1
  F  F18  1  0.51498358  0.86754160  0.67517638  1
  F  F19  1  0.01498358  0.13245840  0.82482362  1
  F  F20  1  0.44615565  0.38467397  0.62607473  1
  F  F21  1  0.94615565  0.61532603  0.87392527  1
  F  F22  1  0.55384435  0.61532603  0.37392527  1
  F  F23  1  0.05384435  0.38467397  0.12607473  1
  F  F24  1  0.39870680  0.58074053  0.89636111  1
  F  F25  1  0.89870680  0.41925947  0.60363889  1
  F  F26  1  0.60129320  0.41925947  0.10363889  1
  F  F27  1  0.10129320  0.58074053  0.39636111  1
  F  F28  1  0.16477944  0.76223040  0.95716936  1
  F  F29  1  0.66477944  0.23776960  0.54283064  1
  F  F30  1  0.83522056  0.23776960  0.04283064  1
  F  F31  1  0.33522056  0.76223040  0.45716936  1
  F  F32  1  0.72424600  0.51484971  0.81338794  1
  F  F33  1  0.22424600  0.48515029  0.68661206  1
  F  F34  1  0.27575400  0.48515029  0.18661206  1
  F  F35  1  0.77575400  0.51484971  0.31338794  1
  F  F36  1  0.72744276  0.01228517  0.28752329  1
  F  F37  1  0.22744276  0.98771483  0.21247671  1
  F  F38  1  0.27255724  0.98771483  0.71247671  1
  F  F39  1  0.77255724  0.01228517  0.78752329  1
