# generated using pymatgen
data_Tl2V8O21
_symmetry_space_group_name_H-M   'P 1'
_cell_length_a   7.81406966
_cell_length_b   7.81406966
_cell_length_c   14.97837196
_cell_angle_alpha   89.73736001
_cell_angle_beta   89.73736001
_cell_angle_gamma   26.34134849
_symmetry_Int_Tables_number   1
_chemical_formula_structural   Tl2V8O21
_chemical_formula_sum   'Tl2 V8 O21'
_cell_volume   405.80878243
_cell_formula_units_Z   1
loop_
 _symmetry_equiv_pos_site_id
 _symmetry_equiv_pos_as_xyz
  1  'x, y, z'
loop_
 _atom_site_type_symbol
 _atom_site_label
 _atom_site_symmetry_multiplicity
 _atom_site_fract_x
 _atom_site_fract_y
 _atom_site_fract_z
 _atom_site_occupancy
  Tl  Tl0  1  0.47261170  0.47261170  0.31283157  1
  Tl  Tl1  1  0.52738830  0.52738830  0.68716843  1
  V  V2  1  0.16986498  0.16986498  0.47583198  1
  V  V3  1  0.09157069  0.09157069  0.07384758  1
  V  V4  1  0.31198837  0.31198837  0.07192248  1
  V  V5  1  0.19097294  0.19097294  0.26836867  1
  V  V6  1  0.90842931  0.90842931  0.92615242  1
  V  V7  1  0.80902706  0.80902706  0.73163133  1
  V  V8  1  0.83013502  0.83013502  0.52416802  1
  V  V9  1  0.68801163  0.68801163  0.92807752  1
  O  O10  1  0.90636185  0.90636185  0.44864137  1
  O  O11  1  0.33558489  0.33558489  0.74238543  1
  O  O12  1  0.19403545  0.19403545  0.96666041  1
  O  O13  1  0.38993644  0.38993644  0.14331781  1
  O  O14  1  0.66441511  0.66441511  0.25761457  1
  O  O15  1  0.38152865  0.38152865  0.95231782  1
  O  O16  1  0.80596455  0.80596455  0.03333959  1
  O  O17  1  0.71330367  0.71330367  0.68657647  1
  O  O18  1  0.71015418  0.71015418  0.47044440  1
  O  O19  1  0.11612746  0.11612746  0.37316834  1
  O  O20  1  0.09363815  0.09363815  0.55135863  1
  O  O21  1  -0.00000000  -0.00000000  0.00000000  1
  O  O22  1  0.21524843  0.21524843  0.13983846  1
  O  O23  1  0.61847135  0.61847135  0.04768218  1
  O  O24  1  0.95179691  0.95179691  0.82692018  1
  O  O25  1  0.88387254  0.88387254  0.62683166  1
  O  O26  1  0.28984582  0.28984582  0.52955560  1
  O  O27  1  0.78475157  0.78475157  0.86016154  1
  O  O28  1  0.61006356  0.61006356  0.85668219  1
  O  O29  1  0.04820309  0.04820309  0.17307982  1
  O  O30  1  0.28669633  0.28669633  0.31342353  1
