# generated using pymatgen
data_K3InCl6
_symmetry_space_group_name_H-M   'P 1'
_cell_length_a   7.64168026
_cell_length_b   12.32836586
_cell_length_c   12.80944658
_cell_angle_alpha   71.07264218
_cell_angle_beta   90.00000000
_cell_angle_gamma   90.00000000
_symmetry_Int_Tables_number   1
_chemical_formula_structural   K3InCl6
_chemical_formula_sum   'K12 In4 Cl24'
_cell_volume   1141.52127791
_cell_formula_units_Z   4
loop_
 _symmetry_equiv_pos_site_id
 _symmetry_equiv_pos_as_xyz
  1  'x, y, z'
loop_
 _atom_site_type_symbol
 _atom_site_label
 _atom_site_symmetry_multiplicity
 _atom_site_fract_x
 _atom_site_fract_y
 _atom_site_fract_z
 _atom_site_occupancy
  K  K0  1  0.06873473  0.61131439  0.68019279  1
  K  K1  1  0.97712037  0.13860291  0.09993777  1
  K  K2  1  0.43739924  0.23587067  0.31641644  1
  K  K3  1  0.02287963  0.86139709  0.90006223  1
  K  K4  1  0.43126527  0.11131439  0.68019279  1
  K  K5  1  0.56260076  0.76412933  0.68358356  1
  K  K6  1  0.47712037  0.36139709  0.90006223  1
  K  K7  1  0.56873473  0.88868561  0.31980721  1
  K  K8  1  0.06260076  0.73587067  0.31641644  1
  K  K9  1  0.52287963  0.63860291  0.09993777  1
  K  K10  1  0.93126527  0.38868561  0.31980721  1
  K  K11  1  0.93739924  0.26412933  0.68358356  1
  In  In12  1  -0.00000000  0.50000000  -0.00000000  1
  In  In13  1  -0.00000000  0.00000000  0.50000000  1
  In  In14  1  0.50000000  0.50000000  0.50000000  1
  In  In15  1  0.50000000  0.00000000  -0.00000000  1
  Cl  Cl16  1  0.29375785  0.49611209  0.34862519  1
  Cl  Cl17  1  0.98930337  0.37161492  0.88468053  1
  Cl  Cl18  1  0.71612141  0.40780665  0.10157964  1
  Cl  Cl19  1  0.13653870  0.18976154  0.49936638  1
  Cl  Cl20  1  0.28954019  0.39395119  0.65275506  1
  Cl  Cl21  1  0.78954019  0.10604881  0.34724494  1
  Cl  Cl22  1  0.82206791  0.65168933  0.86241459  1
  Cl  Cl23  1  0.01069663  0.62838508  0.11531947  1
  Cl  Cl24  1  0.79375785  0.00388791  0.65137481  1
  Cl  Cl25  1  0.17793209  0.34831067  0.13758541  1
  Cl  Cl26  1  0.86346130  0.81023846  0.50063362  1
  Cl  Cl27  1  0.36346130  0.68976154  0.49936638  1
  Cl  Cl28  1  0.51069663  0.87161492  0.88468053  1
  Cl  Cl29  1  0.48930337  0.12838508  0.11531947  1
  Cl  Cl30  1  0.32206791  0.84831067  0.13758541  1
  Cl  Cl31  1  0.78387859  0.90780665  0.10157964  1
  Cl  Cl32  1  0.20624215  0.99611209  0.34862519  1
  Cl  Cl33  1  0.21045981  0.89395119  0.65275506  1
  Cl  Cl34  1  0.28387859  0.59219335  0.89842036  1
  Cl  Cl35  1  0.70624215  0.50388791  0.65137481  1
  Cl  Cl36  1  0.67793209  0.15168933  0.86241459  1
  Cl  Cl37  1  0.21612141  0.09219335  0.89842036  1
  Cl  Cl38  1  0.63653870  0.31023846  0.50063362  1
  Cl  Cl39  1  0.71045981  0.60604881  0.34724494  1
