# generated using pymatgen
data_Sn2PClO4
_symmetry_space_group_name_H-M   'P 1'
_cell_length_a   5.05598675
_cell_length_b   5.05598675
_cell_length_c   13.29213443
_cell_angle_alpha   90.00000000
_cell_angle_beta   90.00000000
_cell_angle_gamma   123.38418412
_symmetry_Int_Tables_number   1
_chemical_formula_structural   Sn2PClO4
_chemical_formula_sum   'Sn4 P2 Cl2 O8'
_cell_volume   283.72195468
_cell_formula_units_Z   2
loop_
 _symmetry_equiv_pos_site_id
 _symmetry_equiv_pos_as_xyz
  1  'x, y, z'
loop_
 _atom_site_type_symbol
 _atom_site_label
 _atom_site_symmetry_multiplicity
 _atom_site_fract_x
 _atom_site_fract_y
 _atom_site_fract_z
 _atom_site_occupancy
  Sn  Sn0  1  0.83863285  0.23234310  0.88985077  1
  Sn  Sn1  1  0.23234310  0.83863285  0.38985077  1
  Sn  Sn2  1  0.23234310  0.83863285  0.11014923  1
  Sn  Sn3  1  0.83863285  0.23234310  0.61014923  1
  P  P4  1  0.18712462  0.91978891  0.75000000  1
  P  P5  1  0.91978891  0.18712462  0.25000000  1
  Cl  Cl6  1  0.44895854  0.44895854  -0.00000000  1
  Cl  Cl7  1  0.44895854  0.44895854  0.50000000  1
  O  O8  1  0.10862676  0.72281970  0.84553887  1
  O  O9  1  0.17973256  0.54809305  0.25000000  1
  O  O10  1  0.01560044  0.09689949  0.75000000  1
  O  O11  1  0.72281970  0.10862676  0.15446113  1
  O  O12  1  0.10862676  0.72281970  0.65446113  1
  O  O13  1  0.72281970  0.10862676  0.34553887  1
  O  O14  1  0.54809305  0.17973256  0.75000000  1
  O  O15  1  0.09689949  0.01560044  0.25000000  1
