# generated using pymatgen
data_KSO3
_symmetry_space_group_name_H-M   'P 1'
_cell_length_a   9.71198767
_cell_length_b   9.71199432
_cell_length_c   6.27590517
_cell_angle_alpha   90.00029060
_cell_angle_beta   89.99906660
_cell_angle_gamma   120.00083459
_symmetry_Int_Tables_number   1
_chemical_formula_structural   KSO3
_chemical_formula_sum   'K6 S6 O18'
_cell_volume   512.64873973
_cell_formula_units_Z   6
loop_
 _symmetry_equiv_pos_site_id
 _symmetry_equiv_pos_as_xyz
  1  'x, y, z'
loop_
 _atom_site_type_symbol
 _atom_site_label
 _atom_site_symmetry_multiplicity
 _atom_site_fract_x
 _atom_site_fract_y
 _atom_site_fract_z
 _atom_site_occupancy
  K  K0  1  0.61785243  0.00004502  -0.00011536  1
  K  K1  1  0.00003848  0.61787051  0.00011886  1
  K  K2  1  0.38213736  0.38208557  0.00002979  1
  K  K3  1  0.29445578  0.99995541  0.50002112  1
  K  K4  1  0.00003935  0.29451764  0.50001483  1
  K  K5  1  0.70550840  0.70554622  0.50001616  1
  S  S6  1  -0.00000119  -0.00002448  0.82601665  1
  S  S7  1  -0.00002712  -0.00000743  0.17390963  1
  S  S8  1  0.33333718  0.66666310  0.74508523  1
  S  S9  1  0.66667391  0.33334376  0.25498437  1
  S  S10  1  0.33334782  0.66667097  0.40090972  1
  S  S11  1  0.66666726  0.33335761  0.59905460  1
  O  O12  1  0.15807273  0.12596115  0.76579731  1
  O  O13  1  0.87401395  0.03207072  0.76578137  1
  O  O14  1  0.96790350  0.84188975  0.76583437  1
  O  O15  1  0.03206760  0.87400467  0.23418631  1
  O  O16  1  0.84188959  0.96789342  0.23410452  1
  O  O17  1  0.12596530  0.15806981  0.23415784  1
  O  O18  1  0.20446482  0.50968085  0.80568810  1
  O  O19  1  0.49032050  0.69477777  0.80570709  1
  O  O20  1  0.30522383  0.79553820  0.80569719  1
  O  O21  1  0.69479473  0.49033376  0.19432721  1
  O  O22  1  0.79554377  0.30523192  0.19432167  1
  O  O23  1  0.50968910  0.20446570  0.19432705  1
  O  O24  1  0.16893035  0.61319523  0.34565530  1
  O  O25  1  0.38680927  0.55573704  0.34562132  1
  O  O26  1  0.44427750  0.83107959  0.34562894  1
  O  O27  1  0.55575497  0.38684296  0.65436881  1
  O  O28  1  0.83108065  0.44426398  0.65438463  1
  O  O29  1  0.61316820  0.16894056  0.65436636  1
