# generated using pymatgen
data_Bi10(MoO8)3
_symmetry_space_group_name_H-M   'P 1'
_cell_length_a   12.16196436
_cell_length_b   12.16196436
_cell_length_c   8.69809609
_cell_angle_alpha   84.53063696
_cell_angle_beta   84.53063696
_cell_angle_gamma   26.85143149
_symmetry_Int_Tables_number   1
_chemical_formula_structural   Bi10(MoO8)3
_chemical_formula_sum   'Bi10 Mo3 O24'
_cell_volume   578.31700694
_cell_formula_units_Z   1
loop_
 _symmetry_equiv_pos_site_id
 _symmetry_equiv_pos_as_xyz
  1  'x, y, z'
loop_
 _atom_site_type_symbol
 _atom_site_label
 _atom_site_symmetry_multiplicity
 _atom_site_fract_x
 _atom_site_fract_y
 _atom_site_fract_z
 _atom_site_occupancy
  Bi  Bi0  1  0.45149440  0.47479085  0.32309153  1
  Bi  Bi1  1  0.60519148  0.78193314  0.45373906  1
  Bi  Bi2  1  0.52520915  0.54850560  0.67690847  1
  Bi  Bi3  1  0.20328882  0.27370235  0.18524435  1
  Bi  Bi4  1  0.06369726  0.08759046  0.40817486  1
  Bi  Bi5  1  0.21806686  0.39480852  0.54626094  1
  Bi  Bi6  1  0.12025478  0.17677441  0.75111256  1
  Bi  Bi7  1  0.91240954  0.93630274  0.59182514  1
  Bi  Bi8  1  0.82322559  0.87974522  0.24888744  1
  Bi  Bi9  1  0.72629765  0.79671118  0.81475565  1
  Mo  Mo10  1  0.32026372  0.42878950  0.92591068  1
  Mo  Mo11  1  0.00258896  0.99741104  -0.00000000  1
  Mo  Mo12  1  0.57121050  0.67973628  0.07408932  1
  O  O13  1  0.88990763  0.76178730  0.64593423  1
  O  O14  1  0.37790716  0.96432065  0.00875250  1
  O  O15  1  0.23821270  0.11009237  0.35406577  1
  O  O16  1  0.24368507  0.87577276  0.94203478  1
  O  O17  1  0.70015941  0.29984059  0.50000000  1
  O  O18  1  0.01074726  0.54260757  0.34791976  1
  O  O19  1  0.21515449  0.78484551  0.50000000  1
  O  O20  1  0.84471185  0.18041384  0.16298962  1
  O  O21  1  0.73249659  0.48242445  0.91790486  1
  O  O22  1  0.51757555  0.26750341  0.08209514  1
  O  O23  1  0.45445373  0.19800839  0.83381516  1
  O  O24  1  0.30051900  0.55178375  0.77043372  1
  O  O25  1  0.64776582  0.14394251  0.40751845  1
  O  O26  1  0.80199161  0.54554627  0.16618484  1
  O  O27  1  0.44821625  0.69948100  0.22956628  1
  O  O28  1  0.85605749  0.35223418  0.59248155  1
  O  O29  1  0.12422724  0.75631493  0.05796522  1
  O  O30  1  0.35053264  0.86716421  0.57877115  1
  O  O31  1  0.97478593  0.47321990  0.68525615  1
  O  O32  1  0.13283579  0.64946736  0.42122885  1
  O  O33  1  0.52678010  0.02521407  0.31474385  1
  O  O34  1  0.81958616  0.15528815  0.83701038  1
  O  O35  1  0.03567935  0.62209284  0.99124750  1
  O  O36  1  0.45739243  0.98925274  0.65208024  1
