# generated using pymatgen
data_Na2As4O11
_symmetry_space_group_name_H-M   'P 1'
_cell_length_a   6.14145954
_cell_length_b   6.14145954
_cell_length_c   11.55210265
_cell_angle_alpha   80.78408757
_cell_angle_beta   80.78408757
_cell_angle_gamma   85.09193280
_symmetry_Int_Tables_number   1
_chemical_formula_structural   Na2As4O11
_chemical_formula_sum   'Na4 As8 O22'
_cell_volume   423.73749086
_cell_formula_units_Z   2
loop_
 _symmetry_equiv_pos_site_id
 _symmetry_equiv_pos_as_xyz
  1  'x, y, z'
loop_
 _atom_site_type_symbol
 _atom_site_label
 _atom_site_symmetry_multiplicity
 _atom_site_fract_x
 _atom_site_fract_y
 _atom_site_fract_z
 _atom_site_occupancy
  Na  Na0  1  0.46064253  0.26235506  0.46627539  1
  Na  Na1  1  0.73764494  0.53935747  0.03372461  1
  Na  Na2  1  0.53935747  0.73764494  0.53372461  1
  Na  Na3  1  0.26235506  0.46064253  0.96627539  1
  As  As4  1  0.53403254  0.95601983  0.83347573  1
  As  As5  1  0.04398017  0.46596746  0.66652427  1
  As  As6  1  0.46596746  0.04398017  0.16652427  1
  As  As7  1  0.95601983  0.53403254  0.33347573  1
  As  As8  1  0.91402962  0.99915774  0.61770574  1
  As  As9  1  0.00084226  0.08597038  0.88229426  1
  As  As10  1  0.08597038  0.00084226  0.38229426  1
  As  As11  1  0.99915774  0.91402962  0.11770574  1
  O  O12  1  0.53018811  0.69045788  0.88253771  1
  O  O13  1  0.30954212  0.46981189  0.61746229  1
  O  O14  1  0.46981189  0.30954212  0.11746229  1
  O  O15  1  0.69045788  0.53018811  0.38253771  1
  O  O16  1  0.30194248  0.12633957  0.85880438  1
  O  O17  1  0.87366043  0.69805752  0.64119562  1
  O  O18  1  0.69805752  0.87366043  0.14119562  1
  O  O19  1  0.12633957  0.30194248  0.35880438  1
  O  O20  1  0.69879754  0.09820817  0.89890814  1
  O  O21  1  0.90179183  0.30120246  0.60109186  1
  O  O22  1  0.30120246  0.90179183  0.10109186  1
  O  O23  1  0.09820817  0.69879754  0.39890814  1
  O  O24  1  0.61669757  0.01636240  0.68145022  1
  O  O25  1  0.98363760  0.38330243  0.81854978  1
  O  O26  1  0.38330243  0.98363760  0.31854978  1
  O  O27  1  0.01636240  0.61669757  0.18145022  1
  O  O28  1  0.81542277  0.02269327  0.47423107  1
  O  O29  1  0.97730673  0.18457723  0.02576893  1
  O  O30  1  0.18457723  0.97730673  0.52576893  1
  O  O31  1  0.02269327  0.81542277  0.97423107  1
  O  O32  1  0.03979713  0.96020287  0.75000000  1
  O  O33  1  0.96020287  0.03979713  0.25000000  1
