# generated using pymatgen
data_TlGaCl4
_symmetry_space_group_name_H-M   'P 1'
_cell_length_a   7.06277352
_cell_length_b   9.44867498
_cell_length_c   10.72039944
_cell_angle_alpha   90.00000000
_cell_angle_beta   90.00000000
_cell_angle_gamma   90.00000000
_symmetry_Int_Tables_number   1
_chemical_formula_structural   TlGaCl4
_chemical_formula_sum   'Tl4 Ga4 Cl16'
_cell_volume   715.41354369
_cell_formula_units_Z   4
loop_
 _symmetry_equiv_pos_site_id
 _symmetry_equiv_pos_as_xyz
  1  'x, y, z'
loop_
 _atom_site_type_symbol
 _atom_site_label
 _atom_site_symmetry_multiplicity
 _atom_site_fract_x
 _atom_site_fract_y
 _atom_site_fract_z
 _atom_site_occupancy
  Tl  Tl0  1  0.75000000  0.28990304  0.19540750  1
  Tl  Tl1  1  0.75000000  0.21009696  0.69540750  1
  Tl  Tl2  1  0.25000000  0.78990304  0.30459250  1
  Tl  Tl3  1  0.25000000  0.71009696  0.80459250  1
  Ga  Ga4  1  0.75000000  0.81387415  0.06209588  1
  Ga  Ga5  1  0.75000000  0.68612585  0.56209588  1
  Ga  Ga6  1  0.25000000  0.31387415  0.43790412  1
  Ga  Ga7  1  0.25000000  0.18612585  0.93790412  1
  Cl  Cl8  1  -0.00033252  0.67656082  0.06621831  1
  Cl  Cl9  1  0.25000000  0.06149041  0.10843074  1
  Cl  Cl10  1  0.00033252  0.17656082  0.43378169  1
  Cl  Cl11  1  0.75000000  0.56149041  0.39156926  1
  Cl  Cl12  1  0.75000000  0.94257381  0.23110992  1
  Cl  Cl13  1  0.50033252  0.82343918  0.56621831  1
  Cl  Cl14  1  0.49966748  0.32343918  0.93378169  1
  Cl  Cl15  1  0.75000000  0.55742619  0.73110992  1
  Cl  Cl16  1  0.75000000  0.93850959  0.89156926  1
  Cl  Cl17  1  -0.00033252  0.82343918  0.56621831  1
  Cl  Cl18  1  0.49966748  0.17656082  0.43378169  1
  Cl  Cl19  1  0.25000000  0.43850959  0.60843074  1
  Cl  Cl20  1  0.00033252  0.32343918  0.93378169  1
  Cl  Cl21  1  0.25000000  0.44257381  0.26889008  1
  Cl  Cl22  1  0.25000000  0.05742619  0.76889008  1
  Cl  Cl23  1  0.50033252  0.67656082  0.06621831  1
