# generated using pymatgen
data_Rb4Zr3Te16
_symmetry_space_group_name_H-M   'P 1'
_cell_length_a   11.27535053
_cell_length_b   11.27535053
_cell_length_c   15.43215048
_cell_angle_alpha   83.26336262
_cell_angle_beta   83.26336262
_cell_angle_gamma   114.82459631
_symmetry_Int_Tables_number   1
_chemical_formula_structural   Rb4Zr3Te16
_chemical_formula_sum   'Rb8 Zr6 Te32'
_cell_volume   1737.90682211
_cell_formula_units_Z   2
loop_
 _symmetry_equiv_pos_site_id
 _symmetry_equiv_pos_as_xyz
  1  'x, y, z'
loop_
 _atom_site_type_symbol
 _atom_site_label
 _atom_site_symmetry_multiplicity
 _atom_site_fract_x
 _atom_site_fract_y
 _atom_site_fract_z
 _atom_site_occupancy
  Rb  Rb0  1  0.54904580  0.25145965  0.93164879  1
  Rb  Rb1  1  0.74854035  0.45095420  0.56835121  1
  Rb  Rb2  1  0.45095420  0.74854035  0.06835121  1
  Rb  Rb3  1  0.25145965  0.54904580  0.43164879  1
  Rb  Rb4  1  0.02750441  0.75278270  0.87334419  1
  Rb  Rb5  1  0.24721730  0.97249559  0.62665581  1
  Rb  Rb6  1  0.97249559  0.24721730  0.12665581  1
  Rb  Rb7  1  0.75278270  0.02750441  0.37334419  1
  Zr  Zr8  1  0.56718377  0.79202190  0.72876503  1
  Zr  Zr9  1  0.20797810  0.43281623  0.77123497  1
  Zr  Zr10  1  0.43281623  0.20797810  0.27123497  1
  Zr  Zr11  1  0.79202190  0.56718377  0.22876503  1
  Zr  Zr12  1  0.89121679  0.10878321  0.75000000  1
  Zr  Zr13  1  0.10878321  0.89121679  0.25000000  1
  Te  Te14  1  0.75219845  0.84825282  0.87065589  1
  Te  Te15  1  0.15174718  0.24780155  0.62934411  1
  Te  Te16  1  0.24780155  0.15174718  0.12934411  1
  Te  Te17  1  0.84825282  0.75219845  0.37065589  1
  Te  Te18  1  0.80275845  0.09526515  0.94158132  1
  Te  Te19  1  0.90473485  0.19724155  0.55841868  1
  Te  Te20  1  0.19724155  0.90473485  0.05841868  1
  Te  Te21  1  0.09526515  0.80275845  0.44158132  1
  Te  Te22  1  0.08444885  0.15543461  0.87327823  1
  Te  Te23  1  0.84456539  0.91555115  0.62672177  1
  Te  Te24  1  0.91555115  0.84456539  0.12672177  1
  Te  Te25  1  0.15543461  0.08444885  0.37327823  1
  Te  Te26  1  0.35233298  0.26528448  0.74390664  1
  Te  Te27  1  0.73471552  0.64766702  0.75609336  1
  Te  Te28  1  0.64766702  0.73471552  0.25609336  1
  Te  Te29  1  0.26528448  0.35233298  0.24390664  1
  Te  Te30  1  0.62260545  0.07951053  0.71556813  1
  Te  Te31  1  0.92048947  0.37739455  0.78443187  1
  Te  Te32  1  0.37739455  0.92048947  0.28443187  1
  Te  Te33  1  0.07951053  0.62260545  0.21556813  1
  Te  Te34  1  0.40595932  0.88472955  0.83703163  1
  Te  Te35  1  0.11527045  0.59404068  0.66296837  1
  Te  Te36  1  0.59404068  0.11527045  0.16296837  1
  Te  Te37  1  0.88472955  0.40595932  0.33703163  1
  Te  Te38  1  0.42199519  0.54855069  0.87505716  1
  Te  Te39  1  0.45144931  0.57800481  0.62494284  1
  Te  Te40  1  0.57800481  0.45144931  0.12494284  1
  Te  Te41  1  0.54855069  0.42199519  0.37505716  1
  Te  Te42  1  0.17122130  0.52783127  0.93946354  1
  Te  Te43  1  0.47216873  0.82877870  0.56053646  1
  Te  Te44  1  0.82877870  0.47216873  0.06053646  1
  Te  Te45  1  0.52783127  0.17122130  0.43946354  1
