# generated using pymatgen
data_CaSeO3
_symmetry_space_group_name_H-M   'P 1'
_cell_length_a   6.39345180
_cell_length_b   6.69446549
_cell_length_c   6.80623043
_cell_angle_alpha   90.00000000
_cell_angle_beta   90.00000000
_cell_angle_gamma   102.65814086
_symmetry_Int_Tables_number   1
_chemical_formula_structural   CaSeO3
_chemical_formula_sum   'Ca4 Se4 O12'
_cell_volume   284.23135479
_cell_formula_units_Z   4
loop_
 _symmetry_equiv_pos_site_id
 _symmetry_equiv_pos_as_xyz
  1  'x, y, z'
loop_
 _atom_site_type_symbol
 _atom_site_label
 _atom_site_symmetry_multiplicity
 _atom_site_fract_x
 _atom_site_fract_y
 _atom_site_fract_z
 _atom_site_occupancy
  Ca  Ca0  1  0.72529979  0.87598870  0.87168102  1
  Ca  Ca1  1  0.22529979  0.37598870  0.62831898  1
  Ca  Ca2  1  0.77470021  0.62401130  0.37168102  1
  Ca  Ca3  1  0.27470021  0.12401130  0.12831898  1
  Se  Se4  1  0.74090767  0.09619100  0.33726491  1
  Se  Se5  1  0.24090767  0.59619100  0.16273509  1
  Se  Se6  1  0.75909233  0.40380900  0.83726491  1
  Se  Se7  1  0.25909233  0.90380900  0.66273509  1
  O  O8  1  0.91409617  0.31186199  0.41730824  1
  O  O9  1  0.58590383  0.18813801  0.91730824  1
  O  O10  1  0.60483528  0.52019194  0.68624573  1
  O  O11  1  0.41409617  0.81186199  0.08269176  1
  O  O12  1  0.78264815  0.57095471  0.02782874  1
  O  O13  1  0.08590383  0.68813801  0.58269176  1
  O  O14  1  0.21735185  0.42904529  0.97217126  1
  O  O15  1  0.10483528  0.02019194  0.81375427  1
  O  O16  1  0.28264815  0.07095471  0.47217126  1
  O  O17  1  0.39516472  0.47980806  0.31375427  1
  O  O18  1  0.89516472  0.97980806  0.18624573  1
  O  O19  1  0.71735185  0.92904529  0.52782874  1
