# generated using pymatgen
data_ZnS
_symmetry_space_group_name_H-M   'P 1'
_cell_length_a   3.80782296
_cell_length_b   3.80782206
_cell_length_c   74.81003795
_cell_angle_alpha   90.00000000
_cell_angle_beta   90.00000000
_cell_angle_gamma   119.99999897
_symmetry_Int_Tables_number   1
_chemical_formula_structural   ZnS
_chemical_formula_sum   'Zn24 S24'
_cell_volume   939.38561366
_cell_formula_units_Z   24
loop_
 _symmetry_equiv_pos_site_id
 _symmetry_equiv_pos_as_xyz
  1  'x, y, z'
loop_
 _atom_site_type_symbol
 _atom_site_label
 _atom_site_symmetry_multiplicity
 _atom_site_fract_x
 _atom_site_fract_y
 _atom_site_fract_z
 _atom_site_occupancy
  Zn  Zn0  1  0.66666700  0.33333300  0.83333744  1
  Zn  Zn1  1  0.33333300  0.66666700  0.79170890  1
  Zn  Zn2  1  0.66666700  0.33333300  0.33334880  1
  Zn  Zn3  1  0.33333300  0.66666700  0.29171344  1
  Zn  Zn4  1  -0.00000000  0.00000000  0.37499959  1
  Zn  Zn5  1  0.33333300  0.66666700  0.20833776  1
  Zn  Zn6  1  0.33333300  0.66666700  0.70833348  1
  Zn  Zn7  1  0.66666700  0.33333300  0.08334272  1
  Zn  Zn8  1  -0.00000000  0.00000000  0.54170604  1
  Zn  Zn9  1  0.66666700  0.33333300  0.91671391  1
  Zn  Zn10  1  -0.00000000  0.00000000  0.12502368  1
  Zn  Zn11  1  0.66666700  0.33333300  0.16671409  1
  Zn  Zn12  1  0.33333300  0.66666700  0.04171753  1
  Zn  Zn13  1  -0.00000000  0.00000000  0.87502049  1
  Zn  Zn14  1  0.33333300  0.66666700  0.41668432  1
  Zn  Zn15  1  0.00000000  -0.00000000  0.62504552  1
  Zn  Zn16  1  0.33333300  0.66666700  0.95834175  1
  Zn  Zn17  1  -0.00000000  0.00000000  0.45836611  1
  Zn  Zn18  1  0.33333300  0.66666700  0.58336077  1
  Zn  Zn19  1  -0.00000000  -0.00000000  0.25001989  1
  Zn  Zn20  1  0.66666700  0.33333300  0.66668846  1
  Zn  Zn21  1  0.66666700  0.33333300  0.50002035  1
  Zn  Zn22  1  -0.00000000  0.00000000  0.00002501  1
  Zn  Zn23  1  0.00000000  0.00000000  0.75001636  1
  S  S24  1  0.66666700  0.33333300  0.94789862  1
  S  S25  1  0.00000000  -0.00000000  0.48952905  1
  S  S26  1  0.00000000  -0.00000000  0.40618863  1
  S  S27  1  0.00000000  0.00000000  0.65623285  1
  S  S28  1  0.66666700  0.33333300  0.69788285  1
  S  S29  1  0.33333300  0.66666700  0.44792028  1
  S  S30  1  -0.00000000  0.00000000  0.03126353  1
  S  S31  1  0.66666700  0.33333300  0.53125631  1
  S  S32  1  0.33333300  0.66666700  0.98952486  1
  S  S33  1  0.00000000  -0.00000000  0.78125779  1
  S  S34  1  0.00000000  -0.00000000  0.57286216  1
  S  S35  1  0.00000000  -0.00000000  0.90626310  1
  S  S36  1  0.33333300  0.66666700  0.73951585  1
  S  S37  1  0.00000000  -0.00000000  0.28125753  1
  S  S38  1  0.66666700  0.33333300  0.36454846  1
  S  S39  1  0.33333300  0.66666700  0.07289858  1
  S  S40  1  0.66666700  0.33333300  0.11452391  1
  S  S41  1  0.66666700  0.33333300  0.86452408  1
  S  S42  1  0.33333300  0.66666700  0.82289605  1
  S  S43  1  -0.00000000  0.00000000  0.15626037  1
  S  S44  1  0.33333300  0.66666700  0.23951778  1
  S  S45  1  0.33333300  0.66666700  0.61459139  1
  S  S46  1  0.33333300  0.66666700  0.32289839  1
  S  S47  1  0.66666700  0.33333300  0.19789317  1
