# generated using pymatgen
data_PICl8
_symmetry_space_group_name_H-M   'P 1'
_cell_length_a   12.01873315
_cell_length_b   12.01845655
_cell_length_c   12.01874415
_cell_angle_alpha   118.56334754
_cell_angle_beta   117.46054861
_cell_angle_gamma   93.48192948
_symmetry_Int_Tables_number   1
_chemical_formula_structural   PICl8
_chemical_formula_sum   'P4 I4 Cl32'
_cell_volume   1261.81545519
_cell_formula_units_Z   4
loop_
 _symmetry_equiv_pos_site_id
 _symmetry_equiv_pos_as_xyz
  1  'x, y, z'
loop_
 _atom_site_type_symbol
 _atom_site_label
 _atom_site_symmetry_multiplicity
 _atom_site_fract_x
 _atom_site_fract_y
 _atom_site_fract_z
 _atom_site_occupancy
  P  P0  1  0.24573676  0.74573989  -0.00001287  1
  P  P1  1  0.25425635  0.25425762  0.49999187  1
  P  P2  1  0.74574276  0.74573392  0.49999041  1
  P  P3  1  0.75424661  0.25425643  -0.00001118  1
  I  I4  1  0.74997463  0.68963299  0.93962593  1
  I  I5  1  0.75001942  0.17863539  0.42865032  1
  I  I6  1  0.25002725  0.82134698  0.57137750  1
  I  I7  1  0.25000146  0.31029937  0.06030587  1
  Cl  Cl8  1  0.22583161  0.40436595  0.48356803  1
  Cl  Cl9  1  0.74999892  0.97543776  0.22542873  1
  Cl  Cl10  1  0.39365127  0.71369484  0.97873639  1
  Cl  Cl11  1  0.10633850  0.08508526  0.32003354  1
  Cl  Cl12  1  0.40296299  0.97302445  0.57012050  1
  Cl  Cl13  1  0.76503655  0.08509218  0.97873816  1
  Cl  Cl14  1  0.09709585  0.66715587  0.57011918  1
  Cl  Cl15  1  0.25003172  0.02458688  0.77461531  1
  Cl  Cl16  1  0.57920994  0.75773884  0.48356685  1
  Cl  Cl17  1  0.09701914  0.15611180  0.05908891  1
  Cl  Cl18  1  0.23495336  0.91490490  0.02124104  1
  Cl  Cl19  1  0.54893149  0.69286345  0.74179801  1
  Cl  Cl20  1  0.25002756  0.61397296  0.36400149  1
  Cl  Cl21  1  0.77416281  0.59562972  0.51642373  1
  Cl  Cl22  1  0.59700581  0.53792850  0.94091077  1
  Cl  Cl23  1  0.95104513  0.69286618  0.14391443  1
  Cl  Cl24  1  0.72582778  0.24226604  0.82145804  1
  Cl  Cl25  1  0.90292806  0.33287205  0.42993514  1
  Cl  Cl26  1  0.90296231  0.84388853  0.94091050  1
  Cl  Cl27  1  0.26504079  0.28629497  0.67994656  1
  Cl  Cl28  1  0.04895428  0.30715051  0.85610536  1
  Cl  Cl29  1  0.42079519  0.24226157  0.51642449  1
  Cl  Cl30  1  0.73494572  0.71369309  0.32002772  1
  Cl  Cl31  1  0.07919637  0.59562783  0.82145772  1
  Cl  Cl32  1  0.74999481  0.38605209  0.63604497  1
  Cl  Cl33  1  0.27416023  0.75773774  0.17852252  1
  Cl  Cl34  1  0.40297820  0.46207415  0.05908592  1
  Cl  Cl35  1  0.60633274  0.28629551  0.02124210  1
  Cl  Cl36  1  0.92078624  0.40436946  0.17852632  1
  Cl  Cl37  1  0.89365676  0.91490906  0.67994315  1
  Cl  Cl38  1  0.59706258  0.02699709  0.42992745  1
  Cl  Cl39  1  0.45106904  0.30714818  0.25821911  1
