# generated using pymatgen
data_P2Pb3O8
_symmetry_space_group_name_H-M   'P 1'
_cell_length_a   7.02614211
_cell_length_b   7.02614211
_cell_length_c   8.87630269
_cell_angle_alpha   72.30507021
_cell_angle_beta   72.30507021
_cell_angle_gamma   77.45042894
_symmetry_Int_Tables_number   1
_chemical_formula_structural   P2Pb3O8
_chemical_formula_sum   'P4 Pb6 O16'
_cell_volume   393.92731350
_cell_formula_units_Z   2
loop_
 _symmetry_equiv_pos_site_id
 _symmetry_equiv_pos_as_xyz
  1  'x, y, z'
loop_
 _atom_site_type_symbol
 _atom_site_label
 _atom_site_symmetry_multiplicity
 _atom_site_fract_x
 _atom_site_fract_y
 _atom_site_fract_z
 _atom_site_occupancy
  P  P0  1  0.08638547  0.48963485  0.19926649  1
  P  P1  1  0.51036515  0.91361453  0.30073351  1
  P  P2  1  0.91361453  0.51036515  0.80073351  1
  P  P3  1  0.48963485  0.08638547  0.69926649  1
  Pb  Pb4  1  0.58493698  0.41506302  0.25000000  1
  Pb  Pb5  1  0.41506302  0.58493698  0.75000000  1
  Pb  Pb6  1  0.10018276  0.19321858  0.56164740  1
  Pb  Pb7  1  0.80678142  0.89981724  0.93835260  1
  Pb  Pb8  1  0.89981724  0.80678142  0.43835260  1
  Pb  Pb9  1  0.19321858  0.10018276  0.06164740  1
  O  O10  1  0.26100239  0.42372732  0.06183609  1
  O  O11  1  0.57627268  0.73899761  0.43816391  1
  O  O12  1  0.73899761  0.57627268  0.93816391  1
  O  O13  1  0.42372732  0.26100239  0.56183609  1
  O  O14  1  0.51462994  0.82945227  0.15673135  1
  O  O15  1  0.17054773  0.48537006  0.34326865  1
  O  O16  1  0.48537006  0.17054773  0.84326865  1
  O  O17  1  0.82945227  0.51462994  0.65673135  1
  O  O18  1  0.98304320  0.70433672  0.14259715  1
  O  O19  1  0.29566328  0.01695680  0.35740285  1
  O  O20  1  0.01695680  0.29566328  0.85740285  1
  O  O21  1  0.70433672  0.98304320  0.64259715  1
  O  O22  1  0.66674867  0.06286475  0.23794689  1
  O  O23  1  0.93713525  0.33325133  0.26205311  1
  O  O24  1  0.33325133  0.93713525  0.76205311  1
  O  O25  1  0.06286475  0.66674867  0.73794689  1
