# generated using pymatgen
data_CuHgSBr
_symmetry_space_group_name_H-M   'P 1'
_cell_length_a   4.06727166
_cell_length_b   10.04312014
_cell_length_c   18.91164573
_cell_angle_alpha   90.00000000
_cell_angle_beta   90.00000000
_cell_angle_gamma   90.00000000
_symmetry_Int_Tables_number   1
_chemical_formula_structural   CuHgSBr
_chemical_formula_sum   'Cu8 Hg8 S8 Br8'
_cell_volume   772.50475667
_cell_formula_units_Z   8
loop_
 _symmetry_equiv_pos_site_id
 _symmetry_equiv_pos_as_xyz
  1  'x, y, z'
loop_
 _atom_site_type_symbol
 _atom_site_label
 _atom_site_symmetry_multiplicity
 _atom_site_fract_x
 _atom_site_fract_y
 _atom_site_fract_z
 _atom_site_occupancy
  Cu  Cu0  1  0.50000000  0.57620742  0.64561135  1
  Cu  Cu1  1  0.50000000  0.07620742  0.85438865  1
  Cu  Cu2  1  0.50000000  0.42379258  0.35438865  1
  Cu  Cu3  1  0.50000000  0.41847169  0.85700630  1
  Cu  Cu4  1  0.50000000  0.92379258  0.14561135  1
  Cu  Cu5  1  0.50000000  0.08152831  0.35700630  1
  Cu  Cu6  1  0.50000000  0.58152831  0.14299370  1
  Cu  Cu7  1  0.50000000  0.91847169  0.64299370  1
  Hg  Hg8  1  0.00000000  0.75121513  0.36061385  1
  Hg  Hg9  1  0.00000000  0.25121513  0.13938615  1
  Hg  Hg10  1  0.00000000  0.74878487  0.86061385  1
  Hg  Hg11  1  0.00000000  0.50000000  0.00000000  1
  Hg  Hg12  1  0.00000000  0.24878487  0.63938615  1
  Hg  Hg13  1  0.00000000  0.00000000  0.50000000  1
  Hg  Hg14  1  0.00000000  0.00000000  0.00000000  1
  Hg  Hg15  1  0.00000000  0.50000000  0.50000000  1
  S  S16  1  0.00000000  0.50895007  0.87268329  1
  S  S17  1  0.00000000  0.98859400  0.87252849  1
  S  S18  1  0.00000000  0.01140600  0.12747151  1
  S  S19  1  0.00000000  0.99104993  0.37268329  1
  S  S20  1  0.00000000  0.49104993  0.12731671  1
  S  S21  1  0.00000000  0.51140600  0.37252849  1
  S  S22  1  0.00000000  0.48859400  0.62747151  1
  S  S23  1  0.00000000  0.00895007  0.62731671  1
  Br  Br24  1  0.50000000  0.75085483  0.23635826  1
  Br  Br25  1  0.50000000  0.25064265  0.47152810  1
  Br  Br26  1  0.50000000  0.74914517  0.73635826  1
  Br  Br27  1  0.50000000  0.24914517  0.76364174  1
  Br  Br28  1  0.50000000  0.75064265  0.02847190  1
  Br  Br29  1  0.50000000  0.24935735  0.97152810  1
  Br  Br30  1  0.50000000  0.74935735  0.52847190  1
  Br  Br31  1  0.50000000  0.25085483  0.26364174  1
