# generated using pymatgen
data_AlTeCl7
_symmetry_space_group_name_H-M   'P 1'
_cell_length_a   12.72381291
_cell_length_b   6.61768060
_cell_length_c   13.99654779
_cell_angle_alpha   73.33258024
_cell_angle_beta   90.00000000
_cell_angle_gamma   90.00000000
_symmetry_Int_Tables_number   1
_chemical_formula_structural   AlTeCl7
_chemical_formula_sum   'Al4 Te4 Cl28'
_cell_volume   1129.02368733
_cell_formula_units_Z   4
loop_
 _symmetry_equiv_pos_site_id
 _symmetry_equiv_pos_as_xyz
  1  'x, y, z'
loop_
 _atom_site_type_symbol
 _atom_site_label
 _atom_site_symmetry_multiplicity
 _atom_site_fract_x
 _atom_site_fract_y
 _atom_site_fract_z
 _atom_site_occupancy
  Al  Al0  1  0.04471147  0.63066760  0.27670873  1
  Al  Al1  1  0.54471147  0.36933240  0.22329127  1
  Al  Al2  1  0.95528853  0.36933240  0.72329127  1
  Al  Al3  1  0.45528853  0.63066760  0.77670873  1
  Te  Te4  1  0.75126248  0.91022655  0.61239634  1
  Te  Te5  1  0.74873752  0.91022655  0.11239634  1
  Te  Te6  1  0.24873752  0.08977345  0.38760366  1
  Te  Te7  1  0.25126248  0.08977345  0.88760366  1
  Cl  Cl8  1  0.90702394  0.04691622  0.74209590  1
  Cl  Cl9  1  0.10534736  0.43306292  0.41684955  1
  Cl  Cl10  1  0.84603905  0.11511251  0.47870982  1
  Cl  Cl11  1  0.60534736  0.56693708  0.08315045  1
  Cl  Cl12  1  0.39465264  0.43306292  0.91684955  1
  Cl  Cl13  1  0.86598694  0.79441647  0.01334481  1
  Cl  Cl14  1  0.59297606  0.04691622  0.24209590  1
  Cl  Cl15  1  0.15396095  0.88488749  0.52129018  1
  Cl  Cl16  1  0.35397390  0.81474134  0.37259386  1
  Cl  Cl17  1  0.13401306  0.20558353  0.98665519  1
  Cl  Cl18  1  0.63401306  0.79441647  0.51334481  1
  Cl  Cl19  1  0.89465264  0.56693708  0.58315045  1
  Cl  Cl20  1  0.90066416  0.47750176  0.84207231  1
  Cl  Cl21  1  0.65396095  0.11511251  0.97870982  1
  Cl  Cl22  1  0.12466009  0.37615153  0.71204445  1
  Cl  Cl23  1  0.09297606  0.95308378  0.25790410  1
  Cl  Cl24  1  0.59933584  0.47750176  0.34207231  1
  Cl  Cl25  1  0.09933584  0.52249824  0.15792769  1
  Cl  Cl26  1  0.37533991  0.37615153  0.21204445  1
  Cl  Cl27  1  0.40702394  0.95308378  0.75790410  1
  Cl  Cl28  1  0.36598694  0.20558353  0.48665519  1
  Cl  Cl29  1  0.64602610  0.18525866  0.62740614  1
  Cl  Cl30  1  0.34603905  0.88488749  0.02129018  1
  Cl  Cl31  1  0.14602610  0.81474134  0.87259386  1
  Cl  Cl32  1  0.87533991  0.62384847  0.28795555  1
  Cl  Cl33  1  0.62466009  0.62384847  0.78795555  1
  Cl  Cl34  1  0.40066416  0.52249824  0.65792769  1
  Cl  Cl35  1  0.85397390  0.18525866  0.12740614  1
