# generated using pymatgen
data_SrSi7N10
_symmetry_space_group_name_H-M   'P 1'
_cell_length_a   6.72778808
_cell_length_b   6.83504655
_cell_length_c   9.60918669
_cell_angle_alpha   73.85418394
_cell_angle_beta   90.00000000
_cell_angle_gamma   90.00000000
_symmetry_Int_Tables_number   1
_chemical_formula_structural   SrSi7N10
_chemical_formula_sum   'Sr2 Si14 N20'
_cell_volume   424.44712354
_cell_formula_units_Z   2
loop_
 _symmetry_equiv_pos_site_id
 _symmetry_equiv_pos_as_xyz
  1  'x, y, z'
loop_
 _atom_site_type_symbol
 _atom_site_label
 _atom_site_symmetry_multiplicity
 _atom_site_fract_x
 _atom_site_fract_y
 _atom_site_fract_z
 _atom_site_occupancy
  Sr  Sr0  1  0.94802952  0.95117567  0.33493259  1
  Sr  Sr1  1  0.05197048  0.95117567  0.83493259  1
  Si  Si2  1  0.02605811  0.53915857  0.17170492  1
  Si  Si3  1  0.39502084  0.10914420  0.42622357  1
  Si  Si4  1  0.38079082  0.29638880  0.11599569  1
  Si  Si5  1  0.02670415  0.35398624  0.48358516  1
  Si  Si6  1  0.62333419  0.84957293  0.69058593  1
  Si  Si7  1  0.37057153  0.48417262  0.81220849  1
  Si  Si8  1  0.63496982  0.66612175  0.00677513  1
  Si  Si9  1  0.61920918  0.29638880  0.61599569  1
  Si  Si10  1  0.36503018  0.66612175  0.50677513  1
  Si  Si11  1  0.62942847  0.48417262  0.31220849  1
  Si  Si12  1  0.60497916  0.10914420  0.92622357  1
  Si  Si13  1  0.97394189  0.53915857  0.67170492  1
  Si  Si14  1  0.37666581  0.84957293  0.19058593  1
  Si  Si15  1  0.97329585  0.35398624  0.98358516  1
  N  N16  1  0.16608491  0.15570988  0.47920664  1
  N  N17  1  0.12984062  0.31886445  0.13538292  1
  N  N18  1  0.38245411  0.88796998  0.36673169  1
  N  N19  1  0.86858225  0.56866129  0.02244402  1
  N  N20  1  0.42229143  0.07917397  0.06134739  1
  N  N21  1  0.15701692  0.74642117  0.16911895  1
  N  N22  1  0.49859491  0.28687304  0.27555880  1
  N  N23  1  0.58483309  0.70424885  0.17529575  1
  N  N24  1  0.57770857  0.07917397  0.56134739  1
  N  N25  1  0.84298308  0.74642117  0.66911895  1
  N  N26  1  0.50140509  0.28687304  0.77555880  1
  N  N27  1  0.61754589  0.88796998  0.86673169  1
  N  N28  1  0.83391509  0.15570988  0.97920664  1
  N  N29  1  0.88259972  0.44572478  0.32760989  1
  N  N30  1  0.87015938  0.31886445  0.63538292  1
  N  N31  1  0.11740028  0.44572478  0.82760989  1
  N  N32  1  0.53808693  0.49892981  0.47598845  1
  N  N33  1  0.41516691  0.70424885  0.67529575  1
  N  N34  1  0.46191307  0.49892981  0.97598845  1
  N  N35  1  0.13141775  0.56866129  0.52244402  1
