# generated using pymatgen
data_ZnS
_symmetry_space_group_name_H-M   'P 1'
_cell_length_a   3.81017914
_cell_length_b   3.81017955
_cell_length_c   74.78473753
_cell_angle_alpha   90.00000000
_cell_angle_beta   90.00000000
_cell_angle_gamma   119.99999645
_symmetry_Int_Tables_number   1
_chemical_formula_structural   ZnS
_chemical_formula_sum   'Zn24 S24'
_cell_volume   940.23076518
_cell_formula_units_Z   24
loop_
 _symmetry_equiv_pos_site_id
 _symmetry_equiv_pos_as_xyz
  1  'x, y, z'
loop_
 _atom_site_type_symbol
 _atom_site_label
 _atom_site_symmetry_multiplicity
 _atom_site_fract_x
 _atom_site_fract_y
 _atom_site_fract_z
 _atom_site_occupancy
  Zn  Zn0  1  0.66666700  0.33333300  0.95834835  1
  Zn  Zn1  1  0.66666700  0.33333300  0.45832507  1
  Zn  Zn2  1  0.00000000  -0.00000000  0.37501960  1
  Zn  Zn3  1  0.33333300  0.66666700  0.33332650  1
  Zn  Zn4  1  0.33333300  0.66666700  0.70834385  1
  Zn  Zn5  1  0.66666700  0.33333300  0.08334122  1
  Zn  Zn6  1  0.00000000  -0.00000000  0.91669397  1
  Zn  Zn7  1  0.66666700  0.33333300  0.54171150  1
  Zn  Zn8  1  0.66666700  0.33333300  0.20831974  1
  Zn  Zn9  1  -0.00000000  0.00000000  0.83336482  1
  Zn  Zn10  1  0.33333300  0.66666700  0.04168895  1
  Zn  Zn11  1  -0.00000000  0.00000000  0.12501600  1
  Zn  Zn12  1  0.33333300  0.66666700  0.16668214  1
  Zn  Zn13  1  0.33333300  0.66666700  0.41671193  1
  Zn  Zn14  1  0.00000000  -0.00000000  0.50001676  1
  Zn  Zn15  1  0.00000000  -0.00000000  0.62502017  1
  Zn  Zn16  1  0.66666700  0.33333300  0.66668877  1
  Zn  Zn17  1  0.66666700  0.33333300  0.29171205  1
  Zn  Zn18  1  0.33333300  0.66666700  0.58334465  1
  Zn  Zn19  1  -0.00000000  0.00000000  0.25001593  1
  Zn  Zn20  1  0.66666700  0.33333300  0.79168954  1
  Zn  Zn21  1  -0.00000000  0.00000000  0.00004554  1
  Zn  Zn22  1  0.33333300  0.66666700  0.87502270  1
  Zn  Zn23  1  -0.00000000  0.00000000  0.75000521  1
  S  S24  1  0.66666700  0.33333300  0.69789993  1
  S  S25  1  0.33333300  0.66666700  0.19788940  1
  S  S26  1  0.33333300  0.66666700  0.44790182  1
  S  S27  1  0.00000000  -0.00000000  0.40626906  1
  S  S28  1  0.00000000  -0.00000000  0.53126706  1
  S  S29  1  0.66666700  0.33333300  0.57290657  1
  S  S30  1  0.66666700  0.33333300  0.32290164  1
  S  S31  1  0.00000000  -0.00000000  0.78119775  1
  S  S32  1  0.00000000  0.00000000  0.86453967  1
  S  S33  1  0.00000000  -0.00000000  0.03123865  1
  S  S34  1  0.66666700  0.33333300  0.98959795  1
  S  S35  1  0.00000000  -0.00000000  0.15622672  1
  S  S36  1  0.00000000  0.00000000  0.94787781  1
  S  S37  1  -0.00000000  -0.00000000  0.65623130  1
  S  S38  1  0.33333300  0.66666700  0.73955711  1
  S  S39  1  -0.00000000  -0.00000000  0.28126676  1
  S  S40  1  0.66666700  0.33333300  0.48952044  1
  S  S41  1  0.33333300  0.66666700  0.36452396  1
  S  S42  1  0.33333300  0.66666700  0.07289832  1
  S  S43  1  0.66666700  0.33333300  0.11455810  1
  S  S44  1  0.33333300  0.66666700  0.61456156  1
  S  S45  1  0.66666700  0.33333300  0.82293192  1
  S  S46  1  0.33333300  0.66666700  0.90626262  1
  S  S47  1  0.66666700  0.33333300  0.23951793  1
