# generated using pymatgen
data_Ga2(SO4)3
_symmetry_space_group_name_H-M   'P 1'
_cell_length_a   8.67588242
_cell_length_b   8.67588242
_cell_length_c   8.67588319
_cell_angle_alpha   55.51046772
_cell_angle_beta   55.51046772
_cell_angle_gamma   55.51046497
_symmetry_Int_Tables_number   1
_chemical_formula_structural   Ga2(SO4)3
_chemical_formula_sum   'Ga4 S6 O24'
_cell_volume   413.63805952
_cell_formula_units_Z   2
loop_
 _symmetry_equiv_pos_site_id
 _symmetry_equiv_pos_as_xyz
  1  'x, y, z'
loop_
 _atom_site_type_symbol
 _atom_site_label
 _atom_site_symmetry_multiplicity
 _atom_site_fract_x
 _atom_site_fract_y
 _atom_site_fract_z
 _atom_site_occupancy
  Ga  Ga0  1  0.14376402  0.14376402  0.14376402  1
  Ga  Ga1  1  0.85623598  0.85623598  0.85623598  1
  Ga  Ga2  1  0.34935017  0.34935017  0.34935017  1
  Ga  Ga3  1  0.65064983  0.65064983  0.65064983  1
  S  S4  1  0.03900303  0.45787980  0.75121939  1
  S  S5  1  0.45787980  0.75121939  0.03900303  1
  S  S6  1  0.75121939  0.03900303  0.45787980  1
  S  S7  1  0.96099697  0.54212020  0.24878061  1
  S  S8  1  0.54212020  0.24878061  0.96099697  1
  S  S9  1  0.24878061  0.96099697  0.54212020  1
  O  O10  1  0.01381576  0.61112742  0.79689292  1
  O  O11  1  0.61112742  0.79689292  0.01381576  1
  O  O12  1  0.79689292  0.01381576  0.61112742  1
  O  O13  1  0.98618424  0.38887258  0.20310708  1
  O  O14  1  0.38887258  0.20310708  0.98618424  1
  O  O15  1  0.20310708  0.98618424  0.38887258  1
  O  O16  1  0.84414457  0.47402449  0.78618198  1
  O  O17  1  0.47402449  0.78618198  0.84414457  1
  O  O18  1  0.78618198  0.84414457  0.47402449  1
  O  O19  1  0.15585543  0.52597551  0.21381802  1
  O  O20  1  0.52597551  0.21381802  0.15585543  1
  O  O21  1  0.21381802  0.15585543  0.52597551  1
  O  O22  1  0.17390865  0.48547461  0.54137804  1
  O  O23  1  0.48547461  0.54137804  0.17390865  1
  O  O24  1  0.54137804  0.17390865  0.48547461  1
  O  O25  1  0.82609135  0.51452539  0.45862196  1
  O  O26  1  0.51452539  0.45862196  0.82609135  1
  O  O27  1  0.45862196  0.82609135  0.51452539  1
  O  O28  1  0.12785429  0.25812316  0.88228929  1
  O  O29  1  0.25812316  0.88228929  0.12785429  1
  O  O30  1  0.88228929  0.12785429  0.25812316  1
  O  O31  1  0.87214571  0.74187684  0.11771071  1
  O  O32  1  0.74187684  0.11771071  0.87214571  1
  O  O33  1  0.11771071  0.87214571  0.74187684  1
