# generated using pymatgen
data_Sr3MgGeN4
_symmetry_space_group_name_H-M   'P 1'
_cell_length_a   5.95141916
_cell_length_b   9.62222621
_cell_length_c   10.33841275
_cell_angle_alpha   90.00000000
_cell_angle_beta   90.00000000
_cell_angle_gamma   90.00000000
_symmetry_Int_Tables_number   1
_chemical_formula_structural   Sr3MgGeN4
_chemical_formula_sum   'Sr12 Mg4 Ge4 N16'
_cell_volume   592.03852546
_cell_formula_units_Z   4
loop_
 _symmetry_equiv_pos_site_id
 _symmetry_equiv_pos_as_xyz
  1  'x, y, z'
loop_
 _atom_site_type_symbol
 _atom_site_label
 _atom_site_symmetry_multiplicity
 _atom_site_fract_x
 _atom_site_fract_y
 _atom_site_fract_z
 _atom_site_occupancy
  Sr  Sr0  1  0.75000000  0.40735237  0.00000000  1
  Sr  Sr1  1  0.11263423  0.90946418  0.84673187  1
  Sr  Sr2  1  0.38736577  0.59053582  0.34673187  1
  Sr  Sr3  1  0.88736577  0.09053582  0.15326813  1
  Sr  Sr4  1  0.88736577  0.40946418  0.34673187  1
  Sr  Sr5  1  0.75000000  0.09264763  0.50000000  1
  Sr  Sr6  1  0.38736577  0.90946418  0.15326813  1
  Sr  Sr7  1  0.61263423  0.40946418  0.65326813  1
  Sr  Sr8  1  0.25000000  0.59264763  -0.00000000  1
  Sr  Sr9  1  0.11263423  0.59053582  0.65326813  1
  Sr  Sr10  1  0.61263423  0.09053582  0.84673187  1
  Sr  Sr11  1  0.25000000  0.90735237  0.50000000  1
  Mg  Mg12  1  0.15770148  0.25000000  0.75000000  1
  Mg  Mg13  1  0.84229852  0.75000000  0.25000000  1
  Mg  Mg14  1  0.34229852  0.25000000  0.25000000  1
  Mg  Mg15  1  0.65770148  0.75000000  0.75000000  1
  Ge  Ge16  1  0.75000000  0.76823250  0.50000000  1
  Ge  Ge17  1  0.75000000  0.73176750  -0.00000000  1
  Ge  Ge18  1  0.25000000  0.26823250  0.00000000  1
  Ge  Ge19  1  0.25000000  0.23176750  0.50000000  1
  N  N20  1  0.98492110  0.66416923  0.41612041  1
  N  N21  1  0.38241562  0.37161926  0.86354827  1
  N  N22  1  0.88241562  0.87161926  0.63645173  1
  N  N23  1  0.01507890  0.16416923  0.91612041  1
  N  N24  1  0.48492110  0.16416923  0.08387959  1
  N  N25  1  0.48492110  0.33583077  0.41612041  1
  N  N26  1  0.98492110  0.83583077  0.08387959  1
  N  N27  1  0.01507890  0.33583077  0.58387959  1
  N  N28  1  0.88241562  0.62838074  0.86354827  1
  N  N29  1  0.51507890  0.66416923  0.58387959  1
  N  N30  1  0.61758438  0.62838074  0.13645173  1
  N  N31  1  0.38241562  0.12838074  0.63645173  1
  N  N32  1  0.61758438  0.87161926  0.36354827  1
  N  N33  1  0.11758438  0.37161926  0.13645173  1
  N  N34  1  0.11758438  0.12838074  0.36354827  1
  N  N35  1  0.51507890  0.83583077  0.91612041  1
