# generated using pymatgen
data_Gd4Si2Se3O7
_symmetry_space_group_name_H-M   'P 1'
_cell_length_a   11.07984551
_cell_length_b   11.07984508
_cell_length_c   11.07984523
_cell_angle_alpha   100.17078143
_cell_angle_beta   114.31221055
_cell_angle_gamma   114.31221189
_symmetry_Int_Tables_number   1
_chemical_formula_structural   Gd4Si2Se3O7
_chemical_formula_sum   'Gd16 Si8 Se12 O28'
_cell_volume   1026.87729696
_cell_formula_units_Z   4
loop_
 _symmetry_equiv_pos_site_id
 _symmetry_equiv_pos_as_xyz
  1  'x, y, z'
loop_
 _atom_site_type_symbol
 _atom_site_label
 _atom_site_symmetry_multiplicity
 _atom_site_fract_x
 _atom_site_fract_y
 _atom_site_fract_z
 _atom_site_occupancy
  Gd  Gd0  1  0.25000000  0.29747015  0.70252985  1
  Gd  Gd1  1  0.48906111  0.82233418  0.33327307  1
  Gd  Gd2  1  0.09494030  0.04747015  0.29747015  1
  Gd  Gd3  1  0.01093889  0.66672693  0.17766582  1
  Gd  Gd4  1  0.40505970  0.70252985  0.95252985  1
  Gd  Gd5  1  0.48906111  0.66672693  0.65578803  1
  Gd  Gd6  1  0.98906111  0.65578803  0.66672693  1
  Gd  Gd7  1  0.25000000  0.95252985  0.04747015  1
  Gd  Gd8  1  0.90505970  0.95252985  0.70252985  1
  Gd  Gd9  1  0.98906111  0.33327307  0.82233418  1
  Gd  Gd10  1  0.01093889  0.34421197  0.33327307  1
  Gd  Gd11  1  0.75000000  0.70252985  0.29747015  1
  Gd  Gd12  1  0.75000000  0.04747015  0.95252985  1
  Gd  Gd13  1  0.51093889  0.33327307  0.34421197  1
  Gd  Gd14  1  0.51093889  0.17766582  0.66672693  1
  Gd  Gd15  1  0.59494030  0.29747015  0.04747015  1
  Si  Si16  1  0.37447019  0.90702260  0.78149278  1
  Si  Si17  1  0.62552981  0.53255241  0.90702260  1
  Si  Si18  1  0.12552981  0.21850722  0.09297740  1
  Si  Si19  1  0.37447019  0.46744759  0.09297740  1
  Si  Si20  1  0.62552981  0.09297740  0.21850722  1
  Si  Si21  1  0.87447019  0.78149278  0.90702260  1
  Si  Si22  1  0.87447019  0.09297740  0.46744759  1
  Si  Si23  1  0.12552981  0.90702260  0.53255241  1
  Se  Se24  1  0.14501603  0.64501603  1.00000000  1
  Se  Se25  1  0.35498397  0.35498397  0.50000000  1
  Se  Se26  1  0.25000000  0.12500000  0.87500000  1
  Se  Se27  1  0.85498397  0.35498397  0.00000000  1
  Se  Se28  1  0.64501603  1.00000000  0.64501603  1
  Se  Se29  1  0.64501603  0.64501603  0.50000000  1
  Se  Se30  1  0.35498397  0.00000000  0.35498397  1
  Se  Se31  1  0.25000000  0.62500000  0.37500000  1
  Se  Se32  1  0.85498397  0.50000000  0.35498397  1
  Se  Se33  1  0.75000000  0.37500000  0.62500000  1
  Se  Se34  1  0.14501603  0.50000000  0.64501603  1
  Se  Se35  1  0.75000000  0.87500000  0.12500000  1
  O  O36  1  0.25000000  0.85787295  0.60787295  1
  O  O37  1  0.48881530  0.56937151  0.83943644  1
  O  O38  1  0.72993508  0.56937151  0.08055622  1
  O  O39  1  0.01118470  0.85062114  0.08055622  1
  O  O40  1  0.77006492  0.91944378  0.43062849  1
  O  O41  1  0.02065841  0.83062181  0.35128022  1
  O  O42  1  0.27006492  0.43062849  0.91944378  1
  O  O43  1  0.51118470  0.08055622  0.85062114  1
  O  O44  1  0.97934159  0.16937819  0.64871978  1
  O  O45  1  0.52065841  0.16937819  0.19003660  1
  O  O46  1  0.77006492  0.85062114  0.83943644  1
  O  O47  1  0.22993508  0.08055622  0.56937151  1
  O  O48  1  0.47934159  0.64871978  0.16937819  1
  O  O49  1  0.27006492  0.83943644  0.85062114  1
  O  O50  1  0.52065841  0.35128022  0.83062181  1
  O  O51  1  0.75000000  0.14212705  0.39212705  1
  O  O52  1  0.47934159  0.83062181  0.80996340  1
  O  O53  1  0.02065841  0.19003660  0.16937819  1
  O  O54  1  0.01118470  0.16056356  0.43062849  1
  O  O55  1  0.97934159  0.80996340  0.83062181  1
  O  O56  1  0.22993508  0.14937886  0.16056356  1
  O  O57  1  0.98881530  0.14937886  0.91944378  1
  O  O58  1  0.51118470  0.43062849  0.16056356  1
  O  O59  1  0.98881530  0.83943644  0.56937151  1
  O  O60  1  0.25000000  0.39212705  0.14212705  1
  O  O61  1  0.48881530  0.91944378  0.14937886  1
  O  O62  1  0.75000000  0.60787295  0.85787295  1
  O  O63  1  0.72993508  0.16056356  0.14937886  1
