# generated using pymatgen
data_Nb2PbO6
_symmetry_space_group_name_H-M   'P 1'
_cell_length_a   7.24276966
_cell_length_b   7.24276966
_cell_length_c   7.24276978
_cell_angle_alpha   94.23146037
_cell_angle_beta   94.23146037
_cell_angle_gamma   94.23146800
_symmetry_Int_Tables_number   1
_chemical_formula_structural   Nb2PbO6
_chemical_formula_sum   'Nb6 Pb3 O18'
_cell_volume   376.66965547
_cell_formula_units_Z   3
loop_
 _symmetry_equiv_pos_site_id
 _symmetry_equiv_pos_as_xyz
  1  'x, y, z'
loop_
 _atom_site_type_symbol
 _atom_site_label
 _atom_site_symmetry_multiplicity
 _atom_site_fract_x
 _atom_site_fract_y
 _atom_site_fract_z
 _atom_site_occupancy
  Nb  Nb0  1  0.51705158  0.16027279  0.81799278  1
  Nb  Nb1  1  0.81799278  0.51705158  0.16027279  1
  Nb  Nb2  1  0.16027279  0.81799278  0.51705158  1
  Nb  Nb3  1  0.81799278  0.16027279  0.51705158  1
  Nb  Nb4  1  0.51705158  0.81799278  0.16027279  1
  Nb  Nb5  1  0.16027279  0.51705158  0.81799278  1
  Pb  Pb6  1  0.99547458  0.99547458  0.99547458  1
  Pb  Pb7  1  0.65198807  0.65198807  0.65198807  1
  Pb  Pb8  1  0.34849615  0.34849615  0.34849615  1
  O  O9  1  0.06176955  0.51487265  0.06176955  1
  O  O10  1  0.06176955  0.06176955  0.51487265  1
  O  O11  1  0.51487265  0.06176955  0.06176955  1
  O  O12  1  0.39959509  0.95408699  0.67808523  1
  O  O13  1  0.67808523  0.39959509  0.95408699  1
  O  O14  1  0.95408699  0.67808523  0.39959509  1
  O  O15  1  0.67808523  0.95408699  0.39959509  1
  O  O16  1  0.39959509  0.67808523  0.95408699  1
  O  O17  1  0.95408699  0.39959509  0.67808523  1
  O  O18  1  0.29849038  0.57867191  0.57867191  1
  O  O19  1  0.57867191  0.29849038  0.57867191  1
  O  O20  1  0.57867191  0.57867191  0.29849038  1
  O  O21  1  0.77442419  0.06644787  0.77442419  1
  O  O22  1  0.77442419  0.77442419  0.06644787  1
  O  O23  1  0.06644787  0.77442419  0.77442419  1
  O  O24  1  0.29808392  0.84295721  0.29808392  1
  O  O25  1  0.29808392  0.29808392  0.84295721  1
  O  O26  1  0.84295721  0.29808392  0.29808392  1
