# generated using pymatgen
data_K4Ti3S14
_symmetry_space_group_name_H-M   'P 1'
_cell_length_a   11.29889105
_cell_length_b   11.29889105
_cell_length_c   13.04984529
_cell_angle_alpha   68.98928855
_cell_angle_beta   68.98928855
_cell_angle_gamma   41.47086449
_symmetry_Int_Tables_number   1
_chemical_formula_structural   K4Ti3S14
_chemical_formula_sum   'K8 Ti6 S28'
_cell_volume   1018.99547113
_cell_formula_units_Z   2
loop_
 _symmetry_equiv_pos_site_id
 _symmetry_equiv_pos_as_xyz
  1  'x, y, z'
loop_
 _atom_site_type_symbol
 _atom_site_label
 _atom_site_symmetry_multiplicity
 _atom_site_fract_x
 _atom_site_fract_y
 _atom_site_fract_z
 _atom_site_occupancy
  K  K0  1  0.02231548  0.37955287  0.88860218  1
  K  K1  1  0.62044713  0.97768452  0.61139782  1
  K  K2  1  0.97768452  0.62044713  0.11139782  1
  K  K3  1  0.37955287  0.02231548  0.38860218  1
  K  K4  1  0.18837451  0.66935602  0.64770963  1
  K  K5  1  0.33064398  0.81162549  0.85229037  1
  K  K6  1  0.81162549  0.33064398  0.35229037  1
  K  K7  1  0.66935602  0.18837451  0.14770963  1
  Ti  Ti8  1  0.92125490  0.41379291  0.58464189  1
  Ti  Ti9  1  0.58620709  0.07874510  0.91535811  1
  Ti  Ti10  1  0.07874510  0.58620709  0.41535811  1
  Ti  Ti11  1  0.41379291  0.92125490  0.08464189  1
  Ti  Ti12  1  0.76410479  0.23589521  0.75000000  1
  Ti  Ti13  1  0.23589521  0.76410479  0.25000000  1
  S  S14  1  0.98864802  0.56947501  0.60348135  1
  S  S15  1  0.43052499  0.01135198  0.89651865  1
  S  S16  1  0.01135198  0.43052499  0.39651865  1
  S  S17  1  0.56947501  0.98864802  0.10348135  1
  S  S18  1  0.65466113  0.48468543  0.58014235  1
  S  S19  1  0.51531457  0.34533887  0.91985765  1
  S  S20  1  0.34533887  0.51531457  0.41985765  1
  S  S21  1  0.48468543  0.65466113  0.08014235  1
  S  S22  1  0.75743492  0.43336225  0.79400018  1
  S  S23  1  0.56663775  0.24256508  0.70599982  1
  S  S24  1  0.24256508  0.56663775  0.20599982  1
  S  S25  1  0.43336225  0.75743492  0.29400018  1
  S  S26  1  0.07480729  0.09781980  0.63096231  1
  S  S27  1  0.90218020  0.92519271  0.86903769  1
  S  S28  1  0.92519271  0.90218020  0.36903769  1
  S  S29  1  0.09781980  0.07480729  0.13096231  1
  S  S30  1  0.88678644  0.19096556  0.89793869  1
  S  S31  1  0.80903444  0.11321356  0.60206131  1
  S  S32  1  0.11321356  0.80903444  0.10206131  1
  S  S33  1  0.19096556  0.88678644  0.39793869  1
  S  S34  1  0.84652995  0.80749319  0.83475268  1
  S  S35  1  0.19250681  0.15347005  0.66524732  1
  S  S36  1  0.15347005  0.19250681  0.16524732  1
  S  S37  1  0.80749319  0.84652995  0.33475268  1
  S  S38  1  0.30220419  0.40341087  0.89994488  1
  S  S39  1  0.59658913  0.69779581  0.60005512  1
  S  S40  1  0.69779581  0.59658913  0.10005512  1
  S  S41  1  0.40341087  0.30220419  0.39994488  1
