# generated using pymatgen
data_ZnS
_symmetry_space_group_name_H-M   'P 1'
_cell_length_a   3.80670824
_cell_length_b   3.80670947
_cell_length_c   62.30255671
_cell_angle_alpha   90.00005405
_cell_angle_beta   89.99996446
_cell_angle_gamma   119.99951247
_symmetry_Int_Tables_number   1
_chemical_formula_structural   ZnS
_chemical_formula_sum   'Zn20 S20'
_cell_volume   781.87613872
_cell_formula_units_Z   20
loop_
 _symmetry_equiv_pos_site_id
 _symmetry_equiv_pos_as_xyz
  1  'x, y, z'
loop_
 _atom_site_type_symbol
 _atom_site_label
 _atom_site_symmetry_multiplicity
 _atom_site_fract_x
 _atom_site_fract_y
 _atom_site_fract_z
 _atom_site_occupancy
  Zn  Zn0  1  0.33333698  0.66666302  0.65005001  1
  Zn  Zn1  1  0.33333268  0.66666832  0.05002253  1
  Zn  Zn2  1  0.99999741  0.00000259  0.60001471  1
  Zn  Zn3  1  0.66666333  0.33333667  0.80005691  1
  Zn  Zn4  1  0.00000289  0.99999711  0.30002099  1
  Zn  Zn5  1  0.66666349  0.33333651  0.95001471  1
  Zn  Zn6  1  0.66666153  0.33333847  0.50001811  1
  Zn  Zn7  1  0.66666387  0.33333613  0.35005335  1
  Zn  Zn8  1  0.66667167  0.33332933  0.10004117  1
  Zn  Zn9  1  0.99999713  0.00000287  0.89999962  1
  Zn  Zn10  1  0.33332945  0.66667055  0.55000473  1
  Zn  Zn11  1  0.00000291  0.99999709  0.00003749  1
  Zn  Zn12  1  0.99999540  0.00000460  0.45001736  1
  Zn  Zn13  1  0.33332941  0.66667059  0.40003521  1
  Zn  Zn14  1  0.00000399  0.99999601  0.15002924  1
  Zn  Zn15  1  0.33332942  0.66667058  0.85003509  1
  Zn  Zn16  1  0.33333886  0.66666114  0.20002785  1
  Zn  Zn17  1  0.66666880  0.33333120  0.70001932  1
  Zn  Zn18  1  0.00000299  0.99999701  0.75002794  1
  Zn  Zn19  1  0.66667185  0.33332915  0.25001378  1
  S  S20  1  0.99999536  0.00000464  0.33751631  1
  S  S21  1  0.33333987  0.66666013  0.68747640  1
  S  S22  1  0.66666107  0.33333893  0.83748474  1
  S  S23  1  0.66667166  0.33332734  0.28743651  1
  S  S24  1  0.33334001  0.66665999  0.23747583  1
  S  S25  1  0.00000131  -0.00000131  0.03746486  1
  S  S26  1  0.66666108  0.33333892  0.38748744  1
  S  S27  1  0.33334182  0.66665818  0.08747985  1
  S  S28  1  0.33332657  0.66667343  0.88746993  1
  S  S29  1  0.66667178  0.33332822  0.98750243  1
  S  S30  1  0.99999409  0.00000591  0.48746458  1
  S  S31  1  0.66667258  0.33332742  0.73743501  1
  S  S32  1  0.66666105  0.33333895  0.53746498  1
  S  S33  1  0.99999445  0.00000455  0.78751129  1
  S  S34  1  0.00000561  0.99999439  0.63750327  1
  S  S35  1  0.33332838  0.66667162  0.58742362  1
  S  S36  1  0.66667293  0.33332707  0.13748779  1
  S  S37  1  0.99999532  0.00000468  0.93741930  1
  S  S38  1  0.33332715  0.66667285  0.43747812  1
  S  S39  1  0.00000686  0.99999314  0.18747962  1
