# generated using pymatgen
data_CsAgCl2
_symmetry_space_group_name_H-M   'P 1'
_cell_length_a   4.42054013
_cell_length_b   5.64150292
_cell_length_c   9.89436132
_cell_angle_alpha   90.00000000
_cell_angle_beta   102.90804551
_cell_angle_gamma   90.00000000
_symmetry_Int_Tables_number   1
_chemical_formula_structural   CsAgCl2
_chemical_formula_sum   'Cs2 Ag2 Cl4'
_cell_volume   240.51500743
_cell_formula_units_Z   2
loop_
 _symmetry_equiv_pos_site_id
 _symmetry_equiv_pos_as_xyz
  1  'x, y, z'
loop_
 _atom_site_type_symbol
 _atom_site_label
 _atom_site_symmetry_multiplicity
 _atom_site_fract_x
 _atom_site_fract_y
 _atom_site_fract_z
 _atom_site_occupancy
  Cs  Cs0  1  0.41549562  0.25000000  0.83099224  1
  Cs  Cs1  1  0.58450438  0.75000000  0.16900776  1
  Ag  Ag2  1  0.20059058  0.25000000  0.40117916  1
  Ag  Ag3  1  0.79940942  0.75000000  0.59882084  1
  Cl  Cl4  1  0.77489366  0.25000000  0.54978632  1
  Cl  Cl5  1  0.22510634  0.75000000  0.45021368  1
  Cl  Cl6  1  0.06907695  0.25000000  0.13815489  1
  Cl  Cl7  1  0.93092305  0.75000000  0.86184511  1
