# generated using pymatgen
data_HgI2
_symmetry_space_group_name_H-M   'P 1'
_cell_length_a   8.98306605
_cell_length_b   8.98397416
_cell_length_c   14.25909156
_cell_angle_alpha   108.42925737
_cell_angle_beta   108.42236223
_cell_angle_gamma   90.01827462
_symmetry_Int_Tables_number   1
_chemical_formula_structural   HgI2
_chemical_formula_sum   'Hg8 I16'
_cell_volume   1029.35351302
_cell_formula_units_Z   8
loop_
 _symmetry_equiv_pos_site_id
 _symmetry_equiv_pos_as_xyz
  1  'x, y, z'
loop_
 _atom_site_type_symbol
 _atom_site_label
 _atom_site_symmetry_multiplicity
 _atom_site_fract_x
 _atom_site_fract_y
 _atom_site_fract_z
 _atom_site_occupancy
  Hg  Hg0  1  0.18421924  0.68772625  0.37531687  1
  Hg  Hg1  1  0.18781024  0.68456700  0.87542889  1
  Hg  Hg2  1  0.69070819  0.68668926  0.37479629  1
  Hg  Hg3  1  0.30919253  0.31316934  0.62515828  1
  Hg  Hg4  1  0.81222838  0.31560855  0.12459518  1
  Hg  Hg5  1  0.18695954  0.19091308  0.87473891  1
  Hg  Hg6  1  0.81571492  0.31225331  0.62466237  1
  Hg  Hg7  1  0.81317898  0.80918000  0.12523082  1
  I  I8  1  0.50569161  0.75507158  0.51061307  1
  I  I9  1  0.00621745  0.75624926  0.51252795  1
  I  I10  1  0.38530146  0.11495186  0.74998020  1
  I  I11  1  0.99374184  0.24378201  0.48756419  1
  I  I12  1  0.38705016  0.63568428  0.75136114  1
  I  I13  1  0.13496372  0.36477305  0.25004248  1
  I  I14  1  0.86447425  0.11296478  0.74869405  1
  I  I15  1  0.25592325  0.00620858  0.01083694  1
  I  I16  1  0.61472230  0.88503113  0.24999301  1
  I  I17  1  0.13554293  0.88716440  0.25152267  1
  I  I18  1  0.74456275  0.99405536  0.98922934  1
  I  I19  1  0.74377281  0.49366590  0.98747758  1
  I  I20  1  0.61278134  0.36431484  0.24847415  1
  I  I21  1  0.49413517  0.24431442  0.48929591  1
  I  I22  1  0.25629064  0.50638262  0.01249560  1
  I  I23  1  0.86481630  0.63527715  0.74996708  1
