# generated using pymatgen
data_Mg(AlB14)2
_symmetry_space_group_name_H-M   'P 1'
_cell_length_a   7.15724024
_cell_length_b   7.15960954
_cell_length_c   10.93054543
_cell_angle_alpha   101.40461075
_cell_angle_beta   102.50494673
_cell_angle_gamma   111.37418174
_symmetry_Int_Tables_number   1
_chemical_formula_structural   Mg(AlB14)2
_chemical_formula_sum   'Mg2 Al4 B56'
_cell_volume   485.06703864
_cell_formula_units_Z   2
loop_
 _symmetry_equiv_pos_site_id
 _symmetry_equiv_pos_as_xyz
  1  'x, y, z'
loop_
 _atom_site_type_symbol
 _atom_site_label
 _atom_site_symmetry_multiplicity
 _atom_site_fract_x
 _atom_site_fract_y
 _atom_site_fract_z
 _atom_site_occupancy
  Mg  Mg0  1  0.49941574  0.88809382  0.11092054  1
  Mg  Mg1  1  0.99441599  0.09282206  0.39606117  1
  Al  Al2  1  0.21754484  0.47797000  0.23543587  1
  Al  Al3  1  0.51071367  0.51013443  0.49925066  1
  Al  Al4  1  0.79577451  0.53330492  0.76686337  1
  Al  Al5  1  0.45462260  0.15138929  0.80803036  1
  B  B6  1  0.11890970  0.86918183  0.08629767  1
  B  B7  1  0.13174468  0.25914778  0.04057702  1
  B  B8  1  0.30128960  0.52986267  0.07521749  1
  B  B9  1  0.20404809  0.72376500  0.17288140  1
  B  B10  1  0.27495859  0.09806904  0.04955689  1
  B  B11  1  0.88414697  0.89967736  0.11261672  1
  B  B12  1  0.71024983  0.46375541  0.08581916  1
  B  B13  1  0.54034363  0.53525220  0.16661604  1
  B  B14  1  0.37194333  0.87310908  0.33464918  1
  B  B15  1  0.54008916  0.27335527  0.14127920  1
  B  B16  1  0.80271520  0.72490679  0.20337916  1
  B  B17  1  0.88992858  0.13928743  0.08258843  1
  B  B18  1  0.80654686  0.30704592  0.16639399  1
  B  B19  1  0.96573895  0.58848329  0.20485110  1
  B  B20  1  0.53706724  0.41390307  0.29416079  1
  B  B21  1  0.69819238  0.69524059  0.33576625  1
  B  B22  1  0.61442979  0.86326166  0.41930715  1
  B  B23  1  0.69947924  0.27403569  0.29909919  1
  B  B24  1  0.96226972  0.72481017  0.36091106  1
  B  B25  1  0.12893818  0.12083931  0.16348866  1
  B  B26  1  0.95896421  0.46598837  0.33535567  1
  B  B27  1  0.79330302  0.53700510  0.41755124  1
  B  B28  1  0.62231705  0.87663569  0.58683201  1
  B  B29  1  0.61722763  0.10147529  0.39106906  1
  B  B30  1  0.22482838  0.89658827  0.45219276  1
  B  B31  1  0.29543641  0.27056496  0.32643419  1
  B  B32  1  0.19727736  0.46950603  0.42502562  1
  B  B33  1  0.37101631  0.74211950  0.45709568  1
  B  B34  1  0.62833296  0.25887417  0.54449876  1
  B  B35  1  0.80667142  0.53090395  0.57782382  1
  B  B36  1  0.70662179  0.73060726  0.67669609  1
  B  B37  1  0.77465457  0.10215889  0.54808699  1
  B  B38  1  0.38295587  0.89799205  0.61028272  1
  B  B39  1  0.38051662  0.12258587  0.41532732  1
  B  B40  1  0.21087182  0.46722481  0.58630618  1
  B  B41  1  0.04228156  0.53421209  0.66587387  1
  B  B42  1  0.87075117  0.87785083  0.83784873  1
  B  B43  1  0.03687748  0.27294705  0.63985559  1
  B  B44  1  0.30529562  0.72964644  0.70760851  1
  B  B45  1  0.38584879  0.13480536  0.58221835  1
  B  B46  1  0.30100790  0.30453926  0.66649664  1
  B  B47  1  0.46631451  0.58632538  0.70818120  1
  B  B48  1  0.03220675  0.40676130  0.79541824  1
  B  B49  1  0.19190142  0.68908500  0.83551444  1
  B  B50  1  0.10879564  0.85613515  0.91924215  1
  B  B51  1  0.19433592  0.27170189  0.79721179  1
  B  B52  1  0.46105374  0.72678376  0.86207308  1
  B  B53  1  0.63192518  0.12410675  0.66367691  1
  B  B54  1  0.45753134  0.46876531  0.83584027  1
  B  B55  1  0.28676940  0.53127857  0.91676740  1
  B  B56  1  0.12117903  0.09603101  0.89148487  1
  B  B57  1  0.72711161  0.89880619  0.95376304  1
  B  B58  1  0.79129940  0.27004187  0.82905020  1
  B  B59  1  0.69444928  0.46270166  0.92608003  1
  B  B60  1  0.86881091  0.73871783  0.96219475  1
  B  B61  1  0.88173386  0.12682602  0.91600729  1
