# generated using pymatgen
data_KFeF4
_symmetry_space_group_name_H-M   'P 1'
_cell_length_a   7.57199362
_cell_length_b   7.76463019
_cell_length_c   12.15214817
_cell_angle_alpha   90.00000000
_cell_angle_beta   90.00000000
_cell_angle_gamma   90.00000000
_symmetry_Int_Tables_number   1
_chemical_formula_structural   KFeF4
_chemical_formula_sum   'K8 Fe8 F32'
_cell_volume   714.47012159
_cell_formula_units_Z   8
loop_
 _symmetry_equiv_pos_site_id
 _symmetry_equiv_pos_as_xyz
  1  'x, y, z'
loop_
 _atom_site_type_symbol
 _atom_site_label
 _atom_site_symmetry_multiplicity
 _atom_site_fract_x
 _atom_site_fract_y
 _atom_site_fract_z
 _atom_site_occupancy
  K  K0  1  0.75000000  0.37512124  0.02647336  1
  K  K1  1  0.25000000  0.37600492  0.48809346  1
  K  K2  1  0.75000000  0.87600492  0.01190654  1
  K  K3  1  0.25000000  0.62487876  0.97352664  1
  K  K4  1  0.25000000  0.87512124  0.47352664  1
  K  K5  1  0.75000000  0.12487876  0.52647336  1
  K  K6  1  0.75000000  0.62399508  0.51190654  1
  K  K7  1  0.25000000  0.12399508  0.98809346  1
  Fe  Fe8  1  0.00096999  0.62562835  0.24784764  1
  Fe  Fe9  1  0.99903001  0.12562835  0.25215236  1
  Fe  Fe10  1  0.99903001  0.37437165  0.75215236  1
  Fe  Fe11  1  0.50096999  0.37437165  0.75215236  1
  Fe  Fe12  1  0.49903001  0.87437165  0.74784764  1
  Fe  Fe13  1  0.50096999  0.12562835  0.25215236  1
  Fe  Fe14  1  0.49903001  0.62562835  0.24784764  1
  Fe  Fe15  1  0.00096999  0.87437165  0.74784764  1
  F  F16  1  0.04922934  0.87561391  0.25247417  1
  F  F17  1  0.44854147  0.61589422  0.39912982  1
  F  F18  1  0.04922934  0.62438609  0.75247417  1
  F  F19  1  0.45204121  0.36533234  0.90376516  1
  F  F20  1  0.54795879  0.86533234  0.59623484  1
  F  F21  1  0.75000000  0.41996500  0.79088702  1
  F  F22  1  0.94854147  0.38410578  0.60087018  1
  F  F23  1  0.45077066  0.62438609  0.75247417  1
  F  F24  1  0.75000000  0.82952710  0.78437567  1
  F  F25  1  0.05145853  0.61589422  0.39912982  1
  F  F26  1  0.55145853  0.11589422  0.10087018  1
  F  F27  1  0.54922934  0.37561391  0.24752583  1
  F  F28  1  0.55145853  0.38410578  0.60087018  1
  F  F29  1  0.94854147  0.11589422  0.10087018  1
  F  F30  1  0.54795879  0.63466766  0.09623484  1
  F  F31  1  0.45204121  0.13466766  0.40376516  1
  F  F32  1  0.05145853  0.88410578  0.89912982  1
  F  F33  1  0.25000000  0.91996500  0.70911298  1
  F  F34  1  0.95204121  0.63466766  0.09623484  1
  F  F35  1  0.75000000  0.67047290  0.28437567  1
  F  F36  1  0.25000000  0.32952710  0.71562433  1
  F  F37  1  0.95077066  0.37561391  0.24752583  1
  F  F38  1  0.54922934  0.12438609  0.74752583  1
  F  F39  1  0.95204121  0.86533234  0.59623484  1
  F  F40  1  0.44854147  0.88410578  0.89912982  1
  F  F41  1  0.45077066  0.87561391  0.25247417  1
  F  F42  1  0.04795879  0.13466766  0.40376516  1
  F  F43  1  0.25000000  0.17047290  0.21562433  1
  F  F44  1  0.95077066  0.12438609  0.74752583  1
  F  F45  1  0.25000000  0.58003500  0.20911298  1
  F  F46  1  0.75000000  0.08003500  0.29088702  1
  F  F47  1  0.04795879  0.36533234  0.90376516  1
