# generated using pymatgen
data_Cs2ZnCl4
_symmetry_space_group_name_H-M   'P 1'
_cell_length_a   7.41264355
_cell_length_b   9.79082800
_cell_length_c   13.02700995
_cell_angle_alpha   90.00000000
_cell_angle_beta   90.00000000
_cell_angle_gamma   90.00000000
_symmetry_Int_Tables_number   1
_chemical_formula_structural   Cs2ZnCl4
_chemical_formula_sum   'Cs8 Zn4 Cl16'
_cell_volume   945.44720622
_cell_formula_units_Z   4
loop_
 _symmetry_equiv_pos_site_id
 _symmetry_equiv_pos_as_xyz
  1  'x, y, z'
loop_
 _atom_site_type_symbol
 _atom_site_label
 _atom_site_symmetry_multiplicity
 _atom_site_fract_x
 _atom_site_fract_y
 _atom_site_fract_z
 _atom_site_occupancy
  Cs  Cs0  1  0.75000000  0.13663634  0.09493758  1
  Cs  Cs1  1  0.25000000  0.86336366  0.90506242  1
  Cs  Cs2  1  0.75000000  0.63663634  0.40506242  1
  Cs  Cs3  1  0.25000000  0.36336366  0.59493758  1
  Cs  Cs4  1  0.75000000  0.48153154  0.82503906  1
  Cs  Cs5  1  0.25000000  0.51846846  0.17496094  1
  Cs  Cs6  1  0.75000000  0.98153154  0.67496094  1
  Cs  Cs7  1  0.25000000  0.01846846  0.32503906  1
  Zn  Zn8  1  0.75000000  0.73383685  0.07843241  1
  Zn  Zn9  1  0.25000000  0.26616315  0.92156759  1
  Zn  Zn10  1  0.75000000  0.23383685  0.42156759  1
  Zn  Zn11  1  0.25000000  0.76616315  0.57843241  1
  Cl  Cl12  1  0.75000000  0.50388632  0.09497265  1
  Cl  Cl13  1  0.25000000  0.49611368  0.90502735  1
  Cl  Cl14  1  0.75000000  0.00388632  0.40502735  1
  Cl  Cl15  1  0.25000000  0.99611368  0.59497265  1
  Cl  Cl16  1  0.75000000  0.81562225  0.91489495  1
  Cl  Cl17  1  0.25000000  0.18437775  0.08510505  1
  Cl  Cl18  1  0.75000000  0.31562225  0.58510505  1
  Cl  Cl19  1  0.25000000  0.68437775  0.41489495  1
  Cl  Cl20  1  0.50092963  0.82191402  0.15357382  1
  Cl  Cl21  1  0.00092963  0.17808598  0.84642618  1
  Cl  Cl22  1  -0.00092963  0.32191402  0.34642618  1
  Cl  Cl23  1  0.49907037  0.67808598  0.65357382  1
  Cl  Cl24  1  0.49907037  0.17808598  0.84642618  1
  Cl  Cl25  1  -0.00092963  0.82191402  0.15357382  1
  Cl  Cl26  1  0.00092963  0.67808598  0.65357382  1
  Cl  Cl27  1  0.50092963  0.32191402  0.34642618  1
