# generated using pymatgen
data_Sb8Cl2O11
_symmetry_space_group_name_H-M   'P 1'
_cell_length_a   10.48448297
_cell_length_b   11.27308037
_cell_length_c   13.98811103
_cell_angle_alpha   78.59215372
_cell_angle_beta   76.25168415
_cell_angle_gamma   72.99441778
_symmetry_Int_Tables_number   1
_chemical_formula_structural   Sb8Cl2O11
_chemical_formula_sum   'Sb32 Cl8 O44'
_cell_volume   1520.98726268
_cell_formula_units_Z   4
loop_
 _symmetry_equiv_pos_site_id
 _symmetry_equiv_pos_as_xyz
  1  'x, y, z'
loop_
 _atom_site_type_symbol
 _atom_site_label
 _atom_site_symmetry_multiplicity
 _atom_site_fract_x
 _atom_site_fract_y
 _atom_site_fract_z
 _atom_site_occupancy
  Sb  Sb0  1  0.36521103  0.88532423  0.72792444  1
  Sb  Sb1  1  0.29563927  0.63370673  0.39119261  1
  Sb  Sb2  1  0.99325866  0.37660277  0.81393477  1
  Sb  Sb3  1  0.30611206  0.86839409  0.13457222  1
  Sb  Sb4  1  0.83933937  0.85444284  0.68505167  1
  Sb  Sb5  1  0.31283631  0.12662688  0.86109844  1
  Sb  Sb6  1  0.27826901  0.38041929  0.63745101  1
  Sb  Sb7  1  0.37054777  0.64917099  0.97474079  1
  Sb  Sb8  1  0.01406206  0.61295766  0.55868382  1
  Sb  Sb9  1  0.69388794  0.13160591  0.86542778  1
  Sb  Sb10  1  0.17802410  0.90486964  0.55767019  1
  Sb  Sb11  1  0.84160832  0.58333171  0.96938865  1
  Sb  Sb12  1  0.15839168  0.41666829  0.03061135  1
  Sb  Sb13  1  0.00517342  0.10353038  0.06777798  1
  Sb  Sb14  1  0.97533970  0.14707244  0.68920336  1
  Sb  Sb15  1  0.65857239  0.85916596  0.50807573  1
  Sb  Sb16  1  0.66360601  0.59753257  0.75604539  1
  Sb  Sb17  1  0.00674134  0.62339723  0.18606523  1
  Sb  Sb18  1  0.99482658  0.89646962  0.93222202  1
  Sb  Sb19  1  0.34142761  0.14083404  0.49192427  1
  Sb  Sb20  1  0.68716369  0.87337312  0.13890156  1
  Sb  Sb21  1  0.70436073  0.36629327  0.60880739  1
  Sb  Sb22  1  0.62945223  0.35082901  0.02525921  1
  Sb  Sb23  1  0.98593794  0.38704234  0.44131618  1
  Sb  Sb24  1  0.19068603  0.65933626  0.79775499  1
  Sb  Sb25  1  0.72173099  0.61958071  0.36254899  1
  Sb  Sb26  1  0.02466030  0.85292756  0.31079664  1
  Sb  Sb27  1  0.33639399  0.40246743  0.24395461  1
  Sb  Sb28  1  0.82197590  0.09513036  0.44232981  1
  Sb  Sb29  1  0.80931397  0.34066374  0.20224501  1
  Sb  Sb30  1  0.63478897  0.11467577  0.27207556  1
  Sb  Sb31  1  0.16066063  0.14555716  0.31494833  1
  Cl  Cl32  1  0.53209745  0.82067036  0.91291978  1
  Cl  Cl33  1  0.48420162  0.89454828  0.35151977  1
  Cl  Cl34  1  0.51579838  0.10545172  0.64848023  1
  Cl  Cl35  1  0.50307552  0.64224565  0.16764397  1
  Cl  Cl36  1  0.49687758  0.37078933  0.40430764  1
  Cl  Cl37  1  0.49692448  0.35775435  0.83235603  1
  Cl  Cl38  1  0.46790255  0.17932964  0.08708022  1
  Cl  Cl39  1  0.50312242  0.62921067  0.59569236  1
  O  O40  1  0.21916541  0.27033375  0.57146506  1
  O  O41  1  0.98877554  0.24484906  0.13950014  1
  O  O42  1  0.78872021  0.17603346  0.29845791  1
  O  O43  1  0.24138000  0.01206106  0.80904357  1
  O  O44  1  0.75862000  0.98793894  0.19095643  1
  O  O45  1  0.22539018  0.53805372  0.32076533  1
  O  O46  1  0.18328705  0.09248881  0.45663434  1
  O  O47  1  0.98274698  0.26380411  0.35693701  1
  O  O48  1  0.21499199  0.57292630  0.96443653  1
  O  O49  1  0.82599102  0.86875521  0.01616032  1
  O  O50  1  0.77460982  0.46194628  0.67923467  1
  O  O51  1  0.79498556  0.71797241  0.20902526  1
  O  O52  1  0.90689068  0.27032244  0.56782608  1
  O  O53  1  0.01122446  0.75515094  0.86049986  1
  O  O54  1  0.97321491  0.52711753  0.08910183  1
  O  O55  1  0.78500801  0.42707370  0.03556347  1
  O  O56  1  0.00721823  0.00040469  0.37818843  1
  O  O57  1  0.78083459  0.72966625  0.42853494  1
  O  O58  1  0.92357669  0.53280737  0.31166074  1
  O  O59  1  0.25708765  0.27153237  0.33414372  1
  O  O60  1  0.77158578  0.19967357  0.72735759  1
  O  O61  1  0.74291235  0.72846763  0.66585628  1
  O  O62  1  0.69339220  0.25942513  0.15011744  1
  O  O63  1  0.10209342  0.97277943  0.16215385  1
  O  O64  1  0.24482185  0.76977747  0.06025105  1
  O  O65  1  0.22841422  0.80032643  0.27264241  1
  O  O66  1  0.09310932  0.72967756  0.43217392  1
  O  O67  1  0.20501444  0.28202759  0.79097474  1
  O  O68  1  0.78367279  0.46045046  0.46934105  1
  O  O69  1  0.99278177  0.99959531  0.62181157  1
  O  O70  1  0.21127979  0.82396654  0.70154209  1
  O  O71  1  0.30660780  0.74057487  0.84988256  1
  O  O72  1  0.07642331  0.46719263  0.68833926  1
  O  O73  1  0.18068448  0.45396719  0.16765269  1
  O  O74  1  0.75517815  0.23022253  0.93974895  1
  O  O75  1  0.81671295  0.90751119  0.54336566  1
  O  O76  1  0.81931552  0.54603281  0.83234731  1
  O  O77  1  0.70842347  0.00139601  0.40036516  1
  O  O78  1  0.29157653  0.99860399  0.59963484  1
  O  O79  1  0.01725302  0.73619589  0.64306299  1
  O  O80  1  0.02678509  0.47288247  0.91089817  1
  O  O81  1  0.17400898  0.13124479  0.98383968  1
  O  O82  1  0.21632721  0.53954954  0.53065895  1
  O  O83  1  0.89790658  0.02722057  0.83784615  1
