# generated using pymatgen
data_CaFeF5
_symmetry_space_group_name_H-M   'P 1'
_cell_length_a   10.12044033
_cell_length_b   5.48328477
_cell_length_c   7.58935444
_cell_angle_alpha   70.24040000
_cell_angle_beta   90.00000000
_cell_angle_gamma   90.00000000
_symmetry_Int_Tables_number   1
_chemical_formula_structural   CaFeF5
_chemical_formula_sum   'Ca4 Fe4 F20'
_cell_volume   396.35994931
_cell_formula_units_Z   4
loop_
 _symmetry_equiv_pos_site_id
 _symmetry_equiv_pos_as_xyz
  1  'x, y, z'
loop_
 _atom_site_type_symbol
 _atom_site_label
 _atom_site_symmetry_multiplicity
 _atom_site_fract_x
 _atom_site_fract_y
 _atom_site_fract_z
 _atom_site_occupancy
  Ca  Ca0  1  0.02043537  0.53106870  0.74508109  1
  Ca  Ca1  1  0.52043537  0.46893130  0.75491891  1
  Ca  Ca2  1  0.97956463  0.46893130  0.25491891  1
  Ca  Ca3  1  0.47956463  0.53106870  0.24508109  1
  Fe  Fe4  1  0.75412919  0.10756405  0.59920863  1
  Fe  Fe5  1  0.25412919  0.89243595  0.90079137  1
  Fe  Fe6  1  0.24587081  0.89243595  0.40079137  1
  Fe  Fe7  1  0.74587081  0.10756405  0.09920863  1
  F  F8  1  0.87994519  0.39751668  0.55544731  1
  F  F9  1  0.37994519  0.60248332  0.94455269  1
  F  F10  1  0.12005481  0.60248332  0.44455269  1
  F  F11  1  0.62005481  0.39751668  0.05544731  1
  F  F12  1  0.61322649  0.36041316  0.50166786  1
  F  F13  1  0.11322649  0.63958684  0.99833214  1
  F  F14  1  0.38677351  0.63958684  0.49833214  1
  F  F15  1  0.88677351  0.36041316  0.00166786  1
  F  F16  1  0.39819910  0.11243446  0.80701893  1
  F  F17  1  0.89819910  0.88756554  0.69298107  1
  F  F18  1  0.60180090  0.88756554  0.19298107  1
  F  F19  1  0.10180090  0.11243446  0.30701893  1
  F  F20  1  0.13857654  0.16998447  0.86597635  1
  F  F21  1  0.63857654  0.83001553  0.63402365  1
  F  F22  1  0.86142346  0.83001553  0.13402365  1
  F  F23  1  0.36142346  0.16998447  0.36597635  1
  F  F24  1  0.69914443  0.15353707  0.83654636  1
  F  F25  1  0.19914443  0.84646293  0.66345364  1
  F  F26  1  0.30085557  0.84646293  0.16345364  1
  F  F27  1  0.80085557  0.15353707  0.33654636  1
