# generated using pymatgen
data_SiC
_symmetry_space_group_name_H-M   'P 1'
_cell_length_a   3.07699899
_cell_length_b   3.07699814
_cell_length_c   52.83511290
_cell_angle_alpha   90.00000000
_cell_angle_beta   90.00000000
_cell_angle_gamma   119.99998780
_symmetry_Int_Tables_number   1
_chemical_formula_structural   SiC
_chemical_formula_sum   'Si21 C21'
_cell_volume   433.21941502
_cell_formula_units_Z   21
loop_
 _symmetry_equiv_pos_site_id
 _symmetry_equiv_pos_as_xyz
  1  'x, y, z'
loop_
 _atom_site_type_symbol
 _atom_site_label
 _atom_site_symmetry_multiplicity
 _atom_site_fract_x
 _atom_site_fract_y
 _atom_site_fract_z
 _atom_site_occupancy
  Si  Si0  1  0.66666700  0.33333300  0.47619269  1
  Si  Si1  1  0.66666700  0.33333300  0.19047420  1
  Si  Si2  1  0.33333300  0.66666700  0.61906628  1
  Si  Si3  1  0.66666700  0.33333300  0.09519542  1
  Si  Si4  1  0.33333300  0.66666700  0.76188325  1
  Si  Si5  1  0.66666700  0.33333300  0.90478046  1
  Si  Si6  1  -0.00000000  -0.00000000  0.71426867  1
  Si  Si7  1  -0.00000000  -0.00000000  0.28571807  1
  Si  Si8  1  0.33333300  0.66666700  0.95234483  1
  Si  Si9  1  0.33333300  0.66666700  0.52375160  1
  Si  Si10  1  0.00000000  0.00000000  0.14284073  1
  Si  Si11  1  0.33333300  0.66666700  0.23805511  1
  Si  Si12  1  0.00000000  0.00000000  0.99999108  1
  Si  Si13  1  -0.00000000  -0.00000000  0.42856314  1
  Si  Si14  1  0.33333300  0.66666700  0.33335458  1
  Si  Si15  1  0.33333300  0.66666700  0.04762735  1
  Si  Si16  1  0.66666700  0.33333300  0.80947546  1
  Si  Si17  1  0.66666700  0.33333300  0.66666373  1
  Si  Si18  1  -0.00000000  -0.00000000  0.57141810  1
  Si  Si19  1  0.66666700  0.33333300  0.38092187  1
  Si  Si20  1  -0.00000000  -0.00000000  0.85713670  1
  C  C21  1  0.33333300  0.66666700  0.27376332  1
  C  C22  1  0.66666700  0.33333300  0.70240139  1
  C  C23  1  0.66666700  0.33333300  0.94048628  1
  C  C24  1  0.33333300  0.66666700  0.65478991  1
  C  C25  1  0.33333300  0.66666700  0.79761571  1
  C  C26  1  -0.00000000  0.00000000  0.32152746  1
  C  C27  1  0.33333300  0.66666700  0.08333141  1
  C  C28  1  -0.00000000  0.00000000  0.60724065  1
  C  C29  1  -0.00000000  -0.00000000  0.03579755  1
  C  C30  1  0.66666700  0.33333300  0.22618657  1
  C  C31  1  0.00000000  -0.00000000  0.17864565  1
  C  C32  1  0.66666700  0.33333300  0.51189161  1
  C  C33  1  0.00000000  -0.00000000  0.89295228  1
  C  C34  1  0.00000000  -0.00000000  0.46436978  1
  C  C35  1  0.33333300  0.66666700  0.55946168  1
  C  C36  1  0.33333300  0.66666700  0.98804193  1
  C  C37  1  0.66666700  0.33333300  0.84518824  1
  C  C38  1  0.33333300  0.66666700  0.36905847  1
  C  C39  1  0.66666700  0.33333300  0.13089271  1
  C  C40  1  0.66666700  0.33333300  0.41661996  1
  C  C41  1  -0.00000000  0.00000000  0.75001210  1
