# generated using pymatgen
data_Co2P2O7
_symmetry_space_group_name_H-M   'P 1'
_cell_length_a   4.46799340
_cell_length_b   5.37397521
_cell_length_c   9.82990268
_cell_angle_alpha   89.99414767
_cell_angle_beta   90.01165777
_cell_angle_gamma   97.46613783
_symmetry_Int_Tables_number   1
_chemical_formula_structural   Co2P2O7
_chemical_formula_sum   'Co4 P4 O14'
_cell_volume   234.02360752
_cell_formula_units_Z   2
loop_
 _symmetry_equiv_pos_site_id
 _symmetry_equiv_pos_as_xyz
  1  'x, y, z'
loop_
 _atom_site_type_symbol
 _atom_site_label
 _atom_site_symmetry_multiplicity
 _atom_site_fract_x
 _atom_site_fract_y
 _atom_site_fract_z
 _atom_site_occupancy
  Co  Co0  1  0.38462055  0.08778489  0.15788504  1
  Co  Co1  1  0.61515408  0.41207474  0.65790700  1
  Co  Co2  1  0.61553120  0.91203826  0.84204107  1
  Co  Co3  1  0.38503168  0.58782127  0.34214248  1
  P  P4  1  0.14817495  0.34720104  0.88900441  1
  P  P5  1  0.85185711  0.65274215  0.11095635  1
  P  P6  1  0.14815734  0.84717775  0.61102218  1
  P  P7  1  0.85180379  0.15291241  0.38901057  1
  O  O8  1  -0.00000801  0.00015951  0.50006818  1
  O  O9  1  0.00014400  0.50001882  0.00000364  1
  O  O10  1  0.70574584  0.85666226  0.03854968  1
  O  O11  1  0.29416876  0.64327253  0.53857731  1
  O  O12  1  0.29411045  0.14319406  0.96138533  1
  O  O13  1  0.70554320  0.35676093  0.46143050  1
  O  O14  1  0.88955581  0.73951772  0.70298740  1
  O  O15  1  0.88965942  0.23964482  0.79696273  1
  O  O16  1  0.11027409  0.76046509  0.20301202  1
  O  O17  1  0.11038952  0.26063376  0.29706627  1
  O  O18  1  0.38199981  0.03259001  0.68253043  1
  O  O19  1  0.38202878  0.53258828  0.81753496  1
  O  O20  1  0.61800787  0.46731806  0.18242980  1
  O  O21  1  0.61804677  0.96742062  0.31749166  1
