# generated using pymatgen
data_BiAuCl6
_symmetry_space_group_name_H-M   'P 1'
_cell_length_a   7.38480057
_cell_length_b   10.07346232
_cell_length_c   13.88865943
_cell_angle_alpha   103.94886473
_cell_angle_beta   96.09733884
_cell_angle_gamma   111.01234687
_symmetry_Int_Tables_number   1
_chemical_formula_structural   BiAuCl6
_chemical_formula_sum   'Bi4 Au4 Cl24'
_cell_volume   914.63153121
_cell_formula_units_Z   4
loop_
 _symmetry_equiv_pos_site_id
 _symmetry_equiv_pos_as_xyz
  1  'x, y, z'
loop_
 _atom_site_type_symbol
 _atom_site_label
 _atom_site_symmetry_multiplicity
 _atom_site_fract_x
 _atom_site_fract_y
 _atom_site_fract_z
 _atom_site_occupancy
  Bi  Bi0  1  0.59565422  0.92881923  0.62158150  1
  Bi  Bi1  1  0.03140339  0.68469715  0.12867173  1
  Bi  Bi2  1  0.40434578  0.07118077  0.37841850  1
  Bi  Bi3  1  0.96859661  0.31530285  0.87132827  1
  Au  Au4  1  0.29661919  0.63332087  0.76703738  1
  Au  Au5  1  0.50000000  0.50000000  0.50000000  1
  Au  Au6  1  0.70338081  0.36667913  0.23296262  1
  Au  Au7  1  0.00000000  -0.00000000  -0.00000000  1
  Cl  Cl8  1  0.76935933  0.09741376  0.96915211  1
  Cl  Cl9  1  0.72578841  0.15204097  0.24989722  1
  Cl  Cl10  1  0.27421159  0.84795903  0.75010278  1
  Cl  Cl11  1  0.76020553  0.79746006  0.02511534  1
  Cl  Cl12  1  0.60863149  0.19057966  0.73712244  1
  Cl  Cl13  1  0.31610418  0.41484120  0.77991669  1
  Cl  Cl14  1  0.68389582  0.58515880  0.22008331  1
  Cl  Cl15  1  0.28745517  0.61943226  0.49924389  1
  Cl  Cl16  1  0.23979447  0.20253994  0.97488466  1
  Cl  Cl17  1  0.76158645  0.72052782  0.51723361  1
  Cl  Cl18  1  0.23064067  0.90258624  0.03084789  1
  Cl  Cl19  1  0.74330657  0.05031823  0.48625825  1
  Cl  Cl20  1  0.62044345  0.72447005  0.75177716  1
  Cl  Cl21  1  0.96480666  0.05210744  0.72871181  1
  Cl  Cl22  1  0.23841355  0.27947218  0.48276639  1
  Cl  Cl23  1  0.39136851  0.80942034  0.26287756  1
  Cl  Cl24  1  0.97038571  0.54179450  0.78229318  1
  Cl  Cl25  1  0.74712728  0.43402250  0.97655038  1
  Cl  Cl26  1  0.25287272  0.56597750  0.02344962  1
  Cl  Cl27  1  0.02961429  0.45820550  0.21770682  1
  Cl  Cl28  1  0.37955655  0.27552995  0.24822284  1
  Cl  Cl29  1  0.25669343  0.94968177  0.51374175  1
  Cl  Cl30  1  0.71254483  0.38056774  0.50075611  1
  Cl  Cl31  1  0.03519334  0.94789256  0.27128819  1
