# generated using pymatgen
data_SrV4(Bi3O10)2
_symmetry_space_group_name_H-M   'P 1'
_cell_length_a   7.13861967
_cell_length_b   7.95336196
_cell_length_c   9.29269361
_cell_angle_alpha   106.43043273
_cell_angle_beta   94.33901646
_cell_angle_gamma   112.19588246
_symmetry_Int_Tables_number   1
_chemical_formula_structural   SrV4(Bi3O10)2
_chemical_formula_sum   'Sr1 V4 Bi6 O20'
_cell_volume   458.55559936
_cell_formula_units_Z   1
loop_
 _symmetry_equiv_pos_site_id
 _symmetry_equiv_pos_as_xyz
  1  'x, y, z'
loop_
 _atom_site_type_symbol
 _atom_site_label
 _atom_site_symmetry_multiplicity
 _atom_site_fract_x
 _atom_site_fract_y
 _atom_site_fract_z
 _atom_site_occupancy
  Sr  Sr0  1  0.00000000  0.50000000  -0.00000000  1
  V  V1  1  0.05276825  0.77516325  0.75675591  1
  V  V2  1  0.65406889  0.10332170  0.73900647  1
  V  V3  1  0.94723175  0.22483675  0.24324409  1
  V  V4  1  0.34593111  0.89667830  0.26099353  1
  Bi  Bi5  1  0.65813939  0.37406011  0.48594601  1
  Bi  Bi6  1  0.43176091  0.29756571  0.08042200  1
  Bi  Bi7  1  0.34186061  0.62593989  0.51405399  1
  Bi  Bi8  1  0.19721694  0.21210648  0.66951824  1
  Bi  Bi9  1  0.80278306  0.78789352  0.33048176  1
  Bi  Bi10  1  0.56823909  0.70243429  0.91957800  1
  O  O11  1  0.83527424  0.97568362  0.16691712  1
  O  O12  1  0.53335812  0.87501996  0.37207365  1
  O  O13  1  0.76516999  0.31882009  0.24394009  1
  O  O14  1  0.37473603  0.13373917  0.31371079  1
  O  O15  1  0.94335558  0.70317273  0.56661030  1
  O  O16  1  0.05664442  0.29682727  0.43338970  1
  O  O17  1  0.35370076  0.80596822  0.07304779  1
  O  O18  1  0.64629924  0.19403178  0.92695221  1
  O  O19  1  0.89210590  0.25492029  0.72370144  1
  O  O20  1  0.54999606  0.53060238  0.36669351  1
  O  O21  1  0.10789410  0.74507971  0.27629856  1
  O  O22  1  0.45000394  0.46939762  0.63330649  1
  O  O23  1  0.23483001  0.68117991  0.75605991  1
  O  O24  1  0.67039840  0.58818170  0.10212312  1
  O  O25  1  0.46664188  0.12498004  0.62792635  1
  O  O26  1  0.32960160  0.41181830  0.89787688  1
  O  O27  1  0.86937983  0.66728193  0.85156119  1
  O  O28  1  0.62526397  0.86626083  0.68628921  1
  O  O29  1  0.16472576  0.02431638  0.83308288  1
  O  O30  1  0.13062017  0.33271807  0.14843881  1
