# generated using pymatgen
data_TaPO5
_symmetry_space_group_name_H-M   'P 1'
_cell_length_a   5.36548167
_cell_length_b   6.71622728
_cell_length_c   11.31788132
_cell_angle_alpha   89.84014878
_cell_angle_beta   90.00000000
_cell_angle_gamma   90.00000000
_symmetry_Int_Tables_number   1
_chemical_formula_structural   TaPO5
_chemical_formula_sum   'Ta4 P4 O20'
_cell_volume   407.84725669
_cell_formula_units_Z   4
loop_
 _symmetry_equiv_pos_site_id
 _symmetry_equiv_pos_as_xyz
  1  'x, y, z'
loop_
 _atom_site_type_symbol
 _atom_site_label
 _atom_site_symmetry_multiplicity
 _atom_site_fract_x
 _atom_site_fract_y
 _atom_site_fract_z
 _atom_site_occupancy
  Ta  Ta0  1  0.75000000  0.16980034  0.43808212  1
  Ta  Ta1  1  0.25000000  0.83019966  0.56191788  1
  Ta  Ta2  1  0.75000000  0.33170987  0.93658222  1
  Ta  Ta3  1  0.25000000  0.66829013  0.06341778  1
  P  P4  1  0.75000000  0.97087328  0.15486538  1
  P  P5  1  0.25000000  0.02912672  0.84513462  1
  P  P6  1  0.75000000  0.52637150  0.65358934  1
  P  P7  1  0.25000000  0.47362850  0.34641066  1
  O  O8  1  -0.00000000  0.50000000  -0.00000000  1
  O  O9  1  0.50000000  0.50000000  -0.00000000  1
  O  O10  1  0.50000000  -0.00000000  0.50000000  1
  O  O11  1  -0.00000000  -0.00000000  0.50000000  1
  O  O12  1  0.01615873  0.14937969  0.86911243  1
  O  O13  1  0.51615873  0.85062031  0.13088757  1
  O  O14  1  0.98384127  0.85062031  0.13088757  1
  O  O15  1  0.48384127  0.14937969  0.86911243  1
  O  O16  1  0.48398051  0.35604796  0.37465480  1
  O  O17  1  0.98398051  0.64395204  0.62534520  1
  O  O18  1  0.51601949  0.64395204  0.62534520  1
  O  O19  1  0.01601949  0.35604796  0.37465480  1
  O  O20  1  0.75000000  0.47556802  0.78519583  1
  O  O21  1  0.25000000  0.52443198  0.21480417  1
  O  O22  1  0.75000000  0.03436841  0.28432164  1
  O  O23  1  0.25000000  0.96563159  0.71567836  1
  O  O24  1  0.75000000  0.33176371  0.58413205  1
  O  O25  1  0.25000000  0.66823629  0.41586795  1
  O  O26  1  0.75000000  0.15916094  0.07859386  1
  O  O27  1  0.25000000  0.84083906  0.92140614  1
