# generated using pymatgen
data_Y3GaO6
_symmetry_space_group_name_H-M   'P 1'
_cell_length_a   7.09278887
_cell_length_b   7.09278887
_cell_length_c   5.40752064
_cell_angle_alpha   90.00000000
_cell_angle_beta   90.00000000
_cell_angle_gamma   102.86144665
_symmetry_Int_Tables_number   1
_chemical_formula_structural   Y3GaO6
_chemical_formula_sum   'Y6 Ga2 O12'
_cell_volume   265.21452625
_cell_formula_units_Z   2
loop_
 _symmetry_equiv_pos_site_id
 _symmetry_equiv_pos_as_xyz
  1  'x, y, z'
loop_
 _atom_site_type_symbol
 _atom_site_label
 _atom_site_symmetry_multiplicity
 _atom_site_fract_x
 _atom_site_fract_y
 _atom_site_fract_z
 _atom_site_occupancy
  Y  Y0  1  0.08792123  0.29856963  0.46796850  1
  Y  Y1  1  0.70143037  0.91207877  0.46796850  1
  Y  Y2  1  0.39765893  0.60234107  0.92151314  1
  Y  Y3  1  0.60234107  0.39765893  0.42151314  1
  Y  Y4  1  0.91207877  0.70143037  0.96796850  1
  Y  Y5  1  0.29856963  0.08792123  0.96796850  1
  Ga  Ga6  1  0.19336357  0.80663643  0.49939158  1
  Ga  Ga7  1  0.80663643  0.19336357  0.99939158  1
  O  O8  1  0.32279289  0.35627792  0.19554617  1
  O  O9  1  0.78455547  0.21544453  0.66214208  1
  O  O10  1  0.57810077  0.10605370  0.17837725  1
  O  O11  1  0.67720711  0.64372208  0.69554617  1
  O  O12  1  0.42189923  0.89394630  0.67837725  1
  O  O13  1  0.35627792  0.32279289  0.69554617  1
  O  O14  1  0.89394630  0.42189923  0.17837725  1
  O  O15  1  0.96062976  0.03937024  0.14238836  1
  O  O16  1  0.10605370  0.57810077  0.67837725  1
  O  O17  1  0.03937024  0.96062976  0.64238836  1
  O  O18  1  0.64372208  0.67720711  0.19554617  1
  O  O19  1  0.21544453  0.78455547  0.16214208  1
