# generated using pymatgen
data_TlIn5S6
_symmetry_space_group_name_H-M   'P 1'
_cell_length_a   3.94688030
_cell_length_b   8.85104747
_cell_length_c   17.74220248
_cell_angle_alpha   85.01054483
_cell_angle_beta   90.00000000
_cell_angle_gamma   90.00000000
_symmetry_Int_Tables_number   1
_chemical_formula_structural   TlIn5S6
_chemical_formula_sum   'Tl2 In10 S12'
_cell_volume   617.45792334
_cell_formula_units_Z   2
loop_
 _symmetry_equiv_pos_site_id
 _symmetry_equiv_pos_as_xyz
  1  'x, y, z'
loop_
 _atom_site_type_symbol
 _atom_site_label
 _atom_site_symmetry_multiplicity
 _atom_site_fract_x
 _atom_site_fract_y
 _atom_site_fract_z
 _atom_site_occupancy
  Tl  Tl0  1  0.75000000  0.37542394  0.21532283  1
  Tl  Tl1  1  0.25000000  0.62457606  0.78467717  1
  In  In2  1  0.75000000  0.65699715  0.54458775  1
  In  In3  1  0.25000000  0.34300285  0.45541225  1
  In  In4  1  0.75000000  0.76699721  0.31476320  1
  In  In5  1  0.25000000  0.23300279  0.68523680  1
  In  In6  1  0.75000000  0.03454692  0.38314337  1
  In  In7  1  0.25000000  0.96545308  0.61685663  1
  In  In8  1  0.75000000  0.11315677  0.88664497  1
  In  In9  1  0.25000000  0.88684323  0.11335503  1
  In  In10  1  0.75000000  0.30468423  0.00438076  1
  In  In11  1  0.25000000  0.69531577  0.99561924  1
  S  S12  1  0.75000000  0.79703228  0.66756578  1
  S  S13  1  0.25000000  0.20296772  0.33243422  1
  S  S14  1  0.75000000  0.16324693  0.50490285  1
  S  S15  1  0.25000000  0.83675307  0.49509715  1
  S  S16  1  0.75000000  0.30367434  0.76519428  1
  S  S17  1  0.25000000  0.69632566  0.23480572  1
  S  S18  1  0.75000000  0.59525317  0.92604724  1
  S  S19  1  0.25000000  0.40474683  0.07395276  1
  S  S20  1  0.75000000  0.53427323  0.41325057  1
  S  S21  1  0.25000000  0.46572677  0.58674943  1
  S  S22  1  0.75000000  0.05358546  0.13051990  1
  S  S23  1  0.25000000  0.94641454  0.86948010  1
