# generated using pymatgen
data_OsOF5
_symmetry_space_group_name_H-M   'P 1'
_cell_length_a   4.91234611
_cell_length_b   8.52879814
_cell_length_c   9.24238377
_cell_angle_alpha   90.00000000
_cell_angle_beta   90.00000000
_cell_angle_gamma   90.00000000
_symmetry_Int_Tables_number   1
_chemical_formula_structural   OsOF5
_chemical_formula_sum   'Os4 O4 F20'
_cell_volume   387.22268470
_cell_formula_units_Z   4
loop_
 _symmetry_equiv_pos_site_id
 _symmetry_equiv_pos_as_xyz
  1  'x, y, z'
loop_
 _atom_site_type_symbol
 _atom_site_label
 _atom_site_symmetry_multiplicity
 _atom_site_fract_x
 _atom_site_fract_y
 _atom_site_fract_z
 _atom_site_occupancy
  Os  Os0  1  0.94153624  0.75000000  0.11533492  1
  Os  Os1  1  0.44153624  0.25000000  0.38466508  1
  Os  Os2  1  0.05846376  0.25000000  0.88466508  1
  Os  Os3  1  0.55846376  0.75000000  0.61533492  1
  O  O4  1  0.21500110  0.75000000  0.00639235  1
  O  O5  1  0.71500110  0.25000000  0.49360765  1
  O  O6  1  0.78499890  0.25000000  0.99360765  1
  O  O7  1  0.28499890  0.75000000  0.50639235  1
  F  F8  1  0.62484548  0.75000000  0.23279496  1
  F  F9  1  0.12484548  0.25000000  0.26720504  1
  F  F10  1  0.37515452  0.25000000  0.76720504  1
  F  F11  1  0.87515452  0.75000000  0.73279496  1
  F  F12  1  0.75498364  0.90477209  0.01168202  1
  F  F13  1  0.25498364  0.09522791  0.48831798  1
  F  F14  1  0.24501636  0.40477209  0.98831798  1
  F  F15  1  0.74501636  0.59522791  0.51168202  1
  F  F16  1  0.24501636  0.09522791  0.98831798  1
  F  F17  1  0.74501636  0.90477209  0.51168202  1
  F  F18  1  0.75498364  0.59522791  0.01168202  1
  F  F19  1  0.25498364  0.40477209  0.48831798  1
  F  F20  1  0.06763378  0.90341358  0.24200694  1
  F  F21  1  0.56763378  0.09658642  0.25799306  1
  F  F22  1  0.93236622  0.40341358  0.75799306  1
  F  F23  1  0.43236622  0.59658642  0.74200694  1
  F  F24  1  0.93236622  0.09658642  0.75799306  1
  F  F25  1  0.43236622  0.90341358  0.74200694  1
  F  F26  1  0.06763378  0.59658642  0.24200694  1
  F  F27  1  0.56763378  0.40341358  0.25799306  1
