# generated using pymatgen
data_SbClO
_symmetry_space_group_name_H-M   'P 1'
_cell_length_a   10.93277796
_cell_length_b   8.01346534
_cell_length_c   9.60042498
_cell_angle_alpha   75.73547890
_cell_angle_beta   90.00000000
_cell_angle_gamma   90.00000000
_symmetry_Int_Tables_number   1
_chemical_formula_structural   SbClO
_chemical_formula_sum   'Sb12 Cl12 O12'
_cell_volume   815.15582439
_cell_formula_units_Z   12
loop_
 _symmetry_equiv_pos_site_id
 _symmetry_equiv_pos_as_xyz
  1  'x, y, z'
loop_
 _atom_site_type_symbol
 _atom_site_label
 _atom_site_symmetry_multiplicity
 _atom_site_fract_x
 _atom_site_fract_y
 _atom_site_fract_z
 _atom_site_occupancy
  Sb  Sb0  1  0.02542991  0.71755352  0.42169745  1
  Sb  Sb1  1  0.52542991  0.28244648  0.07830255  1
  Sb  Sb2  1  0.97457009  0.28244648  0.57830255  1
  Sb  Sb3  1  0.47457009  0.71755352  0.92169745  1
  Sb  Sb4  1  0.24506798  0.91452319  0.09029212  1
  Sb  Sb5  1  0.74506798  0.08547681  0.40970788  1
  Sb  Sb6  1  0.75493202  0.08547681  0.90970788  1
  Sb  Sb7  1  0.25493202  0.91452319  0.59029212  1
  Sb  Sb8  1  0.17206611  0.47685289  0.23392578  1
  Sb  Sb9  1  0.67206611  0.52314711  0.26607422  1
  Sb  Sb10  1  0.82793389  0.52314711  0.76607422  1
  Sb  Sb11  1  0.32793389  0.47685289  0.73392578  1
  Cl  Cl12  1  0.40199522  0.88458020  0.41139924  1
  Cl  Cl13  1  0.90199522  0.11541980  0.08860076  1
  Cl  Cl14  1  0.59800478  0.11541980  0.58860076  1
  Cl  Cl15  1  0.09800478  0.88458020  0.91139924  1
  Cl  Cl16  1  0.35720652  0.40437189  0.37167506  1
  Cl  Cl17  1  0.85720652  0.59562811  0.12832494  1
  Cl  Cl18  1  0.64279348  0.59562811  0.62832494  1
  Cl  Cl19  1  0.14279348  0.40437189  0.87167506  1
  Cl  Cl20  1  0.10909344  0.10587362  0.34783879  1
  Cl  Cl21  1  0.60909344  0.89412638  0.15216121  1
  Cl  Cl22  1  0.89090656  0.89412638  0.65216121  1
  Cl  Cl23  1  0.39090656  0.10587362  0.84783879  1
  O  O24  1  0.06893384  0.47099808  0.40852268  1
  O  O25  1  0.56893384  0.52900192  0.09147732  1
  O  O26  1  0.93106616  0.52900192  0.59147732  1
  O  O27  1  0.43106616  0.47099808  0.90852268  1
  O  O28  1  0.16039623  0.72718305  0.24249302  1
  O  O29  1  0.66039623  0.27281695  0.25750698  1
  O  O30  1  0.83960377  0.27281695  0.75750698  1
  O  O31  1  0.33960377  0.72718305  0.74249302  1
  O  O32  1  0.33981396  0.71700944  0.05759146  1
  O  O33  1  0.83981396  0.28299056  0.44240854  1
  O  O34  1  0.66018604  0.28299056  0.94240854  1
  O  O35  1  0.16018604  0.71700944  0.55759146  1
