# generated using pymatgen
data_Gd2SiO5
_symmetry_space_group_name_H-M   'P 1'
_cell_length_a   7.04651892
_cell_length_b   6.74483205
_cell_length_c   9.13918973
_cell_angle_alpha   72.55090280
_cell_angle_beta   90.00000000
_cell_angle_gamma   90.00000000
_symmetry_Int_Tables_number   1
_chemical_formula_structural   Gd2SiO5
_chemical_formula_sum   'Gd8 Si4 O20'
_cell_volume   414.37583662
_cell_formula_units_Z   4
loop_
 _symmetry_equiv_pos_site_id
 _symmetry_equiv_pos_as_xyz
  1  'x, y, z'
loop_
 _atom_site_type_symbol
 _atom_site_label
 _atom_site_symmetry_multiplicity
 _atom_site_fract_x
 _atom_site_fract_y
 _atom_site_fract_z
 _atom_site_occupancy
  Gd  Gd0  1  0.85352974  0.41583274  0.88626213  1
  Gd  Gd1  1  0.35352974  0.08416726  0.11373787  1
  Gd  Gd2  1  0.14647026  0.58416726  0.11373787  1
  Gd  Gd3  1  0.64647026  0.91583274  0.88626213  1
  Gd  Gd4  1  0.37566706  0.23416764  0.47415815  1
  Gd  Gd5  1  0.87566706  0.26583236  0.52584185  1
  Gd  Gd6  1  0.62433294  0.76583236  0.52584185  1
  Gd  Gd7  1  0.12433294  0.73416764  0.47415815  1
  Si  Si8  1  0.41285465  0.45982594  0.79770888  1
  Si  Si9  1  0.91285465  0.04017406  0.20229112  1
  Si  Si10  1  0.58714535  0.54017406  0.20229112  1
  Si  Si11  1  0.08714535  0.95982594  0.79770888  1
  O  O12  1  0.56892712  0.64288199  0.79531683  1
  O  O13  1  0.06892712  0.85711801  0.20468317  1
  O  O14  1  0.43107288  0.35711801  0.20468317  1
  O  O15  1  0.93107288  0.14288199  0.79531683  1
  O  O16  1  0.54234784  0.25329858  0.86544084  1
  O  O17  1  0.04234784  0.24670142  0.13455916  1
  O  O18  1  0.45765216  0.74670142  0.13455916  1
  O  O19  1  0.95765216  0.75329858  0.86544084  1
  O  O20  1  0.36217336  0.50749994  0.61501104  1
  O  O21  1  0.86217336  0.99250006  0.38498896  1
  O  O22  1  0.63782664  0.49250006  0.38498896  1
  O  O23  1  0.13782664  0.00749994  0.61501104  1
  O  O24  1  0.23120192  0.44780250  0.90474480  1
  O  O25  1  0.73120192  0.05219750  0.09525520  1
  O  O26  1  0.76879808  0.55219750  0.09525520  1
  O  O27  1  0.26879808  0.94780250  0.90474480  1
  O  O28  1  0.62022508  0.05147428  0.61683164  1
  O  O29  1  0.12022508  0.44852572  0.38316836  1
  O  O30  1  0.37977492  0.94852572  0.38316836  1
  O  O31  1  0.87977492  0.55147428  0.61683164  1
