# generated using pymatgen
data_K2Al2B2O7
_symmetry_space_group_name_H-M   'P 1'
_cell_length_a   8.56723727
_cell_length_b   8.56723727
_cell_length_c   8.42278309
_cell_angle_alpha   90.01030180
_cell_angle_beta   90.01030180
_cell_angle_gamma   60.04637977
_symmetry_Int_Tables_number   1
_chemical_formula_structural   K2Al2B2O7
_chemical_formula_sum   'K6 Al6 B6 O21'
_cell_volume   535.63704820
_cell_formula_units_Z   3
loop_
 _symmetry_equiv_pos_site_id
 _symmetry_equiv_pos_as_xyz
  1  'x, y, z'
loop_
 _atom_site_type_symbol
 _atom_site_label
 _atom_site_symmetry_multiplicity
 _atom_site_fract_x
 _atom_site_fract_y
 _atom_site_fract_z
 _atom_site_occupancy
  K  K0  1  0.00154503  0.64359545  0.49967740  1
  K  K1  1  0.35640455  0.99845497  0.50032260  1
  K  K2  1  0.64577839  0.35422161  0.50000000  1
  K  K3  1  0.68787848  0.31212152  -0.00000000  1
  K  K4  1  0.00301153  0.68342046  0.99813555  1
  K  K5  1  0.31657954  0.99698847  0.00186445  1
  Al  Al6  1  0.00181020  0.99872608  0.29679127  1
  Al  Al7  1  0.00127392  0.99818980  0.70320873  1
  Al  Al8  1  0.33473863  0.33217131  0.18583462  1
  Al  Al9  1  0.66782869  0.66526137  0.81416538  1
  Al  Al10  1  0.33436474  0.33117271  0.77763700  1
  Al  Al11  1  0.66882729  0.66563526  0.22236300  1
  B  B12  1  0.33429481  0.66375738  0.74430967  1
  B  B13  1  0.00130612  0.33272187  0.74169990  1
  B  B14  1  0.66567621  -0.00033114  0.74220689  1
  B  B15  1  0.00033114  0.33432379  0.25779311  1
  B  B16  1  0.66727813  0.99869388  0.25830010  1
  B  B17  1  0.33624262  0.66570519  0.25569033  1
  O  O18  1  0.33548718  0.32978772  0.98172859  1
  O  O19  1  0.67021228  0.66451282  0.01827141  1
  O  O20  1  0.27130790  0.54819614  0.70871085  1
  O  O21  1  0.17988637  0.26971283  0.70686641  1
  O  O22  1  0.55019004  0.17792608  0.70617735  1
  O  O23  1  0.82207392  0.44980996  0.29382265  1
  O  O24  1  0.73028717  0.82011363  0.29313359  1
  O  O25  1  0.45180386  0.72869210  0.29128915  1
  O  O26  1  0.21527659  0.84177690  0.77752821  1
  O  O27  1  0.94168677  0.21394724  0.77412006  1
  O  O28  1  0.84378719  0.94062358  0.77504111  1
  O  O29  1  0.05937642  0.15621281  0.22495889  1
  O  O30  1  0.78605276  0.05831323  0.22587994  1
  O  O31  1  0.15822310  0.78472341  0.22247179  1
  O  O32  1  0.51656366  0.59903621  0.74590612  1
  O  O33  1  0.88393223  0.51499999  0.74303594  1
  O  O34  1  0.60067107  0.88225828  0.74440240  1
  O  O35  1  0.11774172  0.39932893  0.25559760  1
  O  O36  1  0.48500001  0.11606777  0.25696406  1
  O  O37  1  0.40096379  0.48343634  0.25409388  1
  O  O38  1  0.00410396  0.99589604  0.50000000  1
