# generated using pymatgen
data_Sr3(SnP2)2
_symmetry_space_group_name_H-M   'P 1'
_cell_length_a   14.14933556
_cell_length_b   14.14933556
_cell_length_c   18.83058815
_cell_angle_alpha   90.00000000
_cell_angle_beta   90.00000000
_cell_angle_gamma   126.78726785
_symmetry_Int_Tables_number   1
_chemical_formula_structural   Sr3(SnP2)2
_chemical_formula_sum   'Sr36 Sn24 P48'
_cell_volume   3019.22168022
_cell_formula_units_Z   12
loop_
 _symmetry_equiv_pos_site_id
 _symmetry_equiv_pos_as_xyz
  1  'x, y, z'
loop_
 _atom_site_type_symbol
 _atom_site_label
 _atom_site_symmetry_multiplicity
 _atom_site_fract_x
 _atom_site_fract_y
 _atom_site_fract_z
 _atom_site_occupancy
  Sr  Sr0  1  0.29296991  0.12710708  0.63175775  1
  Sr  Sr1  1  0.93588516  0.93588516  0.72896476  1
  Sr  Sr2  1  0.28176835  0.61925411  0.75938911  1
  Sr  Sr3  1  0.78176835  0.11925411  0.74061089  1
  Sr  Sr4  1  0.45436692  0.96578113  0.87263699  1
  Sr  Sr5  1  0.71823165  0.38074589  0.24061089  1
  Sr  Sr6  1  0.62710708  0.79296991  0.86824225  1
  Sr  Sr7  1  0.70703009  0.87289292  0.36824225  1
  Sr  Sr8  1  0.38074589  0.71823165  0.24061089  1
  Sr  Sr9  1  0.06411484  0.06411484  0.27103524  1
  Sr  Sr10  1  0.43588516  0.43588516  0.77103524  1
  Sr  Sr11  1  0.88074589  0.21823165  0.25938911  1
  Sr  Sr12  1  0.54563308  0.03421887  0.12736301  1
  Sr  Sr13  1  0.12710708  0.29296991  0.63175775  1
  Sr  Sr14  1  0.20703009  0.37289292  0.13175775  1
  Sr  Sr15  1  -0.00000000  -0.00000000  0.00000000  1
  Sr  Sr16  1  0.95436692  0.46578113  0.62736301  1
  Sr  Sr17  1  0.17539041  0.82460959  0.50000000  1
  Sr  Sr18  1  0.03421887  0.54563308  0.12736301  1
  Sr  Sr19  1  0.11925411  0.78176835  0.74061089  1
  Sr  Sr20  1  0.61925411  0.28176835  0.75938911  1
  Sr  Sr21  1  0.79296991  0.62710708  0.86824225  1
  Sr  Sr22  1  0.53421887  0.04563308  0.37263699  1
  Sr  Sr23  1  0.82460959  0.17539041  0.50000000  1
  Sr  Sr24  1  0.04563308  0.53421887  0.37263699  1
  Sr  Sr25  1  0.37289292  0.20703009  0.13175775  1
  Sr  Sr26  1  0.96578113  0.45436692  0.87263699  1
  Sr  Sr27  1  0.56411484  0.56411484  0.22896476  1
  Sr  Sr28  1  0.50000000  0.50000000  0.00000000  1
  Sr  Sr29  1  0.50000000  0.50000000  0.50000000  1
  Sr  Sr30  1  0.87289292  0.70703009  0.36824225  1
  Sr  Sr31  1  0.67539041  0.32460959  0.00000000  1
  Sr  Sr32  1  0.46578113  0.95436692  0.62736301  1
  Sr  Sr33  1  0.32460959  0.67539041  0.00000000  1
  Sr  Sr34  1  0.21823165  0.88074589  0.25938911  1
  Sr  Sr35  1  -0.00000000  -0.00000000  0.50000000  1
  Sn  Sn36  1  0.93565332  0.76520540  0.17814846  1
  Sn  Sn37  1  0.23479460  0.06434668  0.82185154  1
  Sn  Sn38  1  0.79212150  0.62777129  0.06490535  1
  Sn  Sn39  1  0.22755137  0.90334723  0.06058915  1
  Sn  Sn40  1  0.20787850  0.37222871  0.93509465  1
  Sn  Sn41  1  0.12777129  0.29212150  0.43509465  1
  Sn  Sn42  1  0.59665277  0.27244863  0.56058915  1
  Sn  Sn43  1  0.43565332  0.26520540  0.32185154  1
  Sn  Sn44  1  0.26520540  0.43565332  0.32185154  1
  Sn  Sn45  1  0.56434668  0.73479460  0.67814846  1
  Sn  Sn46  1  0.06434668  0.23479460  0.82185154  1
  Sn  Sn47  1  0.70787850  0.87222871  0.56490535  1
  Sn  Sn48  1  0.37222871  0.20787850  0.93509465  1
  Sn  Sn49  1  0.62777129  0.79212150  0.06490535  1
  Sn  Sn50  1  0.09665277  0.77244863  0.93941085  1
  Sn  Sn51  1  0.29212150  0.12777129  0.43509465  1
  Sn  Sn52  1  0.90334723  0.22755137  0.06058915  1
  Sn  Sn53  1  0.73479460  0.56434668  0.67814846  1
  Sn  Sn54  1  0.87222871  0.70787850  0.56490535  1
  Sn  Sn55  1  0.77244863  0.09665277  0.93941085  1
  Sn  Sn56  1  0.40334723  0.72755137  0.43941085  1
  Sn  Sn57  1  0.76520540  0.93565332  0.17814846  1
  Sn  Sn58  1  0.27244863  0.59665277  0.56058915  1
  Sn  Sn59  1  0.72755137  0.40334723  0.43941085  1
  P  P60  1  0.70472128  0.21379761  0.62634813  1
  P  P61  1  0.46327657  0.61912273  0.36455136  1
  P  P62  1  0.71379761  0.20472128  0.87365187  1
  P  P63  1  0.79527872  0.28620239  0.12634813  1
  P  P64  1  0.53672343  0.38087727  0.63544864  1
  P  P65  1  0.05721910  0.88324560  0.61539118  1
  P  P66  1  0.78620239  0.29527872  0.37365187  1
  P  P67  1  0.11675440  0.94278090  0.38460882  1
  P  P68  1  0.61675440  0.44278090  0.11539118  1
  P  P69  1  0.91826646  0.58860277  0.48978409  1
  P  P70  1  0.74899887  0.74899887  0.98825222  1
  P  P71  1  0.20472128  0.71379761  0.87365187  1
  P  P72  1  0.81584088  0.81584088  0.24973925  1
  P  P73  1  0.08173354  0.41139723  0.51021591  1
  P  P74  1  0.13691969  0.46464134  0.24894261  1
  P  P75  1  0.91139723  0.58173354  0.98978409  1
  P  P76  1  0.03535866  0.36308031  0.74894261  1
  P  P77  1  0.94278090  0.11675440  0.38460882  1
  P  P78  1  0.36308031  0.03535866  0.74894261  1
  P  P79  1  0.21379761  0.70472128  0.62634813  1
  P  P80  1  0.03672343  0.88087727  0.86455136  1
  P  P81  1  0.18415912  0.18415912  0.75026075  1
  P  P82  1  0.24899887  0.24899887  0.51174778  1
  P  P83  1  0.63691969  0.96464134  0.25105739  1
  P  P84  1  0.58173354  0.91139723  0.98978409  1
  P  P85  1  0.38087727  0.53672343  0.63544864  1
  P  P86  1  0.28620239  0.79527872  0.12634813  1
  P  P87  1  0.68415912  0.68415912  0.74973925  1
  P  P88  1  0.31584088  0.31584088  0.25026075  1
  P  P89  1  0.96464134  0.63691969  0.25105739  1
  P  P90  1  0.25100113  0.25100113  0.01174778  1
  P  P91  1  0.86308031  0.53535866  0.75105739  1
  P  P92  1  0.53535866  0.86308031  0.75105739  1
  P  P93  1  0.75100113  0.75100113  0.48825222  1
  P  P94  1  0.44278090  0.61675440  0.11539118  1
  P  P95  1  0.88324560  0.05721910  0.61539118  1
  P  P96  1  0.46464134  0.13691969  0.24894261  1
  P  P97  1  0.11912273  0.96327657  0.13544864  1
  P  P98  1  0.58860277  0.91826646  0.48978409  1
  P  P99  1  0.61912273  0.46327657  0.36455136  1
  P  P100  1  0.96327657  0.11912273  0.13544864  1
  P  P101  1  0.38324560  0.55721910  0.88460882  1
  P  P102  1  0.29527872  0.78620239  0.37365187  1
  P  P103  1  0.88087727  0.03672343  0.86455136  1
  P  P104  1  0.41826646  0.08860277  0.01021591  1
  P  P105  1  0.55721910  0.38324560  0.88460882  1
  P  P106  1  0.41139723  0.08173354  0.51021591  1
  P  P107  1  0.08860277  0.41826646  0.01021591  1
