# generated using pymatgen
data_YMn2O5
_symmetry_space_group_name_H-M   'P 1'
_cell_length_a   5.68214146
_cell_length_b   7.24722054
_cell_length_c   8.47873238
_cell_angle_alpha   90.00011272
_cell_angle_beta   89.99999020
_cell_angle_gamma   89.99999761
_symmetry_Int_Tables_number   1
_chemical_formula_structural   YMn2O5
_chemical_formula_sum   'Y4 Mn8 O20'
_cell_volume   349.15192965
_cell_formula_units_Z   4
loop_
 _symmetry_equiv_pos_site_id
 _symmetry_equiv_pos_as_xyz
  1  'x, y, z'
loop_
 _atom_site_type_symbol
 _atom_site_label
 _atom_site_symmetry_multiplicity
 _atom_site_fract_x
 _atom_site_fract_y
 _atom_site_fract_z
 _atom_site_occupancy
  Y  Y0  1  -0.00000014  0.63755056  0.32866671  1
  Y  Y1  1  0.00000003  0.36244928  0.67133428  1
  Y  Y2  1  -0.00000018  0.13755335  0.17132920  1
  Y  Y3  1  0.00000014  0.86244588  0.82866976  1
  Mn  Mn4  1  0.49999996  0.91171975  0.15063425  1
  Mn  Mn5  1  0.49999996  0.08828397  0.84936654  1
  Mn  Mn6  1  0.49999998  0.41171706  0.34936366  1
  Mn  Mn7  1  0.50000013  0.58828642  0.65063566  1
  Mn  Mn8  1  0.25438991  0.49999998  0.00000007  1
  Mn  Mn9  1  0.74561360  0.00000000  0.49999986  1
  Mn  Mn10  1  0.74561030  0.50000021  -0.00000009  1
  Mn  Mn11  1  0.25438638  -0.00000000  0.49999988  1
  O  O12  1  0.27182851  0.49999940  0.50000101  1
  O  O13  1  0.72817247  -0.00000057  -0.00000107  1
  O  O14  1  0.72817137  0.49999935  0.50000084  1
  O  O15  1  0.27182736  -0.00000052  -0.00000107  1
  O  O16  1  0.00000001  0.66314793  0.05596164  1
  O  O17  1  -0.00000010  0.33685163  0.94403825  1
  O  O18  1  -0.00000008  0.16315043  0.44404060  1
  O  O19  1  0.00000012  0.83684926  0.55595949  1
  O  O20  1  0.50000000  0.65320077  0.06646558  1
  O  O21  1  0.50000015  0.34679826  0.93353569  1
  O  O22  1  0.50000000  0.15320048  0.43353872  1
  O  O23  1  0.49999999  0.84679868  0.56645990  1
  O  O24  1  0.24397555  0.89450526  0.29363597  1
  O  O25  1  0.24397725  0.10549448  0.70636381  1
  O  O26  1  0.75602097  0.39450178  0.20636292  1
  O  O27  1  0.75601970  0.60549797  0.79363693  1
  O  O28  1  0.75602277  0.10549437  0.70636382  1
  O  O29  1  0.75602435  0.89450523  0.29363599  1
  O  O30  1  0.24398071  0.60549774  0.79363699  1
  O  O31  1  0.24397882  0.39450161  0.20636320  1
