# generated using pymatgen
data_YInO3
_symmetry_space_group_name_H-M   'P 1'
_cell_length_a   6.29052238
_cell_length_b   6.29052234
_cell_length_c   12.28582555
_cell_angle_alpha   90.00000511
_cell_angle_beta   89.99999218
_cell_angle_gamma   120.00012759
_symmetry_Int_Tables_number   1
_chemical_formula_structural   YInO3
_chemical_formula_sum   'Y6 In6 O18'
_cell_volume   421.02495557
_cell_formula_units_Z   6
loop_
 _symmetry_equiv_pos_site_id
 _symmetry_equiv_pos_as_xyz
  1  'x, y, z'
loop_
 _atom_site_type_symbol
 _atom_site_label
 _atom_site_symmetry_multiplicity
 _atom_site_fract_x
 _atom_site_fract_y
 _atom_site_fract_z
 _atom_site_occupancy
  Y  Y0  1  -0.00000033  -0.00000004  0.27113548  1
  Y  Y1  1  -0.00000002  0.00000029  0.77113527  1
  Y  Y2  1  0.33333338  0.66666645  0.23585119  1
  Y  Y3  1  0.66666667  0.33333339  0.73585102  1
  Y  Y4  1  0.33333337  0.66666672  0.73585092  1
  Y  Y5  1  0.66666668  0.33333348  0.23585112  1
  In  In6  1  0.33337182  0.00000035  0.00118912  1
  In  In7  1  0.33337116  0.33337115  0.50118923  1
  In  In8  1  -0.00000041  0.66662816  0.50118914  1
  In  In9  1  0.00000041  0.33337192  0.00118924  1
  In  In10  1  0.66662882  0.66662880  0.00118900  1
  In  In11  1  0.66662813  -0.00000051  0.50118920  1
  O  O12  1  0.30593189  -0.00000011  0.17254027  1
  O  O13  1  0.30593167  0.30593173  0.67254014  1
  O  O14  1  0.00000005  0.69406835  0.67254023  1
  O  O15  1  0.00000000  0.30593169  0.17254023  1
  O  O16  1  0.69406805  0.69406791  0.17254015  1
  O  O17  1  0.69406848  0.00000024  0.67254008  1
  O  O18  1  0.63785185  -0.00000020  0.33164169  1
  O  O19  1  0.63785133  0.63785147  0.83164175  1
  O  O20  1  0.00000014  0.36214850  0.83164175  1
  O  O21  1  -0.00000004  0.63785158  0.33164177  1
  O  O22  1  0.36214870  0.36214877  0.33164173  1
  O  O23  1  0.36214831  0.00000015  0.83164187  1
  O  O24  1  0.00000008  0.00000013  0.46917525  1
  O  O25  1  -0.00000017  -0.00000037  0.96917517  1
  O  O26  1  0.33333325  0.66666655  0.02953635  1
  O  O27  1  0.66666680  0.33333333  0.52953619  1
  O  O28  1  0.33333354  0.66666694  0.52953615  1
  O  O29  1  0.66666640  0.33333318  0.02953631  1
