# generated using pymatgen
data_Ca2Zr(SiO3)4
_symmetry_space_group_name_H-M   'P 1'
_cell_length_a   13.70737831
_cell_length_b   5.32767728
_cell_length_c   7.42584249
_cell_angle_alpha   71.06252750
_cell_angle_beta   90.00000000
_cell_angle_gamma   90.00000000
_symmetry_Int_Tables_number   1
_chemical_formula_structural   Ca2Zr(SiO3)4
_chemical_formula_sum   'Ca4 Zr2 Si8 O24'
_cell_volume   512.94525041
_cell_formula_units_Z   2
loop_
 _symmetry_equiv_pos_site_id
 _symmetry_equiv_pos_as_xyz
  1  'x, y, z'
loop_
 _atom_site_type_symbol
 _atom_site_label
 _atom_site_symmetry_multiplicity
 _atom_site_fract_x
 _atom_site_fract_y
 _atom_site_fract_z
 _atom_site_occupancy
  Ca  Ca0  1  -0.00000000  -0.00000000  0.50000000  1
  Ca  Ca1  1  0.25000000  0.16539514  0.18565339  1
  Ca  Ca2  1  0.75000000  0.83460486  0.81434661  1
  Ca  Ca3  1  0.50000000  -0.00000000  0.50000000  1
  Zr  Zr4  1  0.50000000  -0.00000000  0.00000000  1
  Zr  Zr5  1  -0.00000000  -0.00000000  0.00000000  1
  Si  Si6  1  0.63985019  0.43225567  0.61561300  1
  Si  Si7  1  0.86232034  0.43340263  0.18143594  1
  Si  Si8  1  0.86014981  0.43225567  0.61561300  1
  Si  Si9  1  0.13767966  0.56659737  0.81856406  1
  Si  Si10  1  0.13985019  0.56774433  0.38438700  1
  Si  Si11  1  0.63767966  0.43340263  0.18143594  1
  Si  Si12  1  0.36232034  0.56659737  0.81856406  1
  Si  Si13  1  0.36014981  0.56774433  0.38438700  1
  O  O14  1  0.06700724  0.79261098  0.84276923  1
  O  O15  1  0.86717219  0.72650143  0.62085517  1
  O  O16  1  0.88114420  0.73343021  0.04524539  1
  O  O17  1  0.12458294  0.59610323  0.59476869  1
  O  O18  1  0.93553638  0.21393581  0.74314564  1
  O  O19  1  0.75000000  0.30717720  0.68867431  1
  O  O20  1  0.87541706  0.40389677  0.40523131  1
  O  O21  1  0.25000000  0.69282280  0.31132569  1
  O  O22  1  0.36717219  0.27349857  0.37914483  1
  O  O23  1  0.75000000  0.36965335  0.13534683  1
  O  O24  1  0.25000000  0.63034665  0.86465317  1
  O  O25  1  0.62458294  0.40389677  0.40523131  1
  O  O26  1  0.11885580  0.26656979  0.95475461  1
  O  O27  1  0.43299276  0.79261098  0.84276923  1
  O  O28  1  0.06446362  0.78606419  0.25685436  1
  O  O29  1  0.93299276  0.20738902  0.15723077  1
  O  O30  1  0.56446362  0.21393581  0.74314564  1
  O  O31  1  0.61885580  0.73343021  0.04524539  1
  O  O32  1  0.63282781  0.72650143  0.62085517  1
  O  O33  1  0.37541706  0.59610323  0.59476869  1
  O  O34  1  0.13282781  0.27349857  0.37914483  1
  O  O35  1  0.43553638  0.78606419  0.25685436  1
  O  O36  1  0.38114420  0.26656979  0.95475461  1
  O  O37  1  0.56700724  0.20738902  0.15723077  1
