# generated using pymatgen
data_ZnS
_symmetry_space_group_name_H-M   'P 1'
_cell_length_a   3.80684799
_cell_length_b   3.80684889
_cell_length_c   49.83885373
_cell_angle_alpha   90.00000000
_cell_angle_beta   90.00000000
_cell_angle_gamma   119.99999209
_symmetry_Int_Tables_number   1
_chemical_formula_structural   ZnS
_chemical_formula_sum   'Zn16 S16'
_cell_volume   625.50370315
_cell_formula_units_Z   16
loop_
 _symmetry_equiv_pos_site_id
 _symmetry_equiv_pos_as_xyz
  1  'x, y, z'
loop_
 _atom_site_type_symbol
 _atom_site_label
 _atom_site_symmetry_multiplicity
 _atom_site_fract_x
 _atom_site_fract_y
 _atom_site_fract_z
 _atom_site_occupancy
  Zn  Zn0  1  0.33333300  0.66666700  0.62500017  1
  Zn  Zn1  1  0.66666700  0.33333300  0.12503552  1
  Zn  Zn2  1  0.00000000  0.00000000  0.43749594  1
  Zn  Zn3  1  0.33333300  0.66666700  0.06255757  1
  Zn  Zn4  1  0.66666700  0.33333300  0.50001909  1
  Zn  Zn5  1  0.33333300  0.66666700  0.24999887  1
  Zn  Zn6  1  0.66666700  0.33333300  0.31252708  1
  Zn  Zn7  1  0.00000000  0.00000000  0.81251624  1
  Zn  Zn8  1  0.66666700  0.33333300  0.68752518  1
  Zn  Zn9  1  -0.00000000  0.00000000  0.18751706  1
  Zn  Zn10  1  0.33333300  0.66666700  0.37506324  1
  Zn  Zn11  1  0.33333300  0.66666700  0.93750349  1
  Zn  Zn12  1  -0.00000000  0.00000000  0.56255175  1
  Zn  Zn13  1  0.66666700  0.33333300  0.87501747  1
  Zn  Zn14  1  0.33333300  0.66666700  0.75006167  1
  Zn  Zn15  1  -0.00000000  0.00000000  0.00001247  1
  S  S16  1  0.00000000  0.00000000  0.23433132  1
  S  S17  1  0.33333300  0.66666700  0.29679142  1
  S  S18  1  0.66666700  0.33333300  0.35939574  1
  S  S19  1  0.66666700  0.33333300  0.54689847  1
  S  S20  1  0.33333300  0.66666700  0.10935889  1
  S  S21  1  0.66666700  0.33333300  0.73439848  1
  S  S22  1  0.33333300  0.66666700  0.98429202  1
  S  S23  1  0.66666700  0.33333300  0.92184086  1
  S  S24  1  0.00000000  0.00000000  0.85934102  1
  S  S25  1  0.33333300  0.66666700  0.67179428  1
  S  S26  1  -0.00000000  0.00000000  0.48428737  1
  S  S27  1  0.33333300  0.66666700  0.79685547  1
  S  S28  1  0.00000000  0.00000000  0.60934475  1
  S  S29  1  0.00000000  0.00000000  0.04689075  1
  S  S30  1  0.66666700  0.33333300  0.17185096  1
  S  S31  1  0.33333300  0.66666700  0.42184939  1
