# generated using pymatgen
data_NbSeCl3
_symmetry_space_group_name_H-M   'P 1'
_cell_length_a   6.96285885
_cell_length_b   6.46676582
_cell_length_c   12.09106376
_cell_angle_alpha   81.15765156
_cell_angle_beta   90.00000000
_cell_angle_gamma   90.00000000
_symmetry_Int_Tables_number   1
_chemical_formula_structural   NbSeCl3
_chemical_formula_sum   'Nb4 Se4 Cl12'
_cell_volume   537.95598706
_cell_formula_units_Z   4
loop_
 _symmetry_equiv_pos_site_id
 _symmetry_equiv_pos_as_xyz
  1  'x, y, z'
loop_
 _atom_site_type_symbol
 _atom_site_label
 _atom_site_symmetry_multiplicity
 _atom_site_fract_x
 _atom_site_fract_y
 _atom_site_fract_z
 _atom_site_occupancy
  Nb  Nb0  1  0.63680799  0.92719587  0.14688865  1
  Nb  Nb1  1  0.36319201  0.92719587  0.64688865  1
  Nb  Nb2  1  0.63680799  0.07280413  0.35311135  1
  Nb  Nb3  1  0.36319201  0.07280413  0.85311135  1
  Se  Se4  1  0.91150983  0.83407316  0.30144449  1
  Se  Se5  1  0.91150983  0.16592684  0.19855551  1
  Se  Se6  1  0.08849017  0.83407316  0.80144449  1
  Se  Se7  1  0.08849017  0.16592684  0.69855551  1
  Cl  Cl8  1  0.77412524  0.35863592  0.42669134  1
  Cl  Cl9  1  0.22587476  0.35863592  0.92669134  1
  Cl  Cl10  1  0.55607041  0.75721313  0.80371239  1
  Cl  Cl11  1  0.32494396  0.85002181  0.04200202  1
  Cl  Cl12  1  0.44392959  0.75721313  0.30371239  1
  Cl  Cl13  1  0.22587476  0.64136408  0.57330866  1
  Cl  Cl14  1  0.32494396  0.14997819  0.45799798  1
  Cl  Cl15  1  0.55607041  0.24278687  0.69628761  1
  Cl  Cl16  1  0.67505604  0.14997819  0.95799798  1
  Cl  Cl17  1  0.44392959  0.24278687  0.19628761  1
  Cl  Cl18  1  0.77412524  0.64136408  0.07330866  1
  Cl  Cl19  1  0.67505604  0.85002181  0.54200202  1
