# generated using pymatgen
data_K4Fe2O5
_symmetry_space_group_name_H-M   'P 1'
_cell_length_a   5.93909436
_cell_length_b   6.38213152
_cell_length_c   10.01463449
_cell_angle_alpha   75.87648095
_cell_angle_beta   90.00000000
_cell_angle_gamma   90.00000000
_symmetry_Int_Tables_number   1
_chemical_formula_structural   K4Fe2O5
_chemical_formula_sum   'K8 Fe4 O10'
_cell_volume   368.12108133
_cell_formula_units_Z   2
loop_
 _symmetry_equiv_pos_site_id
 _symmetry_equiv_pos_as_xyz
  1  'x, y, z'
loop_
 _atom_site_type_symbol
 _atom_site_label
 _atom_site_symmetry_multiplicity
 _atom_site_fract_x
 _atom_site_fract_y
 _atom_site_fract_z
 _atom_site_occupancy
  K  K0  1  0.87758472  0.73101393  0.51717705  1
  K  K1  1  0.09105473  0.90575085  0.83642972  1
  K  K2  1  0.12241528  0.26898607  0.48282295  1
  K  K3  1  0.40894527  0.90575085  0.33642972  1
  K  K4  1  0.90894527  0.09424915  0.16357028  1
  K  K5  1  0.37758472  0.26898607  0.98282295  1
  K  K6  1  0.62241528  0.73101393  0.01717705  1
  K  K7  1  0.59105473  0.09424915  0.66357028  1
  Fe  Fe8  1  0.11532087  0.59227758  0.15561819  1
  Fe  Fe9  1  0.38467913  0.59227758  0.65561819  1
  Fe  Fe10  1  0.61532087  0.40772242  0.34438181  1
  Fe  Fe11  1  0.88467913  0.40772242  0.84438181  1
  O  O12  1  0.14541416  0.39171199  0.73017343  1
  O  O13  1  0.85458584  0.60828801  0.26982657  1
  O  O14  1  0.26423385  0.86211521  0.59744340  1
  O  O15  1  0.35458584  0.39171199  0.23017343  1
  O  O16  1  0.76423385  0.13788479  0.90255660  1
  O  O17  1  0.50000000  0.50000000  0.50000000  1
  O  O18  1  0.73576615  0.13788479  0.40255660  1
  O  O19  1  0.64541416  0.60828801  0.76982657  1
  O  O20  1  0.00000000  0.50000000  -0.00000000  1
  O  O21  1  0.23576615  0.86211521  0.09744340  1
