# generated using pymatgen
data_Nd4Te3N2
_symmetry_space_group_name_H-M   'P 1'
_cell_length_a   7.41384377
_cell_length_b   11.41294275
_cell_length_c   11.79579670
_cell_angle_alpha   90.00000000
_cell_angle_beta   90.00000000
_cell_angle_gamma   90.00000000
_symmetry_Int_Tables_number   1
_chemical_formula_structural   Nd4Te3N2
_chemical_formula_sum   'Nd16 Te12 N8'
_cell_volume   998.08688207
_cell_formula_units_Z   4
loop_
 _symmetry_equiv_pos_site_id
 _symmetry_equiv_pos_as_xyz
  1  'x, y, z'
loop_
 _atom_site_type_symbol
 _atom_site_label
 _atom_site_symmetry_multiplicity
 _atom_site_fract_x
 _atom_site_fract_y
 _atom_site_fract_z
 _atom_site_occupancy
  Nd  Nd0  1  0.14610411  0.39054664  0.95147803  1
  Nd  Nd1  1  0.40808881  0.15750207  0.25000000  1
  Nd  Nd2  1  0.35389589  0.89054664  0.04852197  1
  Nd  Nd3  1  0.73142477  0.46800987  0.75000000  1
  Nd  Nd4  1  0.85389589  0.60945336  0.45147803  1
  Nd  Nd5  1  0.76857523  0.96800987  0.25000000  1
  Nd  Nd6  1  0.26857523  0.53199013  0.25000000  1
  Nd  Nd7  1  0.14610411  0.39054664  0.54852197  1
  Nd  Nd8  1  0.35389589  0.89054664  0.45147803  1
  Nd  Nd9  1  0.09191119  0.65750207  0.75000000  1
  Nd  Nd10  1  0.90808881  0.34249793  0.25000000  1
  Nd  Nd11  1  0.23142477  0.03199013  0.75000000  1
  Nd  Nd12  1  0.64610411  0.10945336  0.54852197  1
  Nd  Nd13  1  0.59191119  0.84249793  0.75000000  1
  Nd  Nd14  1  0.85389589  0.60945336  0.04852197  1
  Nd  Nd15  1  0.64610411  0.10945336  0.95147803  1
  Te  Te16  1  0.06403680  0.13677080  0.07999874  1
  Te  Te17  1  0.08438398  0.77630421  0.25000000  1
  Te  Te18  1  0.56403680  0.36322920  0.07999874  1
  Te  Te19  1  0.58438398  0.72369579  0.25000000  1
  Te  Te20  1  0.93596320  0.86322920  0.92000126  1
  Te  Te21  1  0.43596320  0.63677080  0.92000126  1
  Te  Te22  1  0.91561602  0.22369579  0.75000000  1
  Te  Te23  1  0.93596320  0.86322920  0.57999874  1
  Te  Te24  1  0.06403680  0.13677080  0.42000126  1
  Te  Te25  1  0.43596320  0.63677080  0.57999874  1
  Te  Te26  1  0.56403680  0.36322920  0.42000126  1
  Te  Te27  1  0.41561602  0.27630421  0.75000000  1
  N  N28  1  0.44769203  0.96835927  0.62204553  1
  N  N29  1  0.55230797  0.03164073  0.12204553  1
  N  N30  1  0.94769203  0.53164073  0.62204553  1
  N  N31  1  0.05230797  0.46835927  0.37795447  1
  N  N32  1  0.94769203  0.53164073  0.87795447  1
  N  N33  1  0.05230797  0.46835927  0.12204553  1
  N  N34  1  0.55230797  0.03164073  0.37795447  1
  N  N35  1  0.44769203  0.96835927  0.87795447  1
