# generated using pymatgen
data_Fe4Bi2O9
_symmetry_space_group_name_H-M   'P 1'
_cell_length_a   6.04583608
_cell_length_b   8.01523517
_cell_length_c   8.45826100
_cell_angle_alpha   90.00000000
_cell_angle_beta   90.00000000
_cell_angle_gamma   90.00000000
_symmetry_Int_Tables_number   1
_chemical_formula_structural   Fe4Bi2O9
_chemical_formula_sum   'Fe8 Bi4 O18'
_cell_volume   409.87716107
_cell_formula_units_Z   2
loop_
 _symmetry_equiv_pos_site_id
 _symmetry_equiv_pos_as_xyz
  1  'x, y, z'
loop_
 _atom_site_type_symbol
 _atom_site_label
 _atom_site_symmetry_multiplicity
 _atom_site_fract_x
 _atom_site_fract_y
 _atom_site_fract_z
 _atom_site_occupancy
  Fe  Fe0  1  0.25615186  -0.00000000  0.50000000  1
  Fe  Fe1  1  0.74384814  0.50000000  0.00000000  1
  Fe  Fe2  1  0.74384814  -0.00000000  0.50000000  1
  Fe  Fe3  1  0.25615186  0.50000000  0.00000000  1
  Fe  Fe4  1  0.50000000  0.85368910  0.16827004  1
  Fe  Fe5  1  0.50000000  0.14631090  0.83172996  1
  Fe  Fe6  1  0.50000000  0.35368910  0.33172996  1
  Fe  Fe7  1  0.50000000  0.64631090  0.66827004  1
  Bi  Bi8  1  0.00000000  0.67570084  0.32632720  1
  Bi  Bi9  1  0.00000000  0.32429916  0.67367280  1
  Bi  Bi10  1  0.00000000  0.17570084  0.17367280  1
  Bi  Bi11  1  0.00000000  0.82429916  0.82632720  1
  O  O12  1  0.50000000  0.50000000  0.50000000  1
  O  O13  1  0.50000000  -0.00000000  0.00000000  1
  O  O14  1  0.23919507  0.86869558  0.29411687  1
  O  O15  1  0.23919507  0.13130442  0.70588313  1
  O  O16  1  0.76080493  0.36869558  0.20588313  1
  O  O17  1  0.76080493  0.63130442  0.79411687  1
  O  O18  1  0.76080493  0.13130442  0.70588313  1
  O  O19  1  0.76080493  0.86869558  0.29411687  1
  O  O20  1  0.23919507  0.63130442  0.79411687  1
  O  O21  1  0.23919507  0.36869558  0.20588313  1
  O  O22  1  0.50000000  0.63093339  0.09773537  1
  O  O23  1  0.50000000  0.36906661  0.90226463  1
  O  O24  1  0.50000000  0.13093339  0.40226463  1
  O  O25  1  0.50000000  0.86906661  0.59773537  1
  O  O26  1  0.00000000  0.65231682  0.06799255  1
  O  O27  1  0.00000000  0.34768318  0.93200745  1
  O  O28  1  0.00000000  0.15231682  0.43200745  1
  O  O29  1  0.00000000  0.84768318  0.56799255  1
