# generated using pymatgen
data_Rb3Ta2S11
_symmetry_space_group_name_H-M   'P 1'
_cell_length_a   8.05863168
_cell_length_b   11.88325399
_cell_length_c   19.45142368
_cell_angle_alpha   76.08681709
_cell_angle_beta   90.00000000
_cell_angle_gamma   90.00000000
_symmetry_Int_Tables_number   1
_chemical_formula_structural   Rb3Ta2S11
_chemical_formula_sum   'Rb12 Ta8 S44'
_cell_volume   1808.07208989
_cell_formula_units_Z   4
loop_
 _symmetry_equiv_pos_site_id
 _symmetry_equiv_pos_as_xyz
  1  'x, y, z'
loop_
 _atom_site_type_symbol
 _atom_site_label
 _atom_site_symmetry_multiplicity
 _atom_site_fract_x
 _atom_site_fract_y
 _atom_site_fract_z
 _atom_site_occupancy
  Rb  Rb0  1  0.82963262  0.49784770  0.66008138  1
  Rb  Rb1  1  0.32963262  0.50215230  0.83991862  1
  Rb  Rb2  1  0.17036738  0.50215230  0.33991862  1
  Rb  Rb3  1  0.67036738  0.49784770  0.16008138  1
  Rb  Rb4  1  0.81209193  0.73242768  0.88570602  1
  Rb  Rb5  1  0.31209193  0.26757232  0.61429398  1
  Rb  Rb6  1  0.18790807  0.26757232  0.11429398  1
  Rb  Rb7  1  0.68790807  0.73242768  0.38570602  1
  Rb  Rb8  1  0.84357318  0.95847075  0.64287218  1
  Rb  Rb9  1  0.34357318  0.04152925  0.85712782  1
  Rb  Rb10  1  0.15642682  0.04152925  0.35712782  1
  Rb  Rb11  1  0.65642682  0.95847075  0.14287218  1
  Ta  Ta12  1  0.35996130  0.78882211  0.66273301  1
  Ta  Ta13  1  0.85996130  0.21117789  0.83726699  1
  Ta  Ta14  1  0.64003870  0.21117789  0.33726699  1
  Ta  Ta15  1  0.14003870  0.78882211  0.16273301  1
  Ta  Ta16  1  0.22878564  0.69584421  0.50760458  1
  Ta  Ta17  1  0.72878564  0.30415579  0.99239542  1
  Ta  Ta18  1  0.77121436  0.30415579  0.49239542  1
  Ta  Ta19  1  0.27121436  0.69584421  0.00760458  1
  S  S20  1  0.57244335  0.73207182  0.73604083  1
  S  S21  1  0.07244335  0.26792818  0.76395917  1
  S  S22  1  0.42755665  0.26792818  0.26395917  1
  S  S23  1  0.92755665  0.73207182  0.23604083  1
  S  S24  1  0.27852915  0.97564887  0.68547171  1
  S  S25  1  0.77852915  0.02435113  0.81452829  1
  S  S26  1  0.72147085  0.02435113  0.31452829  1
  S  S27  1  0.22147085  0.97564887  0.18547171  1
  S  S28  1  0.42972187  0.98608712  0.59744524  1
  S  S29  1  0.92972187  0.01391288  0.90255476  1
  S  S30  1  0.57027813  0.01391288  0.40255476  1
  S  S31  1  0.07027813  0.98608712  0.09744524  1
  S  S32  1  0.10760555  0.70185712  0.72127031  1
  S  S33  1  0.60760555  0.29814288  0.77872969  1
  S  S34  1  0.89239445  0.29814288  0.27872969  1
  S  S35  1  0.39239445  0.70185712  0.22127031  1
  S  S36  1  0.22758546  0.60400741  0.66058401  1
  S  S37  1  0.72758546  0.39599259  0.83941599  1
  S  S38  1  0.77241454  0.39599259  0.33941599  1
  S  S39  1  0.27241454  0.60400741  0.16058401  1
  S  S40  1  0.49877838  0.75484300  0.55144163  1
  S  S41  1  -0.00122162  0.24515700  0.94855837  1
  S  S42  1  0.50122162  0.24515700  0.44855837  1
  S  S43  1  0.00122162  0.75484300  0.05144163  1
  S  S44  1  0.48449348  0.58199757  0.54776863  1
  S  S45  1  0.98449348  0.41800243  0.95223137  1
  S  S46  1  0.51550652  0.41800243  0.45223137  1
  S  S47  1  0.01550652  0.58199757  0.04776863  1
  S  S48  1  0.12932869  0.86864089  0.54196713  1
  S  S49  1  0.62932869  0.13135911  0.95803287  1
  S  S50  1  0.87067131  0.13135911  0.45803287  1
  S  S51  1  0.37067131  0.86864089  0.04196713  1
  S  S52  1  0.94605596  0.74973372  0.53163885  1
  S  S53  1  0.44605596  0.25026628  0.96836115  1
  S  S54  1  0.05394404  0.25026628  0.46836115  1
  S  S55  1  0.55394404  0.74973372  0.03163885  1
  S  S56  1  0.26369011  0.75861822  0.39130457  1
  S  S57  1  0.76369011  0.24138178  0.10869543  1
  S  S58  1  0.73630989  0.24138178  0.60869543  1
  S  S59  1  0.23630989  0.75861822  0.89130457  1
  S  S60  1  0.12502603  0.49684199  0.51370566  1
  S  S61  1  0.62502603  0.50315801  0.98629434  1
  S  S62  1  0.87497397  0.50315801  0.48629434  1
  S  S63  1  0.37497397  0.49684199  0.01370566  1
