# generated using pymatgen
data_Nd3S2Cl5
_symmetry_space_group_name_H-M   'P 1'
_cell_length_a   6.59487125
_cell_length_b   7.08341332
_cell_length_c   21.97745394
_cell_angle_alpha   82.19558772
_cell_angle_beta   90.00000000
_cell_angle_gamma   90.00000000
_symmetry_Int_Tables_number   1
_chemical_formula_structural   Nd3S2Cl5
_chemical_formula_sum   'Nd12 S8 Cl20'
_cell_volume   1017.14960572
_cell_formula_units_Z   4
loop_
 _symmetry_equiv_pos_site_id
 _symmetry_equiv_pos_as_xyz
  1  'x, y, z'
loop_
 _atom_site_type_symbol
 _atom_site_label
 _atom_site_symmetry_multiplicity
 _atom_site_fract_x
 _atom_site_fract_y
 _atom_site_fract_z
 _atom_site_occupancy
  Nd  Nd0  1  0.95543339  0.33678926  0.09949252  1
  Nd  Nd1  1  0.54464289  0.70497803  0.40396576  1
  Nd  Nd2  1  0.04456661  0.66321074  0.90050748  1
  Nd  Nd3  1  0.54383466  0.35768514  0.25096725  1
  Nd  Nd4  1  0.54456661  0.83678926  0.09949252  1
  Nd  Nd5  1  0.04383466  0.14231486  0.74903275  1
  Nd  Nd6  1  0.95616534  0.85768514  0.25096725  1
  Nd  Nd7  1  0.45616534  0.64231486  0.74903275  1
  Nd  Nd8  1  0.95535711  0.20497803  0.40396576  1
  Nd  Nd9  1  0.45535711  0.29502197  0.59603424  1
  Nd  Nd10  1  0.45543339  0.16321074  0.90050748  1
  Nd  Nd11  1  0.04464289  0.79502197  0.59603424  1
  S  S12  1  0.31120557  0.90186806  0.82647812  1
  S  S13  1  0.18879443  0.40186806  0.82647812  1
  S  S14  1  0.31166807  0.96646387  0.66811080  1
  S  S15  1  0.68833193  0.03353613  0.33188920  1
  S  S16  1  0.81166807  0.53353613  0.33188920  1
  S  S17  1  0.81120557  0.59813194  0.17352188  1
  S  S18  1  0.18833193  0.46646387  0.66811080  1
  S  S19  1  0.68879443  0.09813194  0.17352188  1
  Cl  Cl20  1  0.72905843  0.39694199  0.48787401  1
  Cl  Cl21  1  0.77094157  0.89694199  0.48787401  1
  Cl  Cl22  1  0.86263734  0.77457164  0.75393422  1
  Cl  Cl23  1  0.22905843  0.10305801  0.51212599  1
  Cl  Cl24  1  0.34588362  0.47967095  0.11954882  1
  Cl  Cl25  1  0.81939967  0.65841411  0.01818607  1
  Cl  Cl26  1  0.15411638  0.97967095  0.11954882  1
  Cl  Cl27  1  0.65411638  0.52032905  0.88045118  1
  Cl  Cl28  1  0.63736266  0.27457164  0.75393422  1
  Cl  Cl29  1  0.66891451  0.61911023  0.62587913  1
  Cl  Cl30  1  0.16891451  0.88088977  0.37412087  1
  Cl  Cl31  1  0.36263734  0.72542836  0.24606578  1
  Cl  Cl32  1  0.68060033  0.15841411  0.01818607  1
  Cl  Cl33  1  0.31939967  0.84158589  0.98181393  1
  Cl  Cl34  1  0.18060033  0.34158589  0.98181393  1
  Cl  Cl35  1  0.33108549  0.38088977  0.37412087  1
  Cl  Cl36  1  0.27094157  0.60305801  0.51212599  1
  Cl  Cl37  1  0.13736266  0.22542836  0.24606578  1
  Cl  Cl38  1  0.83108549  0.11911023  0.62587913  1
  Cl  Cl39  1  0.84588362  0.02032905  0.88045118  1
