# generated using pymatgen
data_TbCuS2
_symmetry_space_group_name_H-M   'P 1'
_cell_length_a   6.35976516
_cell_length_b   6.74120031
_cell_length_c   6.99886418
_cell_angle_alpha   90.00000000
_cell_angle_beta   90.00000000
_cell_angle_gamma   97.30826649
_symmetry_Int_Tables_number   1
_chemical_formula_structural   TbCuS2
_chemical_formula_sum   'Tb4 Cu4 S8'
_cell_volume   297.62081536
_cell_formula_units_Z   4
loop_
 _symmetry_equiv_pos_site_id
 _symmetry_equiv_pos_as_xyz
  1  'x, y, z'
loop_
 _atom_site_type_symbol
 _atom_site_label
 _atom_site_symmetry_multiplicity
 _atom_site_fract_x
 _atom_site_fract_y
 _atom_site_fract_z
 _atom_site_occupancy
  Tb  Tb0  1  0.69218284  0.30091640  0.04900861  1
  Tb  Tb1  1  0.30781716  0.19908360  0.54900861  1
  Tb  Tb2  1  0.30781716  0.69908360  0.95099139  1
  Tb  Tb3  1  0.69218284  0.80091640  0.45099139  1
  Cu  Cu4  1  0.92124732  0.94957596  0.83865782  1
  Cu  Cu5  1  0.07875268  0.05042404  0.16134218  1
  Cu  Cu6  1  0.07875268  0.55042404  0.33865782  1
  Cu  Cu7  1  0.92124732  0.44957596  0.66134218  1
  S  S8  1  0.57703302  0.49732660  0.72664476  1
  S  S9  1  0.42296698  0.00267340  0.22664476  1
  S  S10  1  0.42296698  0.50267340  0.27335524  1
  S  S11  1  0.57703302  0.99732660  0.77335524  1
  S  S12  1  0.90960459  0.22084299  0.38615090  1
  S  S13  1  0.90960459  0.72084299  0.11384910  1
  S  S14  1  0.09039541  0.77915701  0.61384910  1
  S  S15  1  0.09039541  0.27915701  0.88615090  1
