# generated using pymatgen
data_BaAl2(GeO4)2
_symmetry_space_group_name_H-M   'P 1'
_cell_length_a   9.57497590
_cell_length_b   9.57497590
_cell_length_c   8.84169017
_cell_angle_alpha   82.14823689
_cell_angle_beta   82.14823689
_cell_angle_gamma   88.98888734
_symmetry_Int_Tables_number   1
_chemical_formula_structural   BaAl2(GeO4)2
_chemical_formula_sum   'Ba4 Al8 Ge8 O32'
_cell_volume   795.47924733
_cell_formula_units_Z   4
loop_
 _symmetry_equiv_pos_site_id
 _symmetry_equiv_pos_as_xyz
  1  'x, y, z'
loop_
 _atom_site_type_symbol
 _atom_site_label
 _atom_site_symmetry_multiplicity
 _atom_site_fract_x
 _atom_site_fract_y
 _atom_site_fract_z
 _atom_site_occupancy
  Ba  Ba0  1  0.43382253  0.93437915  0.28876363  1
  Ba  Ba1  1  0.56617747  0.06562085  0.71123637  1
  Ba  Ba2  1  0.93437915  0.43382253  0.78876363  1
  Ba  Ba3  1  0.06562085  0.56617747  0.21123637  1
  Al  Al4  1  0.29386944  0.43222218  0.89133212  1
  Al  Al5  1  0.56777782  0.70613056  0.60866788  1
  Al  Al6  1  0.94586759  0.20763069  0.47457386  1
  Al  Al7  1  0.20763069  0.94586759  0.97457386  1
  Al  Al8  1  0.43222218  0.29386944  0.39133212  1
  Al  Al9  1  0.70613056  0.56777782  0.10866788  1
  Al  Al10  1  0.79236931  0.05413241  0.02542614  1
  Al  Al11  1  0.05413241  0.79236931  0.52542614  1
  Ge  Ge12  1  0.29130109  0.55548593  0.52286401  1
  Ge  Ge13  1  0.55548593  0.29130109  0.02286401  1
  Ge  Ge14  1  0.06985378  0.20760552  0.10582844  1
  Ge  Ge15  1  0.79239448  0.93014622  0.39417156  1
  Ge  Ge16  1  0.70869891  0.44451407  0.47713599  1
  Ge  Ge17  1  0.93014622  0.79239448  0.89417156  1
  Ge  Ge18  1  0.44451407  0.70869891  0.97713599  1
  Ge  Ge19  1  0.20760552  0.06985378  0.60582844  1
  O  O20  1  0.36754744  0.13424854  0.49868937  1
  O  O21  1  0.13424854  0.36754744  0.99868937  1
  O  O22  1  0.64634295  0.14429859  0.96129136  1
  O  O23  1  0.47625028  0.23891051  0.21085863  1
  O  O24  1  0.23891051  0.47625028  0.71085863  1
  O  O25  1  0.02302821  0.26072820  0.28616914  1
  O  O26  1  0.93321170  0.81416210  0.39180681  1
  O  O27  1  0.76108949  0.52374972  0.28914137  1
  O  O28  1  0.67743205  0.42686507  0.00883865  1
  O  O29  1  0.26072820  0.02302821  0.78616914  1
  O  O30  1  0.81416210  0.93321170  0.89180681  1
  O  O31  1  0.06678830  0.18583790  0.60819319  1
  O  O32  1  0.86575146  0.63245256  0.00131063  1
  O  O33  1  0.68170961  0.56310424  0.61136013  1
  O  O34  1  0.82415661  0.07141035  0.49130321  1
  O  O35  1  0.97697179  0.73927180  0.71383086  1
  O  O36  1  0.52374972  0.76108949  0.78914137  1
  O  O37  1  0.32256795  0.57313493  0.99116135  1
  O  O38  1  0.57313493  0.32256795  0.49116135  1
  O  O39  1  0.85570141  0.35365705  0.53870864  1
  O  O40  1  0.43689576  0.31829039  0.88863987  1
  O  O41  1  0.31829039  0.43689576  0.38863987  1
  O  O42  1  0.73927180  0.97697179  0.21383086  1
  O  O43  1  0.42686507  0.67743205  0.50883865  1
  O  O44  1  0.35365705  0.85570141  0.03870864  1
  O  O45  1  0.92858965  0.17584339  0.00869679  1
  O  O46  1  0.18583790  0.06678830  0.10819319  1
  O  O47  1  0.63245256  0.86575146  0.50131063  1
  O  O48  1  0.17584339  0.92858965  0.50869679  1
  O  O49  1  0.56310424  0.68170961  0.11136013  1
  O  O50  1  0.14429859  0.64634295  0.46129136  1
  O  O51  1  0.07141035  0.82415661  0.99130321  1
