# generated using pymatgen
data_InBi2S4Cl
_symmetry_space_group_name_H-M   'P 1'
_cell_length_a   3.94276400
_cell_length_b   6.60258396
_cell_length_c   8.42584727
_cell_angle_alpha   68.69924171
_cell_angle_beta   76.46917874
_cell_angle_gamma   72.62782471
_symmetry_Int_Tables_number   1
_chemical_formula_structural   InBi2S4Cl
_chemical_formula_sum   'In1 Bi2 S4 Cl1'
_cell_volume   193.08657958
_cell_formula_units_Z   1
loop_
 _symmetry_equiv_pos_site_id
 _symmetry_equiv_pos_as_xyz
  1  'x, y, z'
loop_
 _atom_site_type_symbol
 _atom_site_label
 _atom_site_symmetry_multiplicity
 _atom_site_fract_x
 _atom_site_fract_y
 _atom_site_fract_z
 _atom_site_occupancy
  In  In0  1  0.00000000  0.00000000  0.00000000  1
  Bi  Bi1  1  0.79565900  0.68384100  0.72484100  1
  Bi  Bi2  1  0.20434100  0.31615900  0.27515900  1
  S  S3  1  0.16340000  0.99008200  0.68311800  1
  S  S4  1  0.37458600  0.30490700  0.94592100  1
  S  S5  1  0.83660000  0.00991800  0.31688200  1
  S  S6  1  0.62541400  0.69509300  0.05407900  1
  Cl  Cl7  1  0.50000000  0.50000000  0.50000000  1
