# generated using pymatgen
data_Ba6Na2Si4O15
_symmetry_space_group_name_H-M   'P 1'
_cell_length_a   7.89757861
_cell_length_b   9.56894386
_cell_length_c   11.52774735
_cell_angle_alpha   72.42236976
_cell_angle_beta   90.00000000
_cell_angle_gamma   90.00000000
_symmetry_Int_Tables_number   1
_chemical_formula_structural   Ba6Na2Si4O15
_chemical_formula_sum   'Ba12 Na4 Si8 O30'
_cell_volume   830.49294300
_cell_formula_units_Z   2
loop_
 _symmetry_equiv_pos_site_id
 _symmetry_equiv_pos_as_xyz
  1  'x, y, z'
loop_
 _atom_site_type_symbol
 _atom_site_label
 _atom_site_symmetry_multiplicity
 _atom_site_fract_x
 _atom_site_fract_y
 _atom_site_fract_z
 _atom_site_occupancy
  Ba  Ba0  1  0.97947356  0.33287823  0.91581334  1
  Ba  Ba1  1  0.99527271  0.65848027  0.58556378  1
  Ba  Ba2  1  0.50283085  0.00209845  0.22462080  1
  Ba  Ba3  1  0.99716915  0.00209845  0.72462080  1
  Ba  Ba4  1  0.00283085  0.99790155  0.27537920  1
  Ba  Ba5  1  0.47947356  0.66712177  0.58418666  1
  Ba  Ba6  1  0.52052644  0.33287823  0.41581334  1
  Ba  Ba7  1  0.02052644  0.66712177  0.08418666  1
  Ba  Ba8  1  0.00472729  0.34151973  0.41443622  1
  Ba  Ba9  1  0.49527271  0.34151973  0.91443622  1
  Ba  Ba10  1  0.50472729  0.65848027  0.08556378  1
  Ba  Ba11  1  0.49716915  0.99790155  0.77537920  1
  Na  Na12  1  0.25004787  0.32154997  0.66893228  1
  Na  Na13  1  0.75004787  0.67845003  0.83106772  1
  Na  Na14  1  0.24995213  0.32154997  0.16893228  1
  Na  Na15  1  0.74995213  0.67845003  0.33106772  1
  Si  Si16  1  0.25605390  0.62034148  0.34506248  1
  Si  Si17  1  0.74394610  0.37965852  0.65493752  1
  Si  Si18  1  0.20886353  0.03720721  0.99020425  1
  Si  Si19  1  0.29113647  0.03720721  0.49020425  1
  Si  Si20  1  0.24394610  0.62034148  0.84506248  1
  Si  Si21  1  0.79113647  0.96279279  0.00979575  1
  Si  Si22  1  0.75605390  0.37965852  0.15493752  1
  Si  Si23  1  0.70886353  0.96279279  0.50979575  1
  O  O24  1  0.92318904  0.29007879  0.68142074  1
  O  O25  1  0.30887877  0.88390048  0.02754218  1
  O  O26  1  0.42318904  0.70992121  0.81857926  1
  O  O27  1  0.75865470  0.86355550  0.14890656  1
  O  O28  1  0.57681096  0.29007879  0.18142074  1
  O  O29  1  0.93098446  0.28488397  0.17522387  1
  O  O30  1  0.75265239  0.48749556  0.01247611  1
  O  O31  1  0.23800149  0.51191934  0.75707719  1
  O  O32  1  0.75621755  0.86452263  0.92003670  1
  O  O33  1  0.69112123  0.11609952  0.97245782  1
  O  O34  1  0.24378245  0.13547737  0.07996330  1
  O  O35  1  0.26199851  0.51191934  0.25707719  1
  O  O36  1  0.25865470  0.13644450  0.35109344  1
  O  O37  1  0.19112123  0.88390048  0.52754218  1
  O  O38  1  0.24134530  0.13644450  0.85109344  1
  O  O39  1  0.74134530  0.86355550  0.64890656  1
  O  O40  1  0.25265239  0.51250444  0.48752389  1
  O  O41  1  0.25621755  0.13547737  0.57996330  1
  O  O42  1  0.74734761  0.48749556  0.51247611  1
  O  O43  1  0.76199851  0.48808066  0.24292281  1
  O  O44  1  0.73800149  0.48808066  0.74292281  1
  O  O45  1  0.43098446  0.71511603  0.32477613  1
  O  O46  1  0.74378245  0.86452263  0.42003670  1
  O  O47  1  0.56901554  0.28488397  0.67522387  1
  O  O48  1  0.07681096  0.70992121  0.31857926  1
  O  O49  1  -0.00000000  -0.00000000  -0.00000000  1
  O  O50  1  0.80887877  0.11609952  0.47245782  1
  O  O51  1  0.24734761  0.51250444  0.98752389  1
  O  O52  1  0.06901554  0.71511603  0.82477613  1
  O  O53  1  0.50000000  -0.00000000  0.50000000  1
