# generated using pymatgen
data_Cs2MnO4
_symmetry_space_group_name_H-M   'P 1'
_cell_length_a   6.29820319
_cell_length_b   8.42348227
_cell_length_c   11.13372632
_cell_angle_alpha   90.00109878
_cell_angle_beta   89.99756990
_cell_angle_gamma   90.00612819
_symmetry_Int_Tables_number   1
_chemical_formula_structural   Cs2MnO4
_chemical_formula_sum   'Cs8 Mn4 O16'
_cell_volume   590.67538439
_cell_formula_units_Z   4
loop_
 _symmetry_equiv_pos_site_id
 _symmetry_equiv_pos_as_xyz
  1  'x, y, z'
loop_
 _atom_site_type_symbol
 _atom_site_label
 _atom_site_symmetry_multiplicity
 _atom_site_fract_x
 _atom_site_fract_y
 _atom_site_fract_z
 _atom_site_occupancy
  Cs  Cs0  1  0.75000076  0.66729793  0.59000097  1
  Cs  Cs1  1  0.25000205  0.33271882  0.40997552  1
  Cs  Cs2  1  0.75000062  0.16727853  0.91001810  1
  Cs  Cs3  1  0.25000109  0.83273166  0.09003756  1
  Cs  Cs4  1  0.74991412  0.98591706  0.30623870  1
  Cs  Cs5  1  0.24997542  0.01404573  0.69376178  1
  Cs  Cs6  1  0.74991323  0.48592108  0.19379662  1
  Cs  Cs7  1  0.24995499  0.51407496  0.80622326  1
  Mn  Mn8  1  0.75000825  0.23612021  0.58074057  1
  Mn  Mn9  1  0.25000178  0.76388475  0.41918470  1
  Mn  Mn10  1  0.75002192  0.73611967  0.91929852  1
  Mn  Mn11  1  0.25003142  0.26388034  0.08074407  1
  O  O12  1  0.75002138  0.04119299  0.58509464  1
  O  O13  1  0.24999823  0.95880336  0.41482377  1
  O  O14  1  0.75005360  0.54117275  0.91496926  1
  O  O15  1  0.25004243  0.45878813  0.08510768  1
  O  O16  1  0.74997298  0.29299915  0.43875972  1
  O  O17  1  0.24996910  0.70704283  0.56116460  1
  O  O18  1  0.74994506  0.79301826  0.06130069  1
  O  O19  1  0.24996227  0.20700296  0.93874755  1
  O  O20  1  0.96232053  0.30755203  0.64818650  1
  O  O21  1  0.46230245  0.69244734  0.35175076  1
  O  O22  1  0.53772220  0.80757396  0.85191057  1
  O  O23  1  0.03773818  0.19241631  0.14814123  1
  O  O24  1  0.03772590  0.69241570  0.35179611  1
  O  O25  1  0.53771152  0.30757306  0.64816163  1
  O  O26  1  0.46232776  0.19243349  0.14819376  1
  O  O27  1  0.96235976  0.80757797  0.85187314  1
