# generated using pymatgen
data_TePbO3
_symmetry_space_group_name_H-M   'P 1'
_cell_length_a   4.60105577
_cell_length_b   13.51009858
_cell_length_c   18.02331347
_cell_angle_alpha   106.79128573
_cell_angle_beta   90.00000000
_cell_angle_gamma   99.80422101
_symmetry_Int_Tables_number   1
_chemical_formula_structural   TePbO3
_chemical_formula_sum   'Te12 Pb12 O36'
_cell_volume   1055.47212074
_cell_formula_units_Z   12
loop_
 _symmetry_equiv_pos_site_id
 _symmetry_equiv_pos_as_xyz
  1  'x, y, z'
loop_
 _atom_site_type_symbol
 _atom_site_label
 _atom_site_symmetry_multiplicity
 _atom_site_fract_x
 _atom_site_fract_y
 _atom_site_fract_z
 _atom_site_occupancy
  Te  Te0  1  0.27918952  0.09529411  0.36856923  1
  Te  Te1  1  0.18389541  0.90470589  0.13143077  1
  Te  Te2  1  0.72081048  0.90470589  0.63143077  1
  Te  Te3  1  0.81610459  0.09529411  0.86856923  1
  Te  Te4  1  0.32358198  0.13806839  0.70715820  1
  Te  Te5  1  0.18551359  0.86193161  0.79284180  1
  Te  Te6  1  0.67641802  0.86193161  0.29284180  1
  Te  Te7  1  0.81448641  0.13806839  0.20715820  1
  Te  Te8  1  0.51523406  0.41488524  0.59286548  1
  Te  Te9  1  0.10034982  0.58511476  0.90713452  1
  Te  Te10  1  0.48476594  0.58511476  0.40713452  1
  Te  Te11  1  0.89965018  0.41488524  0.09286548  1
  Pb  Pb12  1  0.97818946  0.36755626  0.73657840  1
  Pb  Pb13  1  0.61063320  0.63244374  0.76342160  1
  Pb  Pb14  1  0.02181054  0.63244374  0.26342160  1
  Pb  Pb15  1  0.38936680  0.36755626  0.23657840  1
  Pb  Pb16  1  0.84027158  0.13287529  0.54442618  1
  Pb  Pb17  1  0.70739628  0.86712471  0.95557382  1
  Pb  Pb18  1  0.15972842  0.86712471  0.45557382  1
  Pb  Pb19  1  0.29260372  0.13287529  0.04442618  1
  Pb  Pb20  1  0.41574125  0.32264536  0.91423812  1
  Pb  Pb21  1  0.09309489  0.67735464  0.58576188  1
  Pb  Pb22  1  0.58425875  0.67735464  0.08576188  1
  Pb  Pb23  1  0.90690511  0.32264536  0.41423812  1
  O  O24  1  0.20441431  0.04295846  0.45485812  1
  O  O25  1  0.16145685  0.95704154  0.04514188  1
  O  O26  1  0.79558569  0.95704154  0.54514188  1
  O  O27  1  0.83854315  0.04295846  0.95485812  1
  O  O28  1  0.27967557  0.23607906  0.42612205  1
  O  O29  1  0.04359551  0.76392094  0.07387795  1
  O  O30  1  0.72032443  0.76392094  0.57387795  1
  O  O31  1  0.95640449  0.23607906  0.92612205  1
  O  O32  1  0.69366352  0.11301725  0.37203582  1
  O  O33  1  0.58064527  0.88698275  0.12796418  1
  O  O34  1  0.30633648  0.88698275  0.62796418  1
  O  O35  1  0.41935473  0.11301725  0.87203582  1
  O  O36  1  0.37128548  0.27209619  0.78181156  1
  O  O37  1  0.09918928  0.72790381  0.71818844  1
  O  O38  1  0.62871452  0.72790381  0.21818844  1
  O  O39  1  0.90081072  0.27209619  0.28181156  1
  O  O40  1  0.27205081  0.19111664  0.62313839  1
  O  O41  1  0.08093417  0.80888336  0.87686161  1
  O  O42  1  0.72794919  0.80888336  0.37686161  1
  O  O43  1  0.91906583  0.19111664  0.12313839  1
  O  O44  1  0.72254079  0.12964847  0.69000214  1
  O  O45  1  0.59289232  0.87035153  0.80999786  1
  O  O46  1  0.27745921  0.87035153  0.30999786  1
  O  O47  1  0.40710768  0.12964847  0.19000214  1
  O  O48  1  0.44433096  0.44328609  0.70027569  1
  O  O49  1  0.00104487  0.55671391  0.79972431  1
  O  O50  1  0.55566904  0.55671391  0.29972431  1
  O  O51  1  -0.00104487  0.44328609  0.20027569  1
  O  O52  1  0.87769236  0.37073183  0.59990371  1
  O  O53  1  0.50696052  0.62926817  0.90009629  1
  O  O54  1  0.12230764  0.62926817  0.40009629  1
  O  O55  1  0.49303948  0.37073183  0.09990371  1
  O  O56  1  0.65247328  0.55733283  0.60231403  1
  O  O57  1  0.09514046  0.44266717  0.89768597  1
  O  O58  1  0.34752672  0.44266717  0.39768597  1
  O  O59  1  0.90485954  0.55733283  0.10231403  1
