# generated using pymatgen
data_Te3W2Se4(Cl4O)2
_symmetry_space_group_name_H-M   'P 1'
_cell_length_a   8.25105657
_cell_length_b   8.25105657
_cell_length_c   15.59007735
_cell_angle_alpha   81.19819306
_cell_angle_beta   81.19819306
_cell_angle_gamma   83.38981663
_symmetry_Int_Tables_number   1
_chemical_formula_structural   Te3W2Se4(Cl4O)2
_chemical_formula_sum   'Te6 W4 Se8 Cl16 O4'
_cell_volume   1031.94074363
_cell_formula_units_Z   2
loop_
 _symmetry_equiv_pos_site_id
 _symmetry_equiv_pos_as_xyz
  1  'x, y, z'
loop_
 _atom_site_type_symbol
 _atom_site_label
 _atom_site_symmetry_multiplicity
 _atom_site_fract_x
 _atom_site_fract_y
 _atom_site_fract_z
 _atom_site_occupancy
  Te  Te0  1  0.86479422  0.03165600  0.15544321  1
  Te  Te1  1  0.87409939  0.14938347  0.84925870  1
  Te  Te2  1  0.03025570  0.75286638  0.95973635  1
  Te  Te3  1  0.03165600  0.86479422  0.65544321  1
  Te  Te4  1  0.14938347  0.87409939  0.34925870  1
  Te  Te5  1  0.75286638  0.03025570  0.45973635  1
  W  W6  1  0.46447959  0.44523764  0.29475657  1
  W  W7  1  0.45680433  0.43696394  0.04584409  1
  W  W8  1  0.43696394  0.45680433  0.54584409  1
  W  W9  1  0.44523764  0.46447959  0.79475657  1
  Se  Se10  1  0.86795071  0.76955014  0.38457126  1
  Se  Se11  1  0.13129425  0.03603733  0.92709439  1
  Se  Se12  1  0.02566904  0.15085342  0.68952817  1
  Se  Se13  1  0.03603733  0.13129425  0.42709439  1
  Se  Se14  1  0.76955014  0.86795071  0.88457126  1
  Se  Se15  1  0.74502777  0.88146325  0.62011885  1
  Se  Se16  1  0.15085342  0.02566904  0.18952817  1
  Se  Se17  1  0.88146325  0.74502777  0.12011885  1
  Cl  Cl18  1  0.42938296  0.15836281  0.31020915  1
  Cl  Cl19  1  0.47383684  0.73959289  0.49555455  1
  Cl  Cl20  1  0.73959289  0.47383684  0.99555455  1
  Cl  Cl21  1  0.74941554  0.37822320  0.26400323  1
  Cl  Cl22  1  0.39473047  0.17820748  0.55576152  1
  Cl  Cl23  1  0.50751684  0.72268365  0.25038746  1
  Cl  Cl24  1  0.38436473  0.72477860  0.01583422  1
  Cl  Cl25  1  0.15836281  0.42938296  0.81020915  1
  Cl  Cl26  1  0.52274825  0.15473823  0.03924406  1
  Cl  Cl27  1  0.17820748  0.39473047  0.05576152  1
  Cl  Cl28  1  0.72268365  0.50751684  0.75038746  1
  Cl  Cl29  1  0.72477860  0.38436473  0.51583422  1
  Cl  Cl30  1  0.37822320  0.74941554  0.76400323  1
  Cl  Cl31  1  0.17873986  0.51853802  0.29123808  1
  Cl  Cl32  1  0.51853802  0.17873986  0.79123808  1
  Cl  Cl33  1  0.15473823  0.52274825  0.53924406  1
  O  O34  1  0.46452189  0.43452124  0.15790517  1
  O  O35  1  0.45351852  0.44871039  0.40763398  1
  O  O36  1  0.43452124  0.46452189  0.65790517  1
  O  O37  1  0.44871039  0.45351852  0.90763398  1
