# generated using pymatgen
data_CsBrF6
_symmetry_space_group_name_H-M   'P 1'
_cell_length_a   5.24504421
_cell_length_b   5.24504477
_cell_length_c   5.24504401
_cell_angle_alpha   96.66479381
_cell_angle_beta   96.66481130
_cell_angle_gamma   96.66479167
_symmetry_Int_Tables_number   1
_chemical_formula_structural   CsBrF6
_chemical_formula_sum   'Cs1 Br1 F6'
_cell_volume   141.11774131
_cell_formula_units_Z   1
loop_
 _symmetry_equiv_pos_site_id
 _symmetry_equiv_pos_as_xyz
  1  'x, y, z'
loop_
 _atom_site_type_symbol
 _atom_site_label
 _atom_site_symmetry_multiplicity
 _atom_site_fract_x
 _atom_site_fract_y
 _atom_site_fract_z
 _atom_site_occupancy
  Cs  Cs0  1  0.50000000  0.50000000  0.50000000  1
  Br  Br1  1  0.00000000  -0.00000000  0.00000000  1
  F  F2  1  0.80563274  0.70085214  0.07803105  1
  F  F3  1  0.07803105  0.80563274  0.70085214  1
  F  F4  1  0.70085214  0.07803105  0.80563274  1
  F  F5  1  0.19436726  0.29914786  0.92196895  1
  F  F6  1  0.92196895  0.19436726  0.29914786  1
  F  F7  1  0.29914786  0.92196895  0.19436726  1
