# generated using pymatgen
data_Ti3(BiO3)4
_symmetry_space_group_name_H-M   'P 1'
_cell_length_a   16.78788548
_cell_length_b   16.78788548
_cell_length_c   5.43967199
_cell_angle_alpha   89.96992995
_cell_angle_beta   89.96992995
_cell_angle_gamma   18.46496739
_symmetry_Int_Tables_number   1
_chemical_formula_structural   Ti3(BiO3)4
_chemical_formula_sum   'Ti6 Bi8 O24'
_cell_volume   485.56420254
_cell_formula_units_Z   2
loop_
 _symmetry_equiv_pos_site_id
 _symmetry_equiv_pos_as_xyz
  1  'x, y, z'
loop_
 _atom_site_type_symbol
 _atom_site_label
 _atom_site_symmetry_multiplicity
 _atom_site_fract_x
 _atom_site_fract_y
 _atom_site_fract_z
 _atom_site_occupancy
  Ti  Ti0  1  0.99829906  0.50534749  0.52293678  1
  Ti  Ti1  1  0.12569832  0.63081013  0.53006182  1
  Ti  Ti2  1  0.37285580  0.86896435  0.02465132  1
  Ti  Ti3  1  0.86896435  0.37285580  0.52465132  1
  Ti  Ti4  1  0.63081013  0.12569832  0.03006182  1
  Ti  Ti5  1  0.50534749  0.99829906  0.02293678  1
  Bi  Bi6  1  0.70073729  0.21878659  0.45955356  1
  Bi  Bi7  1  0.78610664  0.28743937  0.96703107  1
  Bi  Bi8  1  0.21878659  0.70073729  0.95955356  1
  Bi  Bi9  1  0.42823038  0.93809957  0.47735437  1
  Bi  Bi10  1  0.28743937  0.78610664  0.46703107  1
  Bi  Bi11  1  0.56380828  0.06866606  0.48365413  1
  Bi  Bi12  1  0.06866606  0.56380828  0.98365413  1
  Bi  Bi13  1  0.93809957  0.42823038  0.97735437  1
  O  O14  1  0.29543912  0.22837854  0.76919741  1
  O  O15  1  0.35948990  0.77733337  0.02783053  1
  O  O16  1  0.92903084  0.82186808  0.84805958  1
  O  O17  1  0.63608727  0.98482484  0.07007497  1
  O  O18  1  0.50108140  0.49767842  0.73687925  1
  O  O19  1  0.01005477  0.37788999  0.56571948  1
  O  O20  1  0.98482484  0.63608727  0.57007497  1
  O  O21  1  0.32899302  0.39283413  0.26820931  1
  O  O22  1  0.37788999  0.01005477  0.06571948  1
  O  O23  1  0.62521349  0.23727384  0.03815108  1
  O  O24  1  0.65683189  0.62144038  0.26949629  1
  O  O25  1  0.77733337  0.35948990  0.52783053  1
  O  O26  1  0.78898780  0.69958232  0.84344276  1
  O  O27  1  0.16454281  0.09187690  0.32287555  1
  O  O28  1  0.82186808  0.92903084  0.34805958  1
  O  O29  1  0.00114726  0.99707324  0.73251872  1
  O  O30  1  0.62144038  0.65683189  0.76949629  1
  O  O31  1  0.23727384  0.62521349  0.53815108  1
  O  O32  1  0.69958232  0.78898780  0.34344276  1
  O  O33  1  0.49767842  0.50108140  0.23687925  1
  O  O34  1  0.39283413  0.32899302  0.76820931  1
  O  O35  1  0.99707324  0.00114726  0.23251872  1
  O  O36  1  0.09187690  0.16454281  0.82287555  1
  O  O37  1  0.22837854  0.29543912  0.26919741  1
