# generated using pymatgen
data_TbVO3
_symmetry_space_group_name_H-M   'P 1'
_cell_length_a   5.27539823
_cell_length_b   5.67600385
_cell_length_c   7.56295853
_cell_angle_alpha   90.00000000
_cell_angle_beta   90.00000000
_cell_angle_gamma   90.00000000
_symmetry_Int_Tables_number   1
_chemical_formula_structural   TbVO3
_chemical_formula_sum   'Tb4 V4 O12'
_cell_volume   226.45903362
_cell_formula_units_Z   4
loop_
 _symmetry_equiv_pos_site_id
 _symmetry_equiv_pos_as_xyz
  1  'x, y, z'
loop_
 _atom_site_type_symbol
 _atom_site_label
 _atom_site_symmetry_multiplicity
 _atom_site_fract_x
 _atom_site_fract_y
 _atom_site_fract_z
 _atom_site_occupancy
  Tb  Tb0  1  0.51918225  0.56962480  0.75000000  1
  Tb  Tb1  1  0.98081775  0.06962480  0.75000000  1
  Tb  Tb2  1  0.48081775  0.43037520  0.25000000  1
  Tb  Tb3  1  0.01918225  0.93037520  0.25000000  1
  V  V4  1  0.00000000  0.50000000  0.00000000  1
  V  V5  1  0.50000000  -0.00000000  0.50000000  1
  V  V6  1  0.00000000  0.50000000  0.50000000  1
  V  V7  1  0.50000000  -0.00000000  0.00000000  1
  O  O8  1  0.69571255  0.30887853  0.94442107  1
  O  O9  1  0.30428745  0.69112147  0.44442107  1
  O  O10  1  0.80428745  0.80887853  0.55557893  1
  O  O11  1  0.19571255  0.19112147  0.44442107  1
  O  O12  1  0.69571255  0.30887853  0.55557893  1
  O  O13  1  0.88841578  0.54171361  0.25000000  1
  O  O14  1  0.19571255  0.19112147  0.05557893  1
  O  O15  1  0.38841578  0.95828639  0.75000000  1
  O  O16  1  0.80428745  0.80887853  0.94442107  1
  O  O17  1  0.61158422  0.04171361  0.25000000  1
  O  O18  1  0.30428745  0.69112147  0.05557893  1
  O  O19  1  0.11158422  0.45828639  0.75000000  1
