# generated using pymatgen
data_RbGa2P5O16
_symmetry_space_group_name_H-M   'P 1'
_cell_length_a   9.21785006
_cell_length_b   7.39876280
_cell_length_c   10.18607778
_cell_angle_alpha   67.95330881
_cell_angle_beta   90.00000000
_cell_angle_gamma   90.00000000
_symmetry_Int_Tables_number   1
_chemical_formula_structural   RbGa2P5O16
_chemical_formula_sum   'Rb2 Ga4 P10 O32'
_cell_volume   643.90001386
_cell_formula_units_Z   2
loop_
 _symmetry_equiv_pos_site_id
 _symmetry_equiv_pos_as_xyz
  1  'x, y, z'
loop_
 _atom_site_type_symbol
 _atom_site_label
 _atom_site_symmetry_multiplicity
 _atom_site_fract_x
 _atom_site_fract_y
 _atom_site_fract_z
 _atom_site_occupancy
  Rb  Rb0  1  0.79725345  0.97642168  0.77487821  1
  Rb  Rb1  1  0.20274655  0.97642168  0.27487821  1
  Ga  Ga2  1  0.36919002  0.91469869  0.87253289  1
  Ga  Ga3  1  0.13834770  0.35627406  0.48015231  1
  Ga  Ga4  1  0.63080998  0.91469869  0.37253289  1
  Ga  Ga5  1  0.86165230  0.35627406  0.98015231  1
  P  P6  1  0.58462877  0.09996437  0.03960308  1
  P  P7  1  0.41537123  0.09996437  0.53960308  1
  P  P8  1  0.86313560  0.60253447  0.38236972  1
  P  P9  1  0.87369787  0.26348443  0.31097140  1
  P  P10  1  0.12630213  0.26348443  0.81097140  1
  P  P11  1  0.29427427  0.55365689  0.13993426  1
  P  P12  1  0.13686440  0.60253447  0.88236972  1
  P  P13  1  0.45662858  0.50001125  0.49976427  1
  P  P14  1  0.70572573  0.55365689  0.63993426  1
  P  P15  1  0.54337142  0.50001125  -0.00023573  1
  O  O16  1  0.45443071  0.46930903  0.14234876  1
  O  O17  1  0.50658159  0.31146374  0.96907221  1
  O  O18  1  0.22935106  0.45285847  0.28054250  1
  O  O19  1  0.25381116  0.12959936  0.52171846  1
  O  O20  1  0.70189301  0.50378397  0.02885926  1
  O  O21  1  0.93734880  0.27659289  0.17101167  1
  O  O22  1  0.47863053  0.67058743  0.88458920  1
  O  O23  1  0.21491064  0.47960467  0.02936820  1
  O  O24  1  0.98772702  0.21070048  0.42641419  1
  O  O25  1  0.19785413  0.80283981  0.81674059  1
  O  O26  1  0.77064894  0.45285847  0.78054250  1
  O  O27  1  0.53486119  0.98581613  0.95374087  1
  O  O28  1  0.29810699  0.50378397  0.52885926  1
  O  O29  1  0.73846140  0.14347204  0.35655853  1
  O  O30  1  0.70393637  0.77179606  0.57738125  1
  O  O31  1  0.02376645  0.59705643  0.40979346  1
  O  O32  1  0.53580882  0.02339260  0.19170142  1
  O  O33  1  0.06265120  0.27659289  0.67101167  1
  O  O34  1  0.80214587  0.80283981  0.31674059  1
  O  O35  1  0.74618884  0.12959936  0.02171846  1
  O  O36  1  0.01227298  0.21070048  0.92641419  1
  O  O37  1  0.54556929  0.46930903  0.64234876  1
  O  O38  1  0.82332941  0.48440006  0.28883430  1
  O  O39  1  0.46513881  0.98581613  0.45374087  1
  O  O40  1  0.52136947  0.67058743  0.38458920  1
  O  O41  1  0.29606363  0.77179606  0.07738125  1
  O  O42  1  0.26153860  0.14347204  0.85655853  1
  O  O43  1  0.46419118  0.02339260  0.69170142  1
  O  O44  1  0.97623355  0.59705643  0.90979346  1
  O  O45  1  0.49341841  0.31146374  0.46907221  1
  O  O46  1  0.17667059  0.48440006  0.78883430  1
  O  O47  1  0.78508936  0.47960467  0.52936820  1
