# generated using pymatgen
data_Sr2B2O5
_symmetry_space_group_name_H-M   'P 1'
_cell_length_a   5.34751366
_cell_length_b   7.76143273
_cell_length_c   11.88170355
_cell_angle_alpha   87.00239258
_cell_angle_beta   90.00000000
_cell_angle_gamma   90.00000000
_symmetry_Int_Tables_number   1
_chemical_formula_structural   Sr2B2O5
_chemical_formula_sum   'Sr8 B8 O20'
_cell_volume   492.46783403
_cell_formula_units_Z   4
loop_
 _symmetry_equiv_pos_site_id
 _symmetry_equiv_pos_as_xyz
  1  'x, y, z'
loop_
 _atom_site_type_symbol
 _atom_site_label
 _atom_site_symmetry_multiplicity
 _atom_site_fract_x
 _atom_site_fract_y
 _atom_site_fract_z
 _atom_site_occupancy
  Sr  Sr0  1  0.95353648  0.11848534  0.13207546  1
  Sr  Sr1  1  0.45353648  0.88151466  0.36792454  1
  Sr  Sr2  1  0.04646352  0.88151466  0.86792454  1
  Sr  Sr3  1  0.54646352  0.11848534  0.63207546  1
  Sr  Sr4  1  0.91016418  0.62405604  0.16014203  1
  Sr  Sr5  1  0.41016418  0.37594396  0.33985797  1
  Sr  Sr6  1  0.08983582  0.37594396  0.83985797  1
  Sr  Sr7  1  0.58983582  0.62405604  0.66014203  1
  B  B8  1  0.45373310  0.84028374  0.08371724  1
  B  B9  1  0.95373310  0.15971626  0.41628276  1
  B  B10  1  0.54626690  0.15971626  0.91628276  1
  B  B11  1  0.04626690  0.84028374  0.58371724  1
  B  B12  1  0.56984050  0.66006140  0.90465860  1
  B  B13  1  0.06984050  0.33993860  0.59534140  1
  B  B14  1  0.43015950  0.33993860  0.09534140  1
  B  B15  1  0.93015950  0.66006140  0.40465860  1
  O  O16  1  0.84704410  0.35664308  0.64723980  1
  O  O17  1  0.34704410  0.64335692  0.85276020  1
  O  O18  1  0.15295590  0.64335692  0.35276020  1
  O  O19  1  0.65295590  0.35664308  0.14723980  1
  O  O20  1  0.78753846  0.60639504  0.85851844  1
  O  O21  1  0.28753846  0.39360496  0.64148156  1
  O  O22  1  0.21246154  0.39360496  0.14148156  1
  O  O23  1  0.71246154  0.60639504  0.35851844  1
  O  O24  1  0.90488629  0.90163209  0.66815852  1
  O  O25  1  0.40488629  0.09836791  0.83184148  1
  O  O26  1  0.09511371  0.09836791  0.33184148  1
  O  O27  1  0.59511371  0.90163209  0.16815852  1
  O  O28  1  0.29815075  0.85392295  0.57192758  1
  O  O29  1  0.79815075  0.14607705  0.92807242  1
  O  O30  1  0.70184925  0.14607705  0.42807242  1
  O  O31  1  0.20184925  0.85392295  0.07192758  1
  O  O32  1  0.89686105  0.74855811  0.50545817  1
  O  O33  1  0.39686105  0.25144189  0.99454183  1
  O  O34  1  0.10313895  0.25144189  0.49454183  1
  O  O35  1  0.60313895  0.74855811  0.00545817  1
