# generated using pymatgen
data_ZnS
_symmetry_space_group_name_H-M   'P 1'
_cell_length_a   3.80773449
_cell_length_b   3.80773400
_cell_length_c   43.59854157
_cell_angle_alpha   90.00000000
_cell_angle_beta   90.00000000
_cell_angle_gamma   120.00000435
_symmetry_Int_Tables_number   1
_chemical_formula_structural   ZnS
_chemical_formula_sum   'Zn14 S14'
_cell_volume   547.43912659
_cell_formula_units_Z   14
loop_
 _symmetry_equiv_pos_site_id
 _symmetry_equiv_pos_as_xyz
  1  'x, y, z'
loop_
 _atom_site_type_symbol
 _atom_site_label
 _atom_site_symmetry_multiplicity
 _atom_site_fract_x
 _atom_site_fract_y
 _atom_site_fract_z
 _atom_site_occupancy
  Zn  Zn0  1  0.66666700  0.33333300  0.14305987  1
  Zn  Zn1  1  0.00000000  -0.00000000  0.64287399  1
  Zn  Zn2  1  0.00000000  -0.00000000  0.21432741  1
  Zn  Zn3  1  0.33333300  0.66666700  0.07153850  1
  Zn  Zn4  1  0.66666700  0.33333300  0.85709671  1
  Zn  Zn5  1  0.66666700  0.33333300  0.57160866  1
  Zn  Zn6  1  0.00000000  -0.00000000  0.78575242  1
  Zn  Zn7  1  -0.00000000  -0.00000000  0.35716699  1
  Zn  Zn8  1  0.00000000  -0.00000000  0.00002295  1
  Zn  Zn9  1  0.66666700  0.33333300  0.42846799  1
  Zn  Zn10  1  0.33333300  0.66666700  0.92849752  1
  Zn  Zn11  1  0.33333300  0.66666700  0.28569301  1
  Zn  Zn12  1  0.33333300  0.66666700  0.49992624  1
  Zn  Zn13  1  0.33333300  0.66666700  0.71425390  1
  S  S14  1  0.66666700  0.33333300  0.19654329  1
  S  S15  1  0.33333300  0.66666700  0.33928971  1
  S  S16  1  0.66666700  0.33333300  0.91061707  1
  S  S17  1  0.00000000  -0.00000000  0.83924787  1
  S  S18  1  0.00000000  -0.00000000  0.41064208  1
  S  S19  1  0.33333300  0.66666700  0.55359839  1
  S  S20  1  0.00000000  -0.00000000  0.26778828  1
  S  S21  1  0.33333300  0.66666700  0.76785448  1
  S  S22  1  0.33333300  0.66666700  0.98202088  1
  S  S23  1  0.00000000  -0.00000000  0.69633817  1
  S  S24  1  0.00000000  -0.00000000  0.05364288  1
  S  S25  1  0.66666700  0.33333300  0.48195301  1
  S  S26  1  0.66666700  0.33333300  0.62507876  1
  S  S27  1  0.33333300  0.66666700  0.12509898  1
