# generated using pymatgen
data_TiP2Cl8O3
_symmetry_space_group_name_H-M   'P 1'
_cell_length_a   15.46476630
_cell_length_b   8.72284705
_cell_length_c   12.43818340
_cell_angle_alpha   54.89957651
_cell_angle_beta   90.00000000
_cell_angle_gamma   90.00000000
_symmetry_Int_Tables_number   1
_chemical_formula_structural   TiP2Cl8O3
_chemical_formula_sum   'Ti4 P8 Cl32 O12'
_cell_volume   1372.74257660
_cell_formula_units_Z   4
loop_
 _symmetry_equiv_pos_site_id
 _symmetry_equiv_pos_as_xyz
  1  'x, y, z'
loop_
 _atom_site_type_symbol
 _atom_site_label
 _atom_site_symmetry_multiplicity
 _atom_site_fract_x
 _atom_site_fract_y
 _atom_site_fract_z
 _atom_site_occupancy
  Ti  Ti0  1  0.63446757  0.21382006  0.36396676  1
  Ti  Ti1  1  0.86553243  0.21382006  0.86396676  1
  Ti  Ti2  1  0.36553243  0.78617994  0.63603324  1
  Ti  Ti3  1  0.13446757  0.78617994  0.13603324  1
  P  P4  1  0.42983501  0.01530073  0.78300304  1
  P  P5  1  0.41483803  0.22462833  0.37808909  1
  P  P6  1  0.57016499  0.98469927  0.21699696  1
  P  P7  1  0.08516197  0.22462833  0.87808909  1
  P  P8  1  0.91483803  0.77537167  0.12191091  1
  P  P9  1  0.07016499  0.01530073  0.28300304  1
  P  P10  1  0.92983501  0.98469927  0.71699696  1
  P  P11  1  0.58516197  0.77537167  0.62191091  1
  Cl  Cl12  1  0.88612941  0.66336544  0.30920710  1
  Cl  Cl13  1  0.15107455  0.37864373  0.92109845  1
  Cl  Cl14  1  0.26382270  0.88227738  0.15878602  1
  Cl  Cl15  1  0.82103714  0.88672008  0.69834219  1
  Cl  Cl16  1  0.87565387  0.46665565  0.65310805  1
  Cl  Cl17  1  0.37565387  0.53334435  0.84689195  1
  Cl  Cl18  1  0.03271822  0.81672629  0.46280576  1
  Cl  Cl19  1  0.38612941  0.33663456  0.19079290  1
  Cl  Cl20  1  0.61387059  0.66336544  0.80920710  1
  Cl  Cl21  1  0.46728178  0.81672629  0.96280576  1
  Cl  Cl22  1  0.81740463  0.36125333  0.95015131  1
  Cl  Cl23  1  0.32103714  0.11327992  0.80165781  1
  Cl  Cl24  1  0.12434613  0.53334435  0.34689195  1
  Cl  Cl25  1  0.48454951  0.78195276  0.28623199  1
  Cl  Cl26  1  0.01545049  0.78195276  0.78623199  1
  Cl  Cl27  1  0.11387059  0.33663456  0.69079290  1
  Cl  Cl28  1  0.18259537  0.63874667  0.04984869  1
  Cl  Cl29  1  0.67896286  0.88672008  0.19834219  1
  Cl  Cl30  1  0.98454951  0.21804724  0.21376801  1
  Cl  Cl31  1  0.73617730  0.11772262  0.84121398  1
  Cl  Cl32  1  0.65107455  0.62135627  0.57890155  1
  Cl  Cl33  1  0.76382270  0.11772262  0.34121398  1
  Cl  Cl34  1  0.51545049  0.21804724  0.71376801  1
  Cl  Cl35  1  0.23617730  0.88227738  0.65878602  1
  Cl  Cl36  1  0.68259537  0.36125333  0.45015131  1
  Cl  Cl37  1  0.17896286  0.11327992  0.30165781  1
  Cl  Cl38  1  0.53271822  0.18327371  0.03719424  1
  Cl  Cl39  1  0.96728178  0.18327371  0.53719424  1
  Cl  Cl40  1  0.31740463  0.63874667  0.54984869  1
  Cl  Cl41  1  0.84892545  0.62135627  0.07890155  1
  Cl  Cl42  1  0.62434613  0.46665565  0.15310805  1
  Cl  Cl43  1  0.34892545  0.37864373  0.42109845  1
  O  O44  1  0.07624419  0.94959990  0.19745762  1
  O  O45  1  0.37970032  0.02973606  0.45671679  1
  O  O46  1  0.00869608  0.74943415  0.10930352  1
  O  O47  1  0.12029968  0.02973606  0.95671679  1
  O  O48  1  0.62029968  0.97026394  0.54328321  1
  O  O49  1  0.57624419  0.05040010  0.30254238  1
  O  O50  1  0.87970032  0.97026394  0.04328321  1
  O  O51  1  0.92375581  0.05040010  0.80254238  1
  O  O52  1  0.42375581  0.94959990  0.69745762  1
  O  O53  1  0.49130392  0.74943415  0.60930352  1
  O  O54  1  0.99130392  0.25056585  0.89069648  1
  O  O55  1  0.50869608  0.25056585  0.39069648  1
