# generated using pymatgen
data_SrZnO2
_symmetry_space_group_name_H-M   'P 1'
_cell_length_a   3.34284254
_cell_length_b   5.82466437
_cell_length_c   11.33983816
_cell_angle_alpha   90.00000000
_cell_angle_beta   90.00000000
_cell_angle_gamma   90.00000000
_symmetry_Int_Tables_number   1
_chemical_formula_structural   SrZnO2
_chemical_formula_sum   'Sr4 Zn4 O8'
_cell_volume   220.79726122
_cell_formula_units_Z   4
loop_
 _symmetry_equiv_pos_site_id
 _symmetry_equiv_pos_as_xyz
  1  'x, y, z'
loop_
 _atom_site_type_symbol
 _atom_site_label
 _atom_site_symmetry_multiplicity
 _atom_site_fract_x
 _atom_site_fract_y
 _atom_site_fract_z
 _atom_site_occupancy
  Sr  Sr0  1  0.25000000  0.31248339  0.36861624  1
  Sr  Sr1  1  0.75000000  0.68751661  0.63138376  1
  Sr  Sr2  1  0.25000000  0.81248339  0.13138376  1
  Sr  Sr3  1  0.75000000  0.18751661  0.86861624  1
  Zn  Zn4  1  0.75000000  0.79841316  0.36956398  1
  Zn  Zn5  1  0.75000000  0.29841316  0.13043602  1
  Zn  Zn6  1  0.25000000  0.20158684  0.63043602  1
  Zn  Zn7  1  0.25000000  0.70158684  0.86956398  1
  O  O8  1  0.25000000  0.23906703  0.04108607  1
  O  O9  1  0.75000000  0.76093297  0.95891393  1
  O  O10  1  0.25000000  0.73906703  0.45891393  1
  O  O11  1  0.75000000  0.26093297  0.54108607  1
  O  O12  1  0.25000000  0.44619327  0.75842043  1
  O  O13  1  0.75000000  0.05380673  0.25842043  1
  O  O14  1  0.25000000  0.94619327  0.74157957  1
  O  O15  1  0.75000000  0.55380673  0.24157957  1
