# generated using pymatgen
data_LaTmS3
_symmetry_space_group_name_H-M   'P 1'
_cell_length_a   3.98277579
_cell_length_b   16.39311766
_cell_length_c   21.37012333
_cell_angle_alpha   90.00000000
_cell_angle_beta   90.00000000
_cell_angle_gamma   90.00000000
_symmetry_Int_Tables_number   1
_chemical_formula_structural   LaTmS3
_chemical_formula_sum   'La12 Tm12 S36'
_cell_volume   1395.25774864
_cell_formula_units_Z   12
loop_
 _symmetry_equiv_pos_site_id
 _symmetry_equiv_pos_as_xyz
  1  'x, y, z'
loop_
 _atom_site_type_symbol
 _atom_site_label
 _atom_site_symmetry_multiplicity
 _atom_site_fract_x
 _atom_site_fract_y
 _atom_site_fract_z
 _atom_site_occupancy
  La  La0  1  0.25000000  0.19316915  0.92032705  1
  La  La1  1  0.75000000  0.84213375  0.75417342  1
  La  La2  1  0.75000000  0.34213375  0.74582658  1
  La  La3  1  0.25000000  0.82978336  0.41297879  1
  La  La4  1  0.25000000  0.65786625  0.25417342  1
  La  La5  1  0.75000000  0.30682985  0.42032705  1
  La  La6  1  0.25000000  0.15786625  0.24582658  1
  La  La7  1  0.75000000  0.80682985  0.07967295  1
  La  La8  1  0.75000000  0.67021664  0.91297879  1
  La  La9  1  0.25000000  0.69317015  0.57967295  1
  La  La10  1  0.75000000  0.17021664  0.58702121  1
  La  La11  1  0.25000000  0.32978336  0.08702121  1
  Tm  Tm12  1  0.75000000  0.90532147  0.25072923  1
  Tm  Tm13  1  0.75000000  0.43441289  0.92063427  1
  Tm  Tm14  1  0.25000000  0.94291670  0.93112422  1
  Tm  Tm15  1  0.75000000  0.40532147  0.24927077  1
  Tm  Tm16  1  0.25000000  0.44291670  0.56887578  1
  Tm  Tm17  1  0.25000000  0.06558711  0.42063427  1
  Tm  Tm18  1  0.25000000  0.09467853  0.74927077  1
  Tm  Tm19  1  0.25000000  0.56558711  0.07936573  1
  Tm  Tm20  1  0.75000000  0.93441289  0.57936573  1
  Tm  Tm21  1  0.75000000  0.05708330  0.06887578  1
  Tm  Tm22  1  0.75000000  0.55708330  0.43112422  1
  Tm  Tm23  1  0.25000000  0.59467853  0.75072923  1
  S  S24  1  0.25000000  0.23005986  0.67877150  1
  S  S25  1  0.25000000  0.45011081  0.69214212  1
  S  S26  1  0.25000000  0.20802396  0.48208648  1
  S  S27  1  0.75000000  0.54988919  0.30785788  1
  S  S28  1  0.25000000  0.32458070  0.31460100  1
  S  S29  1  0.75000000  0.84199027  0.93702626  1
  S  S30  1  0.25000000  0.04171591  0.55223290  1
  S  S31  1  0.25000000  0.35479057  0.85195897  1
  S  S32  1  0.75000000  0.95828409  0.44776710  1
  S  S33  1  0.75000000  0.04988919  0.19214212  1
  S  S34  1  0.75000000  0.79197604  0.51791352  1
  S  S35  1  0.75000000  0.14520943  0.35195897  1
  S  S36  1  0.75000000  0.55836350  0.55743705  1
  S  S37  1  0.75000000  0.05836350  0.94256295  1
  S  S38  1  0.25000000  0.65800973  0.43702626  1
  S  S39  1  0.25000000  0.96406305  0.31734269  1
  S  S40  1  0.25000000  0.94163650  0.05743705  1
  S  S41  1  0.25000000  0.46406305  0.18265731  1
  S  S42  1  0.25000000  0.15800973  0.06297374  1
  S  S43  1  0.75000000  0.03593695  0.68265731  1
  S  S44  1  0.25000000  0.73005986  0.82122850  1
  S  S45  1  0.25000000  0.95011081  0.80785788  1
  S  S46  1  0.75000000  0.76994014  0.32122850  1
  S  S47  1  0.75000000  0.53593695  0.81734269  1
  S  S48  1  0.75000000  0.45828409  0.05223290  1
  S  S49  1  0.75000000  0.64520943  0.14804103  1
  S  S50  1  0.75000000  0.17541930  0.81460100  1
  S  S51  1  0.75000000  0.67541930  0.68539900  1
  S  S52  1  0.75000000  0.29197604  0.98208648  1
  S  S53  1  0.25000000  0.85479057  0.64804103  1
  S  S54  1  0.75000000  0.34199027  0.56297374  1
  S  S55  1  0.75000000  0.26994014  0.17877150  1
  S  S56  1  0.25000000  0.70802396  0.01791352  1
  S  S57  1  0.25000000  0.44163650  0.44256295  1
  S  S58  1  0.25000000  0.82458070  0.18539900  1
  S  S59  1  0.25000000  0.54171591  0.94776710  1
