# generated using pymatgen
data_NbTl(BO3)2
_symmetry_space_group_name_H-M   'P 1'
_cell_length_a   7.43269109
_cell_length_b   7.82888590
_cell_length_c   9.46590527
_cell_angle_alpha   90.00000000
_cell_angle_beta   90.00000000
_cell_angle_gamma   90.00000000
_symmetry_Int_Tables_number   1
_chemical_formula_structural   NbTl(BO3)2
_chemical_formula_sum   'Nb4 Tl4 B8 O24'
_cell_volume   550.81809771
_cell_formula_units_Z   4
loop_
 _symmetry_equiv_pos_site_id
 _symmetry_equiv_pos_as_xyz
  1  'x, y, z'
loop_
 _atom_site_type_symbol
 _atom_site_label
 _atom_site_symmetry_multiplicity
 _atom_site_fract_x
 _atom_site_fract_y
 _atom_site_fract_z
 _atom_site_occupancy
  Nb  Nb0  1  0.23794667  0.84123764  0.13396201  1
  Nb  Nb1  1  0.73794667  0.65876236  0.63396201  1
  Nb  Nb2  1  0.76205333  0.15876236  0.63396201  1
  Nb  Nb3  1  0.26205333  0.34123764  0.13396201  1
  Tl  Tl4  1  0.26220145  0.00773410  0.74549058  1
  Tl  Tl5  1  0.76220145  0.49226590  0.24549058  1
  Tl  Tl6  1  0.73779855  0.99226590  0.24549058  1
  Tl  Tl7  1  0.23779855  0.50773410  0.74549058  1
  B  B8  1  0.42204414  0.21016100  0.42095050  1
  B  B9  1  0.09322364  0.26582821  0.42404380  1
  B  B10  1  0.90677636  0.73417179  0.92404380  1
  B  B11  1  0.40677636  0.76582821  0.42404380  1
  B  B12  1  0.07795586  0.71016100  0.42095050  1
  B  B13  1  0.57795586  0.78983900  0.92095050  1
  B  B14  1  0.92204414  0.28983900  0.92095050  1
  B  B15  1  0.59322364  0.23417179  0.92404380  1
  O  O16  1  0.44021259  0.85859842  0.99724101  1
  O  O17  1  0.68590131  0.43210417  0.63469270  1
  O  O18  1  0.09092646  0.35120612  0.29938976  1
  O  O19  1  0.59092646  0.14879388  0.79938976  1
  O  O20  1  0.25378822  0.21423236  0.48729260  1
  O  O21  1  0.05978741  0.35859842  0.99724101  1
  O  O22  1  0.05500270  0.76729306  0.28671302  1
  O  O23  1  0.74621178  0.78576764  0.98729260  1
  O  O24  1  0.43760966  0.27232759  0.99002303  1
  O  O25  1  0.44499730  0.26729306  0.28671302  1
  O  O26  1  0.06239034  0.77232759  0.99002303  1
  O  O27  1  0.40907354  0.85120612  0.29938976  1
  O  O28  1  0.94499730  0.23270694  0.78671302  1
  O  O29  1  0.94021259  0.64140158  0.49724101  1
  O  O30  1  0.93760966  0.22767241  0.49002303  1
  O  O31  1  0.18590131  0.06789583  0.13469270  1
  O  O32  1  0.81409869  0.93210417  0.63469270  1
  O  O33  1  0.31409869  0.56789583  0.13469270  1
  O  O34  1  0.55500270  0.73270694  0.78671302  1
  O  O35  1  0.75378822  0.28576764  0.98729260  1
  O  O36  1  0.56239034  0.72767241  0.49002303  1
  O  O37  1  0.24621178  0.71423236  0.48729260  1
  O  O38  1  0.55978741  0.14140158  0.49724101  1
  O  O39  1  0.90907354  0.64879388  0.79938976  1
