# generated using pymatgen
data_ZnSO4
_symmetry_space_group_name_H-M   'P 1'
_cell_length_a   4.75275201
_cell_length_b   6.66785586
_cell_length_c   8.60200284
_cell_angle_alpha   90.00000000
_cell_angle_beta   90.00000000
_cell_angle_gamma   90.00000000
_symmetry_Int_Tables_number   1
_chemical_formula_structural   ZnSO4
_chemical_formula_sum   'Zn4 S4 O16'
_cell_volume   272.60319326
_cell_formula_units_Z   4
loop_
 _symmetry_equiv_pos_site_id
 _symmetry_equiv_pos_as_xyz
  1  'x, y, z'
loop_
 _atom_site_type_symbol
 _atom_site_label
 _atom_site_symmetry_multiplicity
 _atom_site_fract_x
 _atom_site_fract_y
 _atom_site_fract_z
 _atom_site_occupancy
  Zn  Zn0  1  0.50000000  0.50000000  0.50000000  1
  Zn  Zn1  1  0.00000000  0.50000000  -0.00000000  1
  Zn  Zn2  1  0.50000000  -0.00000000  0.50000000  1
  Zn  Zn3  1  0.00000000  -0.00000000  -0.00000000  1
  S  S4  1  0.97150038  0.75000000  0.67862779  1
  S  S5  1  0.47150038  0.25000000  0.82137221  1
  S  S6  1  0.02849962  0.25000000  0.32137221  1
  S  S7  1  0.52849962  0.75000000  0.17862779  1
  O  O8  1  0.16594405  0.43328610  0.37479515  1
  O  O9  1  0.66594405  0.56671390  0.12520485  1
  O  O10  1  0.83405595  0.93328610  0.62520485  1
  O  O11  1  0.33405595  0.06671390  0.87479515  1
  O  O12  1  0.83405595  0.56671390  0.62520485  1
  O  O13  1  0.33405595  0.43328610  0.87479515  1
  O  O14  1  0.16594405  0.06671390  0.37479515  1
  O  O15  1  0.66594405  0.93328610  0.12520485  1
  O  O16  1  0.23210587  0.75000000  0.12629830  1
  O  O17  1  0.73210587  0.25000000  0.37370170  1
  O  O18  1  0.76789413  0.25000000  0.87370170  1
  O  O19  1  0.26789413  0.75000000  0.62629830  1
  O  O20  1  0.54665132  0.75000000  0.35282136  1
  O  O21  1  0.04665132  0.25000000  0.14717864  1
  O  O22  1  0.45334868  0.25000000  0.64717864  1
  O  O23  1  0.95334868  0.75000000  0.85282136  1
