# generated using pymatgen
data_K3BSb4O13
_symmetry_space_group_name_H-M   'P 1'
_cell_length_a   7.14439106
_cell_length_b   7.24622653
_cell_length_c   13.28336710
_cell_angle_alpha   81.91158759
_cell_angle_beta   80.16360820
_cell_angle_gamma   62.91183538
_symmetry_Int_Tables_number   1
_chemical_formula_structural   K3BSb4O13
_chemical_formula_sum   'K6 B2 Sb8 O26'
_cell_volume   601.69121907
_cell_formula_units_Z   2
loop_
 _symmetry_equiv_pos_site_id
 _symmetry_equiv_pos_as_xyz
  1  'x, y, z'
loop_
 _atom_site_type_symbol
 _atom_site_label
 _atom_site_symmetry_multiplicity
 _atom_site_fract_x
 _atom_site_fract_y
 _atom_site_fract_z
 _atom_site_occupancy
  K  K0  1  0.70654323  0.21589832  0.69461976  1
  K  K1  1  0.09889466  0.60117026  0.55883959  1
  K  K2  1  0.30680035  0.78080638  0.03095342  1
  K  K3  1  0.29345677  0.78410168  0.30538024  1
  K  K4  1  0.69319965  0.21919362  0.96904658  1
  K  K5  1  0.90110534  0.39882974  0.44116041  1
  B  B6  1  0.84042735  0.73011037  0.97742558  1
  B  B7  1  0.15957265  0.26988963  0.02257442  1
  Sb  Sb8  1  0.68130166  0.69174803  0.78718114  1
  Sb  Sb9  1  0.16294976  0.20978800  0.79028854  1
  Sb  Sb10  1  0.83225467  0.29352377  0.20640334  1
  Sb  Sb11  1  0.83705024  0.79021200  0.20971146  1
  Sb  Sb12  1  0.16774533  0.70647623  0.79359666  1
  Sb  Sb13  1  0.31869834  0.30825197  0.21281886  1
  Sb  Sb14  1  0.58016868  0.06593563  0.39490874  1
  Sb  Sb15  1  0.41983132  0.93406437  0.60509126  1
  O  O16  1  0.53759865  0.01316138  0.25089092  1
  O  O17  1  0.83877039  0.80441223  0.36135014  1
  O  O18  1  0.74129724  0.22426368  0.34992096  1
  O  O19  1  0.13673092  0.60263445  0.19216963  1
  O  O20  1  0.55300067  0.38354539  0.15929685  1
  O  O21  1  0.67625617  0.75164066  0.92763993  1
  O  O22  1  0.25870276  0.77573632  0.65007904  1
  O  O23  1  0.05071081  0.65101751  0.93599293  1
  O  O24  1  0.16122961  0.19558777  0.63864986  1
  O  O25  1  0.44699933  0.61645461  0.84070315  1
  O  O26  1  0.86326908  0.39736555  0.80783037  1
  O  O27  1  0.26868501  0.41952228  0.75299828  1
  O  O28  1  0.67514970  0.67306668  0.63794728  1
  O  O29  1  0.73131499  0.58047772  0.24700172  1
  O  O30  1  0.59201225  0.08516130  0.53935344  1
  O  O31  1  0.89654171  0.78997173  0.74036345  1
  O  O32  1  0.94928919  0.34898249  0.06400707  1
  O  O33  1  0.77221867  0.81914012  0.06956880  1
  O  O34  1  0.32374383  0.24835934  0.07236007  1
  O  O35  1  0.06344742  0.99447044  0.83160997  1
  O  O36  1  0.10345829  0.21002827  0.25963655  1
  O  O37  1  0.93655258  0.00552956  0.16839003  1
  O  O38  1  0.40798775  0.91483870  0.46064656  1
  O  O39  1  0.22778133  0.18085988  0.93043120  1
  O  O40  1  0.46240135  0.98683862  0.74910908  1
  O  O41  1  0.32485030  0.32693332  0.36205272  1
