# generated using pymatgen
data_KNaPrNbO5
_symmetry_space_group_name_H-M   'P 1'
_cell_length_a   5.76781264
_cell_length_b   5.76781264
_cell_length_c   8.28723383
_cell_angle_alpha   90.00000000
_cell_angle_beta   90.00000000
_cell_angle_gamma   90.00000000
_symmetry_Int_Tables_number   1
_chemical_formula_structural   KNaPrNbO5
_chemical_formula_sum   'K2 Na2 Pr2 Nb2 O10'
_cell_volume   275.69689936
_cell_formula_units_Z   2
loop_
 _symmetry_equiv_pos_site_id
 _symmetry_equiv_pos_as_xyz
  1  'x, y, z'
loop_
 _atom_site_type_symbol
 _atom_site_label
 _atom_site_symmetry_multiplicity
 _atom_site_fract_x
 _atom_site_fract_y
 _atom_site_fract_z
 _atom_site_occupancy
  K  K0  1  -0.00000000  -0.00000000  0.00000000  1
  K  K1  1  0.50000000  0.50000000  0.00000000  1
  Na  Na2  1  0.50000000  0.00000000  0.75922627  1
  Na  Na3  1  -0.00000000  0.50000000  0.24077373  1
  Pr  Pr4  1  0.50000000  0.50000000  0.50000000  1
  Pr  Pr5  1  -0.00000000  0.00000000  0.50000000  1
  Nb  Nb6  1  -0.00000000  0.50000000  0.74537696  1
  Nb  Nb7  1  0.50000000  -0.00000000  0.25462304  1
  O  O8  1  0.73146081  0.23146081  0.32635557  1
  O  O9  1  0.76853919  0.73146081  0.67364443  1
  O  O10  1  0.73146081  0.76853919  0.32635557  1
  O  O11  1  0.76853919  0.26853919  0.67364443  1
  O  O12  1  0.26853919  0.23146081  0.32635557  1
  O  O13  1  0.50000000  -0.00000000  0.03050784  1
  O  O14  1  -0.00000000  0.50000000  0.96949216  1
  O  O15  1  0.26853919  0.76853919  0.32635557  1
  O  O16  1  0.23146081  0.26853919  0.67364443  1
  O  O17  1  0.23146081  0.73146081  0.67364443  1
