# generated using pymatgen
data_CsNO3
_symmetry_space_group_name_H-M   'P 1'
_cell_length_a   10.84690041
_cell_length_b   10.84480427
_cell_length_c   7.68083280
_cell_angle_alpha   89.99256164
_cell_angle_beta   89.99247834
_cell_angle_gamma   119.99233959
_symmetry_Int_Tables_number   1
_chemical_formula_structural   CsNO3
_chemical_formula_sum   'Cs9 N9 O27'
_cell_volume   782.52787619
_cell_formula_units_Z   9
loop_
 _symmetry_equiv_pos_site_id
 _symmetry_equiv_pos_as_xyz
  1  'x, y, z'
loop_
 _atom_site_type_symbol
 _atom_site_label
 _atom_site_symmetry_multiplicity
 _atom_site_fract_x
 _atom_site_fract_y
 _atom_site_fract_z
 _atom_site_occupancy
  Cs  Cs0  1  0.77821308  0.22028473  0.64845374  1
  Cs  Cs1  1  0.11902122  0.89738891  0.62299557  1
  Cs  Cs2  1  0.77967000  0.55765190  0.98158965  1
  Cs  Cs3  1  0.77844429  0.88128665  0.28951252  1
  Cs  Cs4  1  0.43230225  0.54373607  0.66578815  1
  Cs  Cs5  1  0.11168914  0.56761754  0.33288678  1
  Cs  Cs6  1  0.10293477  0.22145911  0.95618658  1
  Cs  Cs7  1  0.45593628  0.88811960  -0.00049423  1
  Cs  Cs8  1  0.44225518  0.22167421  0.31461403  1
  N  N9  1  0.13528931  0.56635934  0.86478673  1
  N  N10  1  0.80098602  0.90669899  0.75805891  1
  N  N11  1  0.10551113  0.19898937  0.42424651  1
  N  N12  1  0.09352517  0.89451597  0.09098822  1
  N  N13  1  0.43366290  0.56895056  0.19762324  1
  N  N14  1  0.43096922  0.86456503  0.53146295  1
  N  N15  1  0.46957234  0.20450566  0.84037668  1
  N  N16  1  0.79547515  0.26477608  0.17401287  1
  N  N17  1  0.73489722  0.53079022  0.50672765  1
  O  O18  1  0.34262900  0.44320843  0.23791677  1
  O  O19  1  0.02244616  0.24425456  0.38563533  1
  O  O20  1  0.10953002  0.10567586  0.32840191  1
  O  O21  1  0.56716497  0.21820334  0.94356391  1
  O  O22  1  0.22838203  0.55669527  0.95450990  1
  O  O23  1  0.55652453  0.89890798  0.57216147  1
  O  O24  1  0.68261293  0.56370785  0.38021026  1
  O  O25  1  0.86639373  0.59260950  0.53189775  1
  O  O26  1  0.99631095  0.89057067  0.99500009  1
  O  O27  1  0.78184151  0.34874954  0.27716388  1
  O  O28  1  0.22186202  0.97752511  0.05240512  1
  O  O29  1  0.07914964  0.48467142  0.73710902  1
  O  O30  1  0.51558537  0.59522681  0.06998060  1
  O  O31  1  0.10105194  0.65764400  0.90571323  1
  O  O32  1  0.05931663  0.81547464  0.22267631  1
  O  O33  1  0.65131732  0.43298043  0.60992954  1
  O  O34  1  0.89439036  0.00342410  0.66164194  1
  O  O35  1  0.44287089  0.67126873  0.28794038  1
  O  O36  1  0.75642535  0.94166413  0.88935341  1
  O  O37  1  0.72519830  0.13328389  0.19937217  1
  O  O38  1  0.32835124  0.77141009  0.62134970  1
  O  O39  1  0.40520580  0.92064891  0.40384428  1
  O  O40  1  0.40798719  0.27440750  0.86595973  1
  O  O41  1  0.75525314  0.77814431  0.72034724  1
  O  O42  1  0.43666427  0.11966087  0.71352138  1
  O  O43  1  0.88062123  0.31665738  0.04740125  1
  O  O44  1  0.18455683  0.24395476  0.55587586  1
