# generated using pymatgen
data_Ca4CN4
_symmetry_space_group_name_H-M   'P 1'
_cell_length_a   3.56362109
_cell_length_b   11.42106586
_cell_length_c   13.92057993
_cell_angle_alpha   90.00000000
_cell_angle_beta   90.00000000
_cell_angle_gamma   90.00000000
_symmetry_Int_Tables_number   1
_chemical_formula_structural   Ca4CN4
_chemical_formula_sum   'Ca16 C4 N16'
_cell_volume   566.57249163
_cell_formula_units_Z   4
loop_
 _symmetry_equiv_pos_site_id
 _symmetry_equiv_pos_as_xyz
  1  'x, y, z'
loop_
 _atom_site_type_symbol
 _atom_site_label
 _atom_site_symmetry_multiplicity
 _atom_site_fract_x
 _atom_site_fract_y
 _atom_site_fract_z
 _atom_site_occupancy
  Ca  Ca0  1  0.25000000  0.63857799  0.26045131  1
  Ca  Ca1  1  0.75000000  0.36142201  0.73954869  1
  Ca  Ca2  1  0.25000000  0.13857799  0.23954869  1
  Ca  Ca3  1  0.75000000  0.86142201  0.76045131  1
  Ca  Ca4  1  0.25000000  0.87631170  0.38287551  1
  Ca  Ca5  1  0.75000000  0.12368830  0.61712449  1
  Ca  Ca6  1  0.25000000  0.37631170  0.11712449  1
  Ca  Ca7  1  0.75000000  0.62368830  0.88287551  1
  Ca  Ca8  1  0.25000000  0.37967340  0.54051216  1
  Ca  Ca9  1  0.75000000  0.62032660  0.45948784  1
  Ca  Ca10  1  0.25000000  0.87967340  0.95948784  1
  Ca  Ca11  1  0.75000000  0.12032660  0.04051216  1
  Ca  Ca12  1  0.25000000  0.61550519  0.67029379  1
  Ca  Ca13  1  0.75000000  0.38449481  0.32970621  1
  Ca  Ca14  1  0.25000000  0.11550519  0.82970621  1
  Ca  Ca15  1  0.75000000  0.88449481  0.17029379  1
  C  C16  1  0.25000000  0.86119288  0.58639311  1
  C  C17  1  0.75000000  0.13880712  0.41360689  1
  C  C18  1  0.25000000  0.36119288  0.91360689  1
  C  C19  1  0.75000000  0.63880712  0.08639311  1
  N  N20  1  0.25000000  0.95435583  0.63200200  1
  N  N21  1  0.75000000  0.04564417  0.36799800  1
  N  N22  1  0.25000000  0.45435583  0.86799800  1
  N  N23  1  0.75000000  0.54564417  0.13200200  1
  N  N24  1  0.25000000  0.76865142  0.54044657  1
  N  N25  1  0.75000000  0.23134858  0.45955343  1
  N  N26  1  0.25000000  0.26865142  0.95955343  1
  N  N27  1  0.75000000  0.73134858  0.04044657  1
  N  N28  1  0.25000000  0.49896217  0.38384339  1
  N  N29  1  0.75000000  0.50103783  0.61615661  1
  N  N30  1  0.25000000  0.99896217  0.11615661  1
  N  N31  1  0.75000000  0.00103783  0.88384339  1
  N  N32  1  0.75000000  0.26587127  0.18565668  1
  N  N33  1  0.25000000  0.73412873  0.81434332  1
  N  N34  1  0.75000000  0.76587127  0.31434332  1
  N  N35  1  0.25000000  0.23412873  0.68565668  1
