# generated using pymatgen
data_SbN9
_symmetry_space_group_name_H-M   'P 1'
_cell_length_a   7.85422738
_cell_length_b   7.85422772
_cell_length_c   7.85422770
_cell_angle_alpha   54.25926567
_cell_angle_beta   54.25926821
_cell_angle_gamma   54.25927327
_symmetry_Int_Tables_number   1
_chemical_formula_structural   SbN9
_chemical_formula_sum   'Sb2 N18'
_cell_volume   296.71092509
_cell_formula_units_Z   2
loop_
 _symmetry_equiv_pos_site_id
 _symmetry_equiv_pos_as_xyz
  1  'x, y, z'
loop_
 _atom_site_type_symbol
 _atom_site_label
 _atom_site_symmetry_multiplicity
 _atom_site_fract_x
 _atom_site_fract_y
 _atom_site_fract_z
 _atom_site_occupancy
  Sb  Sb0  1  0.69010833  0.69010833  0.69010833  1
  Sb  Sb1  1  0.30989167  0.30989167  0.30989167  1
  N  N2  1  0.63342493  0.38018080  0.86656003  1
  N  N3  1  0.86656003  0.63342493  0.38018080  1
  N  N4  1  0.38018080  0.86656003  0.63342493  1
  N  N5  1  0.36657507  0.61981920  0.13343997  1
  N  N6  1  0.13343997  0.36657507  0.61981920  1
  N  N7  1  0.61981920  0.13343997  0.36657507  1
  N  N8  1  0.73595025  0.26194647  0.75754751  1
  N  N9  1  0.75754751  0.73595025  0.26194647  1
  N  N10  1  0.26194647  0.75754751  0.73595025  1
  N  N11  1  0.26404975  0.73805353  0.24245249  1
  N  N12  1  0.24245249  0.26404975  0.73805353  1
  N  N13  1  0.73805353  0.24245249  0.26404975  1
  N  N14  1  0.83086161  0.14858316  0.65873551  1
  N  N15  1  0.65873551  0.83086161  0.14858316  1
  N  N16  1  0.14858316  0.65873551  0.83086161  1
  N  N17  1  0.16913839  0.85141684  0.34126449  1
  N  N18  1  0.34126449  0.16913839  0.85141684  1
  N  N19  1  0.85141684  0.34126449  0.16913839  1
