# generated using pymatgen
data_K2In2Sb3
_symmetry_space_group_name_H-M   'P 1'
_cell_length_a   7.64662996
_cell_length_b   15.45575742
_cell_length_c   16.93015007
_cell_angle_alpha   89.54927492
_cell_angle_beta   90.00000000
_cell_angle_gamma   90.00000000
_symmetry_Int_Tables_number   1
_chemical_formula_structural   K2In2Sb3
_chemical_formula_sum   'K16 In16 Sb24'
_cell_volume   2000.81869411
_cell_formula_units_Z   8
loop_
 _symmetry_equiv_pos_site_id
 _symmetry_equiv_pos_as_xyz
  1  'x, y, z'
loop_
 _atom_site_type_symbol
 _atom_site_label
 _atom_site_symmetry_multiplicity
 _atom_site_fract_x
 _atom_site_fract_y
 _atom_site_fract_z
 _atom_site_occupancy
  K  K0  1  0.46454267  0.92205346  0.88680195  1
  K  K1  1  0.05508068  0.44138499  0.10294439  1
  K  K2  1  0.46497777  0.14256438  0.50839043  1
  K  K3  1  0.94783883  0.34579858  0.52239898  1
  K  K4  1  0.96497777  0.85743562  0.99160957  1
  K  K5  1  0.55508068  0.55861501  0.39705561  1
  K  K6  1  0.96454267  0.07794654  0.61319805  1
  K  K7  1  0.53502223  0.85743562  0.49160957  1
  K  K8  1  0.03545733  0.92205346  0.38680195  1
  K  K9  1  0.44491932  0.44138499  0.60294439  1
  K  K10  1  0.53545733  0.07794654  0.11319805  1
  K  K11  1  0.55216117  0.34579858  0.02239898  1
  K  K12  1  0.03502223  0.14256438  0.00839043  1
  K  K13  1  0.94491932  0.55861501  0.89705561  1
  K  K14  1  0.05216117  0.65420142  0.47760102  1
  K  K15  1  0.44783883  0.65420142  0.97760102  1
  In  In16  1  0.26395385  0.59229102  0.74030825  1
  In  In17  1  0.76395385  0.40770898  0.75969175  1
  In  In18  1  0.23604615  0.59229102  0.24030825  1
  In  In19  1  0.77970383  0.68360081  0.66446243  1
  In  In20  1  0.78703563  0.90766995  0.72849708  1
  In  In21  1  0.21296437  0.09233005  0.27150292  1
  In  In22  1  0.73604615  0.40770898  0.25969175  1
  In  In23  1  0.72029617  0.68360081  0.16446243  1
  In  In24  1  0.71296437  0.90766995  0.22849708  1
  In  In25  1  0.28703563  0.09233005  0.77150292  1
  In  In26  1  0.22029617  0.31639919  0.33553757  1
  In  In27  1  0.73768233  0.18261296  0.32728316  1
  In  In28  1  0.76231767  0.18261296  0.82728316  1
  In  In29  1  0.23768233  0.81738704  0.17271684  1
  In  In30  1  0.27970383  0.31639919  0.83553757  1
  In  In31  1  0.26231767  0.81738704  0.67271684  1
  Sb  Sb32  1  0.83643654  0.25070630  0.17346189  1
  Sb  Sb33  1  0.46318707  0.97442176  0.66863471  1
  Sb  Sb34  1  0.53681293  0.02557824  0.33136529  1
  Sb  Sb35  1  0.71313351  0.75028032  0.32199257  1
  Sb  Sb36  1  0.03681293  0.97442176  0.16863471  1
  Sb  Sb37  1  0.33643654  0.74929370  0.32653811  1
  Sb  Sb38  1  0.03359156  0.47831591  0.34153876  1
  Sb  Sb39  1  0.53359156  0.52168409  0.15846124  1
  Sb  Sb40  1  0.94523646  0.83838958  0.58820259  1
  Sb  Sb41  1  0.21313351  0.24971968  0.17800743  1
  Sb  Sb42  1  0.05476354  0.16161042  0.41179741  1
  Sb  Sb43  1  0.43674235  0.66727459  0.60360697  1
  Sb  Sb44  1  0.93674235  0.33272541  0.89639303  1
  Sb  Sb45  1  0.16356346  0.74929370  0.82653811  1
  Sb  Sb46  1  0.28686649  0.24971968  0.67800743  1
  Sb  Sb47  1  0.55476354  0.83838958  0.08820259  1
  Sb  Sb48  1  0.78686649  0.75028032  0.82199257  1
  Sb  Sb49  1  0.96318707  0.02557824  0.83136529  1
  Sb  Sb50  1  0.44523646  0.16161042  0.91179741  1
  Sb  Sb51  1  0.46640844  0.47831591  0.84153876  1
  Sb  Sb52  1  0.06325765  0.66727459  0.10360697  1
  Sb  Sb53  1  0.96640844  0.52168409  0.65846124  1
  Sb  Sb54  1  0.66356346  0.25070630  0.67346189  1
  Sb  Sb55  1  0.56325765  0.33272541  0.39639303  1
