# generated using pymatgen
data_CdI2
_symmetry_space_group_name_H-M   'P 1'
_cell_length_a   4.28870281
_cell_length_b   4.28870354
_cell_length_c   21.84684629
_cell_angle_alpha   90.00000000
_cell_angle_beta   90.00000000
_cell_angle_gamma   120.00000244
_symmetry_Int_Tables_number   1
_chemical_formula_structural   CdI2
_chemical_formula_sum   'Cd3 I6'
_cell_volume   347.99367704
_cell_formula_units_Z   3
loop_
 _symmetry_equiv_pos_site_id
 _symmetry_equiv_pos_as_xyz
  1  'x, y, z'
loop_
 _atom_site_type_symbol
 _atom_site_label
 _atom_site_symmetry_multiplicity
 _atom_site_fract_x
 _atom_site_fract_y
 _atom_site_fract_z
 _atom_site_occupancy
  Cd  Cd0  1  0.66666700  0.33333300  0.33312024  1
  Cd  Cd1  1  0.33333300  0.66666700  0.66687976  1
  Cd  Cd2  1  -0.00000000  -0.00000000  0.00000000  1
  I  I3  1  0.33333300  0.66666700  0.07886680  1
  I  I4  1  0.33333300  0.66666700  0.41169574  1
  I  I5  1  0.66666700  0.33333300  0.92113320  1
  I  I6  1  0.66666700  0.33333300  0.58830426  1
  I  I7  1  -0.00000000  -0.00000000  0.25439532  1
  I  I8  1  -0.00000000  0.00000000  0.74560468  1
