# generated using pymatgen
data_Dy2CdSe4
_symmetry_space_group_name_H-M   'P 1'
_cell_length_a   8.28732726
_cell_length_b   8.28732813
_cell_length_c   8.28732821
_cell_angle_alpha   59.99999971
_cell_angle_beta   59.99999623
_cell_angle_gamma   59.99999620
_symmetry_Int_Tables_number   1
_chemical_formula_structural   Dy2CdSe4
_chemical_formula_sum   'Dy4 Cd2 Se8'
_cell_volume   402.46538965
_cell_formula_units_Z   2
loop_
 _symmetry_equiv_pos_site_id
 _symmetry_equiv_pos_as_xyz
  1  'x, y, z'
loop_
 _atom_site_type_symbol
 _atom_site_label
 _atom_site_symmetry_multiplicity
 _atom_site_fract_x
 _atom_site_fract_y
 _atom_site_fract_z
 _atom_site_occupancy
  Dy  Dy0  1  0.50000000  0.50000000  0.00000000  1
  Dy  Dy1  1  -0.00000000  0.50000000  0.50000000  1
  Dy  Dy2  1  0.50000000  -0.00000000  0.50000000  1
  Dy  Dy3  1  0.50000000  0.50000000  0.50000000  1
  Cd  Cd4  1  0.12500000  0.12500000  0.12500000  1
  Cd  Cd5  1  0.87500000  0.87500000  0.87500000  1
  Se  Se6  1  0.26969570  0.74343510  0.74343510  1
  Se  Se7  1  0.25656490  0.25656490  0.73030430  1
  Se  Se8  1  0.25656490  0.73030430  0.25656490  1
  Se  Se9  1  0.74343510  0.74343510  0.74343510  1
  Se  Se10  1  0.25656490  0.25656490  0.25656490  1
  Se  Se11  1  0.74343510  0.74343510  0.26969570  1
  Se  Se12  1  0.73030430  0.25656490  0.25656490  1
  Se  Se13  1  0.74343510  0.26969570  0.74343510  1
