# generated using pymatgen
data_ZnS
_symmetry_space_group_name_H-M   'P 1'
_cell_length_a   3.80650106
_cell_length_b   3.80650204
_cell_length_c   56.08026041
_cell_angle_alpha   90.00000000
_cell_angle_beta   90.00000000
_cell_angle_gamma   120.00000031
_symmetry_Int_Tables_number   1
_chemical_formula_structural   ZnS
_chemical_formula_sum   'Zn18 S18'
_cell_volume   703.70830167
_cell_formula_units_Z   18
loop_
 _symmetry_equiv_pos_site_id
 _symmetry_equiv_pos_as_xyz
  1  'x, y, z'
loop_
 _atom_site_type_symbol
 _atom_site_label
 _atom_site_symmetry_multiplicity
 _atom_site_fract_x
 _atom_site_fract_y
 _atom_site_fract_z
 _atom_site_occupancy
  Zn  Zn0  1  0.00000000  -0.00000000  0.16671102  1
  Zn  Zn1  1  0.00000000  0.00000000  0.55555605  1
  Zn  Zn2  1  0.33333300  0.66666700  0.72224112  1
  Zn  Zn3  1  0.66666700  0.33333300  0.27780798  1
  Zn  Zn4  1  -0.00000000  0.00000000  0.66672725  1
  Zn  Zn5  1  0.33333300  0.66666700  0.05560316  1
  Zn  Zn6  1  0.66666700  0.33333300  0.61113716  1
  Zn  Zn7  1  0.66666700  0.33333300  0.11115646  1
  Zn  Zn8  1  0.66666700  0.33333300  0.44447741  1
  Zn  Zn9  1  0.33333300  0.66666700  0.22226349  1
  Zn  Zn10  1  0.66666700  0.33333300  0.77779978  1
  Zn  Zn11  1  0.66666700  0.33333300  0.94448131  1
  Zn  Zn12  1  0.33333300  0.66666700  0.38890759  1
  Zn  Zn13  1  0.00000000  -0.00000000  0.33336357  1
  Zn  Zn14  1  0.33333300  0.66666700  0.83339560  1
  Zn  Zn15  1  -0.00000000  -0.00000000  0.00006668  1
  Zn  Zn16  1  0.33333300  0.66666700  0.50006226  1
  Zn  Zn17  1  0.00000000  0.00000000  0.88890743  1
  S  S18  1  0.66666700  0.33333300  0.98611789  1
  S  S19  1  0.33333300  0.66666700  0.54162208  1
  S  S20  1  0.33333300  0.66666700  0.43047892  1
  S  S21  1  0.00000000  -0.00000000  0.04165013  1
  S  S22  1  0.66666700  0.33333300  0.48611877  1
  S  S23  1  0.66666700  0.33333300  0.65277989  1
  S  S24  1  0.66666700  0.33333300  0.15275473  1
  S  S25  1  0.33333300  0.66666700  0.76380356  1
  S  S26  1  -0.00000000  0.00000000  0.70830527  1
  S  S27  1  0.66666700  0.33333300  0.81943821  1
  S  S28  1  0.00000000  0.00000000  0.37496664  1
  S  S29  1  0.00000000  0.00000000  0.93047043  1
  S  S30  1  -0.00000000  0.00000000  0.59712036  1
  S  S31  1  0.33333300  0.66666700  0.26386087  1
  S  S32  1  0.33333300  0.66666700  0.87496073  1
  S  S33  1  0.33333300  0.66666700  0.09720227  1
  S  S34  1  0.66666700  0.33333300  0.31940797  1
  S  S35  1  -0.00000000  0.00000000  0.20831295  1
