# generated using pymatgen
data_Rb2YGa(SiO3)4
_symmetry_space_group_name_H-M   'P 1'
_cell_length_a   13.94815543
_cell_length_b   13.94815543
_cell_length_c   14.88542854
_cell_angle_alpha   58.06725840
_cell_angle_beta   58.06725840
_cell_angle_gamma   30.22180306
_symmetry_Int_Tables_number   1
_chemical_formula_structural   Rb2YGa(SiO3)4
_chemical_formula_sum   'Rb8 Y4 Ga4 Si16 O48'
_cell_volume   1219.44964134
_cell_formula_units_Z   4
loop_
 _symmetry_equiv_pos_site_id
 _symmetry_equiv_pos_as_xyz
  1  'x, y, z'
loop_
 _atom_site_type_symbol
 _atom_site_label
 _atom_site_symmetry_multiplicity
 _atom_site_fract_x
 _atom_site_fract_y
 _atom_site_fract_z
 _atom_site_occupancy
  Rb  Rb0  1  0.30034074  0.76974970  0.54620612  1
  Rb  Rb1  1  0.31487297  0.30316891  0.96568077  1
  Rb  Rb2  1  0.30316891  0.31487297  0.46568077  1
  Rb  Rb3  1  0.23025030  0.69965926  0.95379388  1
  Rb  Rb4  1  0.69965926  0.23025030  0.45379388  1
  Rb  Rb5  1  0.76974970  0.30034074  0.04620612  1
  Rb  Rb6  1  0.69683109  0.68512703  0.53431923  1
  Rb  Rb7  1  0.68512703  0.69683109  0.03431923  1
  Y  Y8  1  0.48629269  0.05149501  0.75033378  1
  Y  Y9  1  0.51370731  0.94850499  0.24966622  1
  Y  Y10  1  0.94850499  0.51370731  0.74966622  1
  Y  Y11  1  0.05149501  0.48629269  0.25033378  1
  Ga  Ga12  1  0.77126375  0.36806724  0.77461513  1
  Ga  Ga13  1  0.36806724  0.77126375  0.27461513  1
  Ga  Ga14  1  0.22873625  0.63193276  0.22538487  1
  Ga  Ga15  1  0.63193276  0.22873625  0.72538487  1
  Si  Si16  1  0.13957251  0.18731799  0.20290824  1
  Si  Si17  1  0.18731799  0.13957251  0.70290824  1
  Si  Si18  1  0.86040662  0.80216294  0.01038186  1
  Si  Si19  1  0.76017727  0.47915966  0.33892808  1
  Si  Si20  1  0.23982273  0.52084034  0.66107192  1
  Si  Si21  1  0.19783706  0.13959338  0.48961814  1
  Si  Si22  1  0.28858346  0.83591916  0.07771424  1
  Si  Si23  1  0.52084034  0.23982273  0.16107192  1
  Si  Si24  1  0.47915966  0.76017727  0.83892808  1
  Si  Si25  1  0.16408084  0.71141654  0.42228576  1
  Si  Si26  1  0.83591916  0.28858346  0.57771424  1
  Si  Si27  1  0.80216294  0.86040662  0.51038186  1
  Si  Si28  1  0.13959338  0.19783706  0.98961814  1
  Si  Si29  1  0.81268201  0.86042749  0.29709176  1
  Si  Si30  1  0.71141654  0.16408084  0.92228576  1
  Si  Si31  1  0.86042749  0.81268201  0.79709176  1
  O  O32  1  0.17452259  0.83633806  0.37967630  1
  O  O33  1  0.75787509  0.79620786  0.29671213  1
  O  O34  1  0.25048433  0.56470628  0.53279925  1
  O  O35  1  0.33181628  0.95189334  0.22716407  1
  O  O36  1  0.35073662  0.07428747  0.92364583  1
  O  O37  1  0.70577767  0.42771541  0.65912835  1
  O  O38  1  0.29422233  0.57228459  0.34087165  1
  O  O39  1  0.43731381  0.41842320  0.16355158  1
  O  O40  1  0.57228459  0.29422233  0.84087165  1
  O  O41  1  0.91625618  0.72706537  0.91348226  1
  O  O42  1  0.58157680  0.56268619  0.33644842  1
  O  O43  1  0.42771541  0.70577767  0.15912835  1
  O  O44  1  0.04357337  0.73001287  0.70290302  1
  O  O45  1  0.24212491  0.20379214  0.70328787  1
  O  O46  1  0.93757445  0.86605863  0.44208351  1
  O  O47  1  0.20379214  0.24212491  0.20328787  1
  O  O48  1  0.41842320  0.43731381  0.66355158  1
  O  O49  1  0.95642663  0.26998713  0.29709698  1
  O  O50  1  0.61888225  0.03344654  0.57809850  1
  O  O51  1  0.95189334  0.33181628  0.72716407  1
  O  O52  1  0.79620786  0.75787509  0.79671213  1
  O  O53  1  0.23791353  0.38686317  0.72723490  1
  O  O54  1  0.64926338  0.92571253  0.07635417  1
  O  O55  1  0.56470628  0.25048433  0.03279925  1
  O  O56  1  0.06242555  0.13394137  0.55791649  1
  O  O57  1  0.27293463  0.08374382  0.58651774  1
  O  O58  1  0.73001287  0.04357337  0.20290302  1
  O  O59  1  0.13394137  0.06242555  0.05791649  1
  O  O60  1  0.92571253  0.64926338  0.57635417  1
  O  O61  1  0.38111775  0.96655346  0.42190150  1
  O  O62  1  0.76208647  0.61313683  0.27276510  1
  O  O63  1  0.43529372  0.74951567  0.96720075  1
  O  O64  1  0.04810666  0.66818372  0.27283593  1
  O  O65  1  0.26998713  0.95642663  0.79709698  1
  O  O66  1  0.74951567  0.43529372  0.46720075  1
  O  O67  1  0.03344654  0.61888225  0.07809850  1
  O  O68  1  0.56268619  0.58157680  0.83644842  1
  O  O69  1  0.61313683  0.76208647  0.77276510  1
  O  O70  1  0.66818372  0.04810666  0.77283593  1
  O  O71  1  0.07428747  0.35073662  0.42364583  1
  O  O72  1  0.86605863  0.93757445  0.94208351  1
  O  O73  1  0.16366194  0.82547741  0.12032370  1
  O  O74  1  0.72706537  0.91625618  0.41348226  1
  O  O75  1  0.08374382  0.27293463  0.08651774  1
  O  O76  1  0.96655346  0.38111775  0.92190150  1
  O  O77  1  0.38686317  0.23791353  0.22723490  1
  O  O78  1  0.82547741  0.16366194  0.62032370  1
  O  O79  1  0.83633806  0.17452259  0.87967630  1
