# generated using pymatgen
data_Se
_symmetry_space_group_name_H-M   'P 1'
_cell_length_a   9.44550464
_cell_length_b   14.78493939
_cell_length_c   15.31824251
_cell_angle_alpha   90.00000000
_cell_angle_beta   93.46674347
_cell_angle_gamma   90.00000000
_symmetry_Int_Tables_number   1
_chemical_formula_structural   Se
_chemical_formula_sum   Se64
_cell_volume   2135.29653909
_cell_formula_units_Z   64
loop_
 _symmetry_equiv_pos_site_id
 _symmetry_equiv_pos_as_xyz
  1  'x, y, z'
loop_
 _atom_site_type_symbol
 _atom_site_label
 _atom_site_symmetry_multiplicity
 _atom_site_fract_x
 _atom_site_fract_y
 _atom_site_fract_z
 _atom_site_occupancy
  Se  Se0  1  0.16581030  0.83308821  0.08915907  1
  Se  Se1  1  0.96263048  0.85904742  0.81656881  1
  Se  Se2  1  0.36720616  0.23507614  0.68836020  1
  Se  Se3  1  0.85103504  0.70693955  0.52574195  1
  Se  Se4  1  0.35202563  0.98859060  0.90990316  1
  Se  Se5  1  0.11349229  0.72089911  0.98405300  1
  Se  Se6  1  0.59449256  0.35038179  0.52844973  1
  Se  Se7  1  0.46263048  0.64095258  0.81656881  1
  Se  Se8  1  0.61349229  0.77910089  0.98405300  1
  Se  Se9  1  0.66581030  0.66691179  0.08915907  1
  Se  Se10  1  0.90550744  0.85038179  0.47155027  1
  Se  Se11  1  0.22453039  0.04456771  0.22858366  1
  Se  Se12  1  0.13279384  0.73507614  0.31163980  1
  Se  Se13  1  0.03736952  0.14095258  0.18343119  1
  Se  Se14  1  0.53736952  0.35904742  0.18343119  1
  Se  Se15  1  0.65019176  0.52634277  0.35518111  1
  Se  Se16  1  0.26682818  0.59746947  0.01077074  1
  Se  Se17  1  0.23317182  0.09746947  0.98922926  1
  Se  Se18  1  0.50490100  0.68956541  0.19727538  1
  Se  Se19  1  0.94211870  0.41617790  0.69271021  1
  Se  Se20  1  0.75891788  0.45453701  0.47871386  1
  Se  Se21  1  0.55788130  0.91617790  0.30728979  1
  Se  Se22  1  0.09449256  0.14961821  0.52844973  1
  Se  Se23  1  0.23195779  0.50420581  0.23661266  1
  Se  Se24  1  0.38650771  0.22089911  0.01594700  1
  Se  Se25  1  0.05788130  0.58382210  0.30728979  1
  Se  Se26  1  -0.00490100  0.18956541  0.80272462  1
  Se  Se27  1  0.85202563  0.51140940  0.90990316  1
  Se  Se28  1  0.24108212  0.54546299  0.52128614  1
  Se  Se29  1  0.14797437  0.48859060  0.09009684  1
  Se  Se30  1  0.84980824  0.02634277  0.64481889  1
  Se  Se31  1  0.10889850  0.28676247  0.22806770  1
  Se  Se32  1  0.01041222  0.67927827  0.64577952  1
  Se  Se33  1  0.34980824  0.47365723  0.64481889  1
  Se  Se34  1  0.88650771  0.27910089  0.01594700  1
  Se  Se35  1  0.64797437  0.01140940  0.09009684  1
  Se  Se36  1  0.44211870  0.08382210  0.69271021  1
  Se  Se37  1  0.00490100  0.81043459  0.19727538  1
  Se  Se38  1  0.48958778  0.17927827  0.35422048  1
  Se  Se39  1  0.39110150  0.78676247  0.77193230  1
  Se  Se40  1  0.86720616  0.26492386  0.68836020  1
  Se  Se41  1  0.14896496  0.29306045  0.47425805  1
  Se  Se42  1  0.27546961  0.54456771  0.77141634  1
  Se  Se43  1  0.25891788  0.04546299  0.47871386  1
  Se  Se44  1  0.73195779  -0.00420581  0.23661266  1
  Se  Se45  1  0.35103504  0.79306045  0.52574195  1
  Se  Se46  1  0.40550744  0.64961821  0.47155027  1
  Se  Se47  1  0.73317182  0.40253053  0.98922926  1
  Se  Se48  1  0.15019176  0.97365723  0.35518111  1
  Se  Se49  1  0.33418970  0.33308821  0.91084093  1
  Se  Se50  1  0.77546961  0.95543229  0.77141634  1
  Se  Se51  1  0.76804221  0.49579419  0.76338734  1
  Se  Se52  1  0.60889850  0.21323753  0.22806770  1
  Se  Se53  1  0.49509900  0.31043459  0.80272462  1
  Se  Se54  1  0.83418970  0.16691179  0.91084093  1
  Se  Se55  1  0.64896496  0.20693955  0.47425805  1
  Se  Se56  1  0.26804221  0.00420581  0.76338734  1
  Se  Se57  1  0.72453039  0.45543229  0.22858366  1
  Se  Se58  1  0.89110150  0.71323753  0.77193230  1
  Se  Se59  1  0.76682818  0.90253053  0.01077074  1
  Se  Se60  1  0.98958778  0.32072173  0.35422048  1
  Se  Se61  1  0.74108212  0.95453701  0.52128614  1
  Se  Se62  1  0.51041222  0.82072173  0.64577952  1
  Se  Se63  1  0.63279384  0.76492386  0.31163980  1
