# generated using pymatgen
data_Cs2SiAs2
_symmetry_space_group_name_H-M   'P 1'
_cell_length_a   6.46983975
_cell_length_b   7.65814566
_cell_length_c   8.85569795
_cell_angle_alpha   115.63407204
_cell_angle_beta   111.41415181
_cell_angle_gamma   90.00343398
_symmetry_Int_Tables_number   1
_chemical_formula_structural   Cs2SiAs2
_chemical_formula_sum   'Cs4 Si2 As4'
_cell_volume   361.69283214
_cell_formula_units_Z   2
loop_
 _symmetry_equiv_pos_site_id
 _symmetry_equiv_pos_as_xyz
  1  'x, y, z'
loop_
 _atom_site_type_symbol
 _atom_site_label
 _atom_site_symmetry_multiplicity
 _atom_site_fract_x
 _atom_site_fract_y
 _atom_site_fract_z
 _atom_site_occupancy
  Cs  Cs0  1  0.85400251  0.02080698  0.70799316  1
  Cs  Cs1  1  0.35405344  0.68715537  0.70807911  1
  Cs  Cs2  1  0.64594656  0.31284463  0.29192089  1
  Cs  Cs3  1  0.14599749  0.97919302  0.29200684  1
  Si  Si4  1  0.75003129  0.49998577  0.99999862  1
  Si  Si5  1  0.24996871  0.50001423  0.00000138  1
  As  As6  1  0.90992952  0.56407065  0.82005580  1
  As  As7  1  0.09007048  0.43592935  0.17994420  1
  As  As8  1  0.59033588  0.74377723  0.18049981  1
  As  As9  1  0.40966412  0.25622277  0.81950019  1
