# generated using pymatgen
data_TiAs2O7
_symmetry_space_group_name_H-M   'P 1'
_cell_length_a   5.27302978
_cell_length_b   5.27302978
_cell_length_c   9.48717605
_cell_angle_alpha   80.85362896
_cell_angle_beta   80.85362896
_cell_angle_gamma   98.14727542
_symmetry_Int_Tables_number   1
_chemical_formula_structural   TiAs2O7
_chemical_formula_sum   'Ti2 As4 O14'
_cell_volume   253.32296915
_cell_formula_units_Z   2
loop_
 _symmetry_equiv_pos_site_id
 _symmetry_equiv_pos_as_xyz
  1  'x, y, z'
loop_
 _atom_site_type_symbol
 _atom_site_label
 _atom_site_symmetry_multiplicity
 _atom_site_fract_x
 _atom_site_fract_y
 _atom_site_fract_z
 _atom_site_occupancy
  Ti  Ti0  1  0.00000000  0.00000000  -0.00000000  1
  Ti  Ti1  1  0.00000000  0.00000000  0.50000000  1
  As  As2  1  0.17216502  0.43837285  0.19878613  1
  As  As3  1  0.43837285  0.17216502  0.69878613  1
  As  As4  1  0.56162715  0.82783498  0.30121387  1
  As  As5  1  0.82783498  0.56162715  0.80121387  1
  O  O6  1  0.07531497  0.71335430  0.13054063  1
  O  O7  1  0.76597759  0.75085962  0.92372321  1
  O  O8  1  0.29004273  0.96681741  0.85357099  1
  O  O9  1  0.03318259  0.70995727  0.64642901  1
  O  O10  1  0.47269163  0.52730837  0.25000000  1
  O  O11  1  0.71335430  0.07531497  0.63054063  1
  O  O12  1  0.75085962  0.76597759  0.42372321  1
  O  O13  1  0.24914038  0.23402241  0.57627679  1
  O  O14  1  0.23402241  0.24914038  0.07627679  1
  O  O15  1  0.70995727  0.03318259  0.14642901  1
  O  O16  1  0.92468503  0.28664570  0.86945937  1
  O  O17  1  0.96681741  0.29004273  0.35357099  1
  O  O18  1  0.28664570  0.92468503  0.36945937  1
  O  O19  1  0.52730837  0.47269163  0.75000000  1
