# generated using pymatgen
data_Rb3Sb5O14
_symmetry_space_group_name_H-M   'P 1'
_cell_length_a   7.21179496
_cell_length_b   7.38862348
_cell_length_c   24.57768858
_cell_angle_alpha   90.00000000
_cell_angle_beta   90.00000000
_cell_angle_gamma   90.00000000
_symmetry_Int_Tables_number   1
_chemical_formula_structural   Rb3Sb5O14
_chemical_formula_sum   'Rb12 Sb20 O56'
_cell_volume   1309.62797501
_cell_formula_units_Z   4
loop_
 _symmetry_equiv_pos_site_id
 _symmetry_equiv_pos_as_xyz
  1  'x, y, z'
loop_
 _atom_site_type_symbol
 _atom_site_label
 _atom_site_symmetry_multiplicity
 _atom_site_fract_x
 _atom_site_fract_y
 _atom_site_fract_z
 _atom_site_occupancy
  Rb  Rb0  1  0.27125675  0.50000000  0.01355228  1
  Rb  Rb1  1  0.10740268  0.50000000  0.88623602  1
  Rb  Rb2  1  0.89443399  0.00000000  0.20814736  1
  Rb  Rb3  1  0.22874325  0.50000000  0.51355228  1
  Rb  Rb4  1  0.39259732  0.50000000  0.38623602  1
  Rb  Rb5  1  0.72874325  0.50000000  0.98644772  1
  Rb  Rb6  1  0.60740268  0.50000000  0.61376398  1
  Rb  Rb7  1  0.89259732  0.50000000  0.11376398  1
  Rb  Rb8  1  0.77125675  0.50000000  0.48644772  1
  Rb  Rb9  1  0.60556601  0.00000000  0.70814736  1
  Rb  Rb10  1  0.10556601  0.00000000  0.79185264  1
  Rb  Rb11  1  0.39443399  0.00000000  0.29185264  1
  Sb  Sb12  1  0.11165309  0.26340160  0.64566484  1
  Sb  Sb13  1  0.61165309  0.73659840  0.85433516  1
  Sb  Sb14  1  0.09156084  0.00000000  0.43775347  1
  Sb  Sb15  1  0.32998767  0.50000000  0.75561068  1
  Sb  Sb16  1  0.17001233  0.50000000  0.25561068  1
  Sb  Sb17  1  0.67001233  0.50000000  0.24438932  1
  Sb  Sb18  1  0.11165309  0.73659840  0.64566484  1
  Sb  Sb19  1  0.41744089  0.00000000  0.55667076  1
  Sb  Sb20  1  0.61165309  0.26340160  0.85433516  1
  Sb  Sb21  1  0.59156084  0.00000000  0.06224653  1
  Sb  Sb22  1  0.82998767  0.50000000  0.74438932  1
  Sb  Sb23  1  0.38834691  0.26340160  0.14566484  1
  Sb  Sb24  1  0.08255911  0.00000000  0.05667076  1
  Sb  Sb25  1  0.58255911  0.00000000  0.44332924  1
  Sb  Sb26  1  0.90843916  0.00000000  0.56224653  1
  Sb  Sb27  1  0.88834691  0.26340160  0.35433516  1
  Sb  Sb28  1  0.38834691  0.73659840  0.14566484  1
  Sb  Sb29  1  0.88834691  0.73659840  0.35433516  1
  Sb  Sb30  1  0.40843916  0.00000000  0.93775347  1
  Sb  Sb31  1  0.91744089  0.00000000  0.94332924  1
  O  O32  1  0.04488095  0.25410565  0.42503144  1
  O  O33  1  0.53130650  0.00000000  0.85692361  1
  O  O34  1  0.83614731  0.80457256  0.89708017  1
  O  O35  1  0.95511905  0.74589435  0.57496856  1
  O  O36  1  0.32171556  0.50000000  0.12058516  1
  O  O37  1  0.26853675  0.27839132  0.70998275  1
  O  O38  1  0.88505618  0.31504942  0.68672778  1
  O  O39  1  0.17828444  0.50000000  0.62058516  1
  O  O40  1  0.73146325  0.72160868  0.29001725  1
  O  O41  1  0.04488095  0.74589435  0.42503144  1
  O  O42  1  0.92848119  0.50000000  0.22008260  1
  O  O43  1  0.66385269  0.19542744  0.39708017  1
  O  O44  1  0.66033099  0.00000000  0.98277254  1
  O  O45  1  0.46869350  0.00000000  0.14307639  1
  O  O46  1  0.11494382  0.68495058  0.31327222  1
  O  O47  1  0.66385269  0.80457256  0.39708017  1
  O  O48  1  0.33966901  0.00000000  0.01722746  1
  O  O49  1  0.16200272  0.00000000  0.90785267  1
  O  O50  1  0.45511905  0.25410565  0.92503144  1
  O  O51  1  0.42848119  0.50000000  0.27991740  1
  O  O52  1  0.33799728  0.00000000  0.40785267  1
  O  O53  1  0.23146325  0.72160868  0.20998275  1
  O  O54  1  0.76853675  0.27839132  0.79001725  1
  O  O55  1  0.45511905  0.74589435  0.92503144  1
  O  O56  1  0.61494382  0.31504942  0.18672778  1
  O  O57  1  0.38505618  0.31504942  0.81327222  1
  O  O58  1  0.00000000  0.82241218  -0.00000000  1
  O  O59  1  0.00000000  0.17758782  -0.00000000  1
  O  O60  1  0.61494382  0.68495058  0.18672778  1
  O  O61  1  0.83966901  0.00000000  0.48277254  1
  O  O62  1  0.16385269  0.80457256  0.10291983  1
  O  O63  1  0.33614731  0.80457256  0.60291983  1
  O  O64  1  0.33614731  0.19542744  0.60291983  1
  O  O65  1  0.76853675  0.72160868  0.79001725  1
  O  O66  1  0.66200272  0.00000000  0.59214733  1
  O  O67  1  0.54488095  0.25410565  0.07496856  1
  O  O68  1  0.16033099  0.00000000  0.51722746  1
  O  O69  1  0.50000000  0.82241218  0.50000000  1
  O  O70  1  0.83799728  0.00000000  0.09214733  1
  O  O71  1  0.67828444  0.50000000  0.87941484  1
  O  O72  1  0.88505618  0.68495058  0.68672778  1
  O  O73  1  0.16385269  0.19542744  0.10291983  1
  O  O74  1  0.57151881  0.50000000  0.72008260  1
  O  O75  1  0.03130650  0.00000000  0.64307639  1
  O  O76  1  0.96869350  0.00000000  0.35692361  1
  O  O77  1  0.95511905  0.25410565  0.57496856  1
  O  O78  1  0.23146325  0.27839132  0.20998275  1
  O  O79  1  0.07151881  0.50000000  0.77991740  1
  O  O80  1  0.83614731  0.19542744  0.89708017  1
  O  O81  1  0.82171556  0.50000000  0.37941484  1
  O  O82  1  0.73146325  0.27839132  0.29001725  1
  O  O83  1  0.11494382  0.31504942  0.31327222  1
  O  O84  1  0.38505618  0.68495058  0.81327222  1
  O  O85  1  0.50000000  0.17758782  0.50000000  1
  O  O86  1  0.26853675  0.72160868  0.70998275  1
  O  O87  1  0.54488095  0.74589435  0.07496856  1
