# generated using pymatgen
data_RbGaS2
_symmetry_space_group_name_H-M   'P 1'
_cell_length_a   7.45303636
_cell_length_b   7.45303636
_cell_length_c   15.50419379
_cell_angle_alpha   83.07462653
_cell_angle_beta   83.07462653
_cell_angle_gamma   90.00490012
_symmetry_Int_Tables_number   1
_chemical_formula_structural   RbGaS2
_chemical_formula_sum   'Rb8 Ga8 S16'
_cell_volume   848.60858545
_cell_formula_units_Z   8
loop_
 _symmetry_equiv_pos_site_id
 _symmetry_equiv_pos_as_xyz
  1  'x, y, z'
loop_
 _atom_site_type_symbol
 _atom_site_label
 _atom_site_symmetry_multiplicity
 _atom_site_fract_x
 _atom_site_fract_y
 _atom_site_fract_z
 _atom_site_occupancy
  Rb  Rb0  1  0.27607129  0.15231366  0.39417493  1
  Rb  Rb1  1  0.15231366  0.27607129  0.89417493  1
  Rb  Rb2  1  0.72392871  0.84768634  0.60582507  1
  Rb  Rb3  1  0.72393995  0.34912530  0.60600361  1
  Rb  Rb4  1  0.65087470  0.27606005  0.89399639  1
  Rb  Rb5  1  0.27606005  0.65087470  0.39399639  1
  Rb  Rb6  1  0.34912530  0.72393995  0.10600361  1
  Rb  Rb7  1  0.84768634  0.72392871  0.10582507  1
  Ga  Ga8  1  0.58656722  0.20812981  0.16774679  1
  Ga  Ga9  1  0.41343278  0.79187019  0.83225321  1
  Ga  Ga10  1  0.20812981  0.58656722  0.66774679  1
  Ga  Ga11  1  0.92059355  0.79195920  0.83248022  1
  Ga  Ga12  1  0.20804080  0.07940645  0.66751978  1
  Ga  Ga13  1  0.79195920  0.92059355  0.33248022  1
  Ga  Ga14  1  0.07940645  0.20804080  0.16751978  1
  Ga  Ga15  1  0.79187019  0.41343278  0.33225321  1
  S  S16  1  0.93382076  0.06617924  0.75000000  1
  S  S17  1  0.76918876  0.14438013  0.42358241  1
  S  S18  1  0.14438013  0.76918876  0.92358241  1
  S  S19  1  0.23081124  0.85561987  0.57641759  1
  S  S20  1  0.64482650  0.77024631  0.91974659  1
  S  S21  1  0.93400417  0.55849328  0.75037964  1
  S  S22  1  0.44150672  0.06599583  0.74962036  1
  S  S23  1  0.85561987  0.23081124  0.07641759  1
  S  S24  1  0.06599583  0.44150672  0.24962036  1
  S  S25  1  0.35517350  0.22975369  0.08025341  1
  S  S26  1  0.22975369  0.35517350  0.58025341  1
  S  S27  1  0.06617924  0.93382076  0.25000000  1
  S  S28  1  0.55849328  0.93400417  0.25037964  1
  S  S29  1  0.77024631  0.64482650  0.41974659  1
  S  S30  1  0.55861442  0.44138558  0.25000000  1
  S  S31  1  0.44138558  0.55861442  0.75000000  1
