# generated using pymatgen
data_Na2S2O3
_symmetry_space_group_name_H-M   'P 1'
_cell_length_a   8.07325925
_cell_length_b   10.80937417
_cell_length_c   16.08266765
_cell_angle_alpha   90.00000000
_cell_angle_beta   90.00000000
_cell_angle_gamma   90.00000000
_symmetry_Int_Tables_number   1
_chemical_formula_structural   Na2S2O3
_chemical_formula_sum   'Na24 S24 O36'
_cell_volume   1403.48422797
_cell_formula_units_Z   12
loop_
 _symmetry_equiv_pos_site_id
 _symmetry_equiv_pos_as_xyz
  1  'x, y, z'
loop_
 _atom_site_type_symbol
 _atom_site_label
 _atom_site_symmetry_multiplicity
 _atom_site_fract_x
 _atom_site_fract_y
 _atom_site_fract_z
 _atom_site_occupancy
  Na  Na0  1  0.70259571  0.98540734  0.87866678  1
  Na  Na1  1  0.78865032  0.45564256  0.86325496  1
  Na  Na2  1  0.94479270  0.75193797  0.01592328  1
  Na  Na3  1  0.78865032  0.95564256  0.63674504  1
  Na  Na4  1  0.95163521  0.74997007  0.45487881  1
  Na  Na5  1  0.58463010  0.25908404  0.23361084  1
  Na  Na6  1  0.95163521  0.24997007  0.04512119  1
  Na  Na7  1  0.94479270  0.25193797  0.48407672  1
  Na  Na8  1  0.28865032  0.04435744  0.36325496  1
  Na  Na9  1  0.08463010  0.74091596  0.76638916  1
  Na  Na10  1  0.08463010  0.24091596  0.73361084  1
  Na  Na11  1  0.88152381  0.48653795  0.24960551  1
  Na  Na12  1  0.20259571  0.51459266  0.37866678  1
  Na  Na13  1  0.28865032  0.54435744  0.13674504  1
  Na  Na14  1  0.20259571  0.01459266  0.12133322  1
  Na  Na15  1  0.45163521  0.75002993  0.95487881  1
  Na  Na16  1  0.38152381  0.01346205  0.74960551  1
  Na  Na17  1  0.38152381  0.51346205  0.75039449  1
  Na  Na18  1  0.45163521  0.25002993  0.54512119  1
  Na  Na19  1  0.44479270  0.74806203  0.51592328  1
  Na  Na20  1  0.70259571  0.48540734  0.62133322  1
  Na  Na21  1  0.44479270  0.24806203  0.98407672  1
  Na  Na22  1  0.58463010  0.75908404  0.26638916  1
  Na  Na23  1  0.88152381  0.98653795  0.25039449  1
  S  S24  1  0.66178000  0.22125510  0.73914538  1
  S  S25  1  0.16178000  0.27874490  0.23914538  1
  S  S26  1  0.23176838  0.98490684  0.93355923  1
  S  S27  1  0.63556576  0.12605434  0.41120467  1
  S  S28  1  0.06646224  0.99436538  0.83872384  1
  S  S29  1  0.45640040  0.27470377  0.80312702  1
  S  S30  1  0.06646224  0.49436538  0.66127616  1
  S  S31  1  0.95640040  0.22529623  0.30312702  1
  S  S32  1  0.73176838  0.51509316  0.43355923  1
  S  S33  1  0.16178000  0.77874490  0.26085462  1
  S  S34  1  0.66178000  0.72125510  0.76085462  1
  S  S35  1  0.64714617  0.44050698  0.07746703  1
  S  S36  1  0.73176838  0.01509316  0.06644077  1
  S  S37  1  0.23176838  0.48490684  0.56644077  1
  S  S38  1  0.45640040  0.77470377  0.69687298  1
  S  S39  1  0.64714617  0.94050698  0.42253297  1
  S  S40  1  0.13556576  0.87394566  0.58879533  1
  S  S41  1  0.56646224  0.00563462  0.16127616  1
  S  S42  1  0.14714617  0.05949302  0.57746703  1
  S  S43  1  0.13556576  0.37394566  0.91120467  1
  S  S44  1  0.95640040  0.72529623  0.19687298  1
  S  S45  1  0.56646224  0.50563462  0.33872384  1
  S  S46  1  0.63556576  0.62605434  0.08879533  1
  S  S47  1  0.14714617  0.55949302  0.92253297  1
  O  O48  1  0.81004292  0.77465151  0.71942763  1
  O  O49  1  0.22510842  0.60075703  0.51649266  1
  O  O50  1  0.15161289  0.23567294  0.15176449  1
  O  O51  1  0.98726739  0.11461055  0.60704138  1
  O  O52  1  0.66809942  0.08218046  0.74255286  1
  O  O53  1  0.67473286  0.40586405  0.98930007  1
  O  O54  1  0.67473286  0.90586405  0.51069993  1
  O  O55  1  0.66809942  0.58218046  0.75744714  1
  O  O56  1  0.28442230  0.60938424  0.86976387  1
  O  O57  1  0.17473286  0.09413595  0.48930007  1
  O  O58  1  0.31004292  0.72534849  0.21942763  1
  O  O59  1  0.48726739  0.38538945  0.10704138  1
  O  O60  1  0.28442230  0.10938424  0.63023613  1
  O  O61  1  0.89909795  0.53311687  0.39625964  1
  O  O62  1  0.89909795  0.03311687  0.10374036  1
  O  O63  1  0.78442230  0.39061576  0.13023613  1
  O  O64  1  0.17473286  0.59413595  0.01069993  1
  O  O65  1  0.16809942  0.41781954  0.24255286  1
  O  O66  1  0.69256505  0.12271929  0.01168008  1
  O  O67  1  0.69256505  0.62271929  0.48831992  1
  O  O68  1  0.72510842  0.39924297  0.48350734  1
  O  O69  1  0.15161289  0.73567294  0.34823551  1
  O  O70  1  0.31004292  0.22534849  0.28057237  1
  O  O71  1  0.72510842  0.89924297  0.01649266  1
  O  O72  1  0.19256505  0.37728071  0.51168008  1
  O  O73  1  0.39909795  0.46688313  0.60374036  1
  O  O74  1  0.16809942  0.91781954  0.25744714  1
  O  O75  1  0.65161289  0.76432706  0.84823551  1
  O  O76  1  0.19256505  0.87728071  0.98831992  1
  O  O77  1  0.22510842  0.10075703  0.98350734  1
  O  O78  1  0.39909795  0.96688313  0.89625964  1
  O  O79  1  0.65161289  0.26432706  0.65176449  1
  O  O80  1  0.48726739  0.88538945  0.39295862  1
  O  O81  1  0.78442230  0.89061576  0.36976387  1
  O  O82  1  0.98726739  0.61461055  0.89295862  1
  O  O83  1  0.81004292  0.27465151  0.78057237  1
