# generated using pymatgen
data_La2SnS3O2
_symmetry_space_group_name_H-M   'P 1'
_cell_length_a   5.87493271
_cell_length_b   5.88808796
_cell_length_c   19.15927836
_cell_angle_alpha   90.00000000
_cell_angle_beta   90.00000000
_cell_angle_gamma   90.00000000
_symmetry_Int_Tables_number   1
_chemical_formula_structural   La2SnS3O2
_chemical_formula_sum   'La8 Sn4 S12 O8'
_cell_volume   662.76006679
_cell_formula_units_Z   4
loop_
 _symmetry_equiv_pos_site_id
 _symmetry_equiv_pos_as_xyz
  1  'x, y, z'
loop_
 _atom_site_type_symbol
 _atom_site_label
 _atom_site_symmetry_multiplicity
 _atom_site_fract_x
 _atom_site_fract_y
 _atom_site_fract_z
 _atom_site_occupancy
  La  La0  1  0.50175026  0.24801198  0.56299990  1
  La  La1  1  0.49824974  0.75198802  0.06299990  1
  La  La2  1  0.00175026  0.25198802  0.43700010  1
  La  La3  1  0.99824974  0.74801198  0.93700010  1
  La  La4  1  0.49824974  0.75198802  0.43700010  1
  La  La5  1  0.99824974  0.74801198  0.56299990  1
  La  La6  1  0.00175026  0.25198802  0.06299990  1
  La  La7  1  0.50175026  0.24801198  0.93700010  1
  Sn  Sn8  1  0.92965554  0.34784986  0.75000000  1
  Sn  Sn9  1  0.42965554  0.15215014  0.25000000  1
  Sn  Sn10  1  0.57034446  0.84784986  0.75000000  1
  Sn  Sn11  1  0.07034446  0.65215014  0.25000000  1
  S  S12  1  0.48188281  0.74084455  0.25000000  1
  S  S13  1  0.51242137  0.25594899  0.36609627  1
  S  S14  1  0.01242137  0.24405101  0.63390373  1
  S  S15  1  0.01811719  0.24084455  0.25000000  1
  S  S16  1  0.48757863  0.74405101  0.63390373  1
  S  S17  1  0.98188281  0.75915545  0.75000000  1
  S  S18  1  0.48757863  0.74405101  0.86609627  1
  S  S19  1  0.98757863  0.75594899  0.13390373  1
  S  S20  1  0.51811719  0.25915545  0.75000000  1
  S  S21  1  0.01242137  0.24405101  0.86609627  1
  S  S22  1  0.98757863  0.75594899  0.36609627  1
  S  S23  1  0.51242137  0.25594899  0.13390373  1
  O  O24  1  0.74877827  0.49936894  0.49962244  1
  O  O25  1  0.75122173  0.99936894  0.00037756  1
  O  O26  1  0.24877827  0.00063106  0.99962244  1
  O  O27  1  0.74877827  0.49936894  0.00037756  1
  O  O28  1  0.25122173  0.50063106  0.99962244  1
  O  O29  1  0.75122173  0.99936894  0.49962244  1
  O  O30  1  0.25122173  0.50063106  0.50037756  1
  O  O31  1  0.24877827  0.00063106  0.50037756  1
