# generated using pymatgen
data_Mn2Ni6Te3PbO18
_symmetry_space_group_name_H-M   'P 1'
_cell_length_a   9.26935414
_cell_length_b   9.26935414
_cell_length_c   8.81969937
_cell_angle_alpha   90.00000000
_cell_angle_beta   90.00000000
_cell_angle_gamma   119.99999550
_symmetry_Int_Tables_number   1
_chemical_formula_structural   Mn2Ni6Te3PbO18
_chemical_formula_sum   'Mn4 Ni12 Te6 Pb2 O36'
_cell_volume   656.27125620
_cell_formula_units_Z   2
loop_
 _symmetry_equiv_pos_site_id
 _symmetry_equiv_pos_as_xyz
  1  'x, y, z'
loop_
 _atom_site_type_symbol
 _atom_site_label
 _atom_site_symmetry_multiplicity
 _atom_site_fract_x
 _atom_site_fract_y
 _atom_site_fract_z
 _atom_site_occupancy
  Mn  Mn0  1  0.66666700  0.33333300  0.56066184  1
  Mn  Mn1  1  0.33333300  0.66666700  0.43933816  1
  Mn  Mn2  1  0.33333300  0.66666700  0.06066184  1
  Mn  Mn3  1  0.66666700  0.33333300  0.93933816  1
  Ni  Ni4  1  0.98741450  0.34821750  0.58862170  1
  Ni  Ni5  1  0.65178250  0.63919700  0.91137830  1
  Ni  Ni6  1  0.36080300  0.01258550  0.58862170  1
  Ni  Ni7  1  0.34821750  0.36080300  0.41137830  1
  Ni  Ni8  1  0.34821750  0.36080300  0.08862170  1
  Ni  Ni9  1  0.63919700  0.98741450  0.41137830  1
  Ni  Ni10  1  0.01258550  0.65178250  0.08862170  1
  Ni  Ni11  1  0.36080300  0.01258550  0.91137830  1
  Ni  Ni12  1  0.65178250  0.63919700  0.58862170  1
  Ni  Ni13  1  0.63919700  0.98741450  0.08862170  1
  Ni  Ni14  1  0.98741450  0.34821750  0.91137830  1
  Ni  Ni15  1  0.01258550  0.65178250  0.41137830  1
  Te  Te16  1  0.36272114  0.02581852  0.25000000  1
  Te  Te17  1  0.97418148  0.33690261  0.25000000  1
  Te  Te18  1  0.33690261  0.36272114  0.75000000  1
  Te  Te19  1  0.02581852  0.66309739  0.75000000  1
  Te  Te20  1  0.63727886  0.97418148  0.75000000  1
  Te  Te21  1  0.66309739  0.63727886  0.25000000  1
  Pb  Pb22  1  0.00000000  -0.00000000  -0.00000000  1
  Pb  Pb23  1  0.00000000  -0.00000000  0.50000000  1
  O  O24  1  0.44809746  0.86621887  0.25000000  1
  O  O25  1  0.39454570  0.52445714  0.58671274  1
  O  O26  1  0.47554286  0.87008856  0.58671274  1
  O  O27  1  0.87008856  0.39454570  0.41328726  1
  O  O28  1  0.20542445  0.90015492  0.40886463  1
  O  O29  1  0.20542445  0.90015492  0.09113537  1
  O  O30  1  0.90015492  0.69473047  0.90886463  1
  O  O31  1  0.18819036  0.89431191  0.75000000  1
  O  O32  1  0.70612155  0.81180964  0.75000000  1
  O  O33  1  0.79457555  0.09984508  0.59113537  1
  O  O34  1  0.52445714  0.12991144  0.41328726  1
  O  O35  1  0.90015492  0.69473047  0.59113537  1
  O  O36  1  0.09984508  0.30526953  0.09113537  1
  O  O37  1  0.30526953  0.20542445  0.59113537  1
  O  O38  1  0.87008856  0.39454570  0.08671274  1
  O  O39  1  0.81180964  0.10568809  0.25000000  1
  O  O40  1  0.60545430  0.47554286  0.41328726  1
  O  O41  1  0.69473047  0.79457555  0.40886463  1
  O  O42  1  0.12991144  0.60545430  0.58671274  1
  O  O43  1  0.41812142  0.55190254  0.25000000  1
  O  O44  1  0.12991144  0.60545430  0.91328726  1
  O  O45  1  0.86621887  0.41812142  0.75000000  1
  O  O46  1  0.13378113  0.58187858  0.25000000  1
  O  O47  1  0.58187858  0.44809746  0.75000000  1
  O  O48  1  0.30526953  0.20542445  0.90886463  1
  O  O49  1  0.79457555  0.09984508  0.90886463  1
  O  O50  1  0.60545430  0.47554286  0.08671274  1
  O  O51  1  0.55190254  0.13378113  0.75000000  1
  O  O52  1  0.52445714  0.12991144  0.08671274  1
  O  O53  1  0.29387845  0.18819036  0.25000000  1
  O  O54  1  0.09984508  0.30526953  0.40886463  1
  O  O55  1  0.10568809  0.29387845  0.75000000  1
  O  O56  1  0.89431191  0.70612155  0.25000000  1
  O  O57  1  0.47554286  0.87008856  0.91328726  1
  O  O58  1  0.39454570  0.52445714  0.91328726  1
  O  O59  1  0.69473047  0.79457555  0.09113537  1
