# generated using pymatgen
data_Nb(PS4)2
_symmetry_space_group_name_H-M   'P 1'
_cell_length_a   11.72144723
_cell_length_b   11.72144723
_cell_length_c   10.38782280
_cell_angle_alpha   90.00000000
_cell_angle_beta   90.00000000
_cell_angle_gamma   119.92221682
_symmetry_Int_Tables_number   1
_chemical_formula_structural   Nb(PS4)2
_chemical_formula_sum   'Nb4 P8 S32'
_cell_volume   1236.96525773
_cell_formula_units_Z   4
loop_
 _symmetry_equiv_pos_site_id
 _symmetry_equiv_pos_as_xyz
  1  'x, y, z'
loop_
 _atom_site_type_symbol
 _atom_site_label
 _atom_site_symmetry_multiplicity
 _atom_site_fract_x
 _atom_site_fract_y
 _atom_site_fract_z
 _atom_site_occupancy
  Nb  Nb0  1  0.42893786  0.57106214  0.50000000  1
  Nb  Nb1  1  0.57106214  0.42893786  0.50000000  1
  Nb  Nb2  1  0.92893786  0.07106214  -0.00000000  1
  Nb  Nb3  1  0.07106214  0.92893786  -0.00000000  1
  P  P4  1  0.49684341  0.87543335  0.51490104  1
  P  P5  1  0.99684341  0.37543335  0.98509896  1
  P  P6  1  0.12456665  0.50315659  0.48509896  1
  P  P7  1  0.62456665  0.00315659  0.01490104  1
  P  P8  1  0.87543335  0.49684341  0.51490104  1
  P  P9  1  0.37543335  0.99684341  0.98509896  1
  P  P10  1  0.00315659  0.62456665  0.01490104  1
  P  P11  1  0.50315659  0.12456665  0.48509896  1
  S  S12  1  0.06726868  0.63021856  0.57622349  1
  S  S13  1  0.80344308  0.57507563  0.39153578  1
  S  S14  1  0.19655692  0.42492437  0.60846422  1
  S  S15  1  0.25572827  0.59099356  0.34609111  1
  S  S16  1  0.40900644  0.74427173  0.65390889  1
  S  S17  1  0.09099356  0.75572827  0.15390889  1
  S  S18  1  0.24427173  0.90900644  0.84609111  1
  S  S19  1  0.51507876  0.51507876  0.30156329  1
  S  S20  1  0.63021856  0.06726868  0.57622349  1
  S  S21  1  0.69655692  0.92492437  0.89153578  1
  S  S22  1  0.35948348  0.35948348  0.38268452  1
  S  S23  1  0.36978144  0.93273132  0.42377651  1
  S  S24  1  0.56726868  0.13021856  0.92377651  1
  S  S25  1  0.48492124  0.48492124  0.69843671  1
  S  S26  1  0.92492437  0.69655692  0.89153578  1
  S  S27  1  0.42492437  0.19655692  0.60846422  1
  S  S28  1  0.14051652  0.14051652  0.88268452  1
  S  S29  1  0.75572827  0.09099356  0.15390889  1
  S  S30  1  0.01507876  0.01507876  0.19843671  1
  S  S31  1  0.64051652  0.64051652  0.61731548  1
  S  S32  1  0.93273132  0.36978144  0.42377651  1
  S  S33  1  0.30344308  0.07507563  0.10846422  1
  S  S34  1  0.57507563  0.80344308  0.39153578  1
  S  S35  1  0.98492124  0.98492124  0.80156329  1
  S  S36  1  0.07507563  0.30344308  0.10846422  1
  S  S37  1  0.43273132  0.86978144  0.07622349  1
  S  S38  1  0.85948348  0.85948348  0.11731548  1
  S  S39  1  0.59099356  0.25572827  0.34609111  1
  S  S40  1  0.90900644  0.24427173  0.84609111  1
  S  S41  1  0.74427173  0.40900644  0.65390889  1
  S  S42  1  0.13021856  0.56726868  0.92377651  1
  S  S43  1  0.86978144  0.43273132  0.07622349  1
