# generated using pymatgen
data_KSmP2S7
_symmetry_space_group_name_H-M   'P 1'
_cell_length_a   12.41296512
_cell_length_b   9.03657023
_cell_length_c   9.72223489
_cell_angle_alpha   89.75967615
_cell_angle_beta   90.00000000
_cell_angle_gamma   90.00000000
_symmetry_Int_Tables_number   1
_chemical_formula_structural   KSmP2S7
_chemical_formula_sum   'K4 Sm4 P8 S28'
_cell_volume   1090.53962980
_cell_formula_units_Z   4
loop_
 _symmetry_equiv_pos_site_id
 _symmetry_equiv_pos_as_xyz
  1  'x, y, z'
loop_
 _atom_site_type_symbol
 _atom_site_label
 _atom_site_symmetry_multiplicity
 _atom_site_fract_x
 _atom_site_fract_y
 _atom_site_fract_z
 _atom_site_occupancy
  K  K0  1  0.80766679  0.13081497  0.39464731  1
  K  K1  1  0.69233321  0.63081497  0.39464731  1
  K  K2  1  0.30766679  0.36918503  0.60535269  1
  K  K3  1  0.19233321  0.86918503  0.60535269  1
  Sm  Sm4  1  0.35734212  0.60690200  0.14195944  1
  Sm  Sm5  1  0.85734212  0.89309800  0.85804056  1
  Sm  Sm6  1  0.64265788  0.39309800  0.85804056  1
  Sm  Sm7  1  0.14265788  0.10690200  0.14195944  1
  P  P8  1  0.39701375  0.97752115  0.27456275  1
  P  P9  1  0.03556332  0.19775243  0.81586373  1
  P  P10  1  0.60298625  0.02247885  0.72543725  1
  P  P11  1  0.53556332  0.30224757  0.18413627  1
  P  P12  1  0.10298625  0.47752115  0.27456275  1
  P  P13  1  0.46443668  0.69775243  0.81586373  1
  P  P14  1  0.89701375  0.52247885  0.72543725  1
  P  P15  1  0.96443668  0.80224757  0.18413627  1
  S  S16  1  0.55645378  0.20938011  0.63191297  1
  S  S17  1  0.55731302  0.67919856  0.98620943  1
  S  S18  1  0.52583034  0.56985728  0.66687735  1
  S  S19  1  0.82977835  0.57420904  0.90917136  1
  S  S20  1  0.69192025  0.35277165  0.14941786  1
  S  S21  1  0.05075854  0.42149292  0.75212701  1
  S  S22  1  0.17022165  0.42579096  0.09082864  1
  S  S23  1  0.32977835  0.92579096  0.09082864  1
  S  S24  1  0.79210100  0.38847560  0.62967053  1
  S  S25  1  0.44354622  0.79061989  0.36808703  1
  S  S26  1  0.29210100  0.11152440  0.37032947  1
  S  S27  1  0.20789900  0.61152440  0.37032947  1
  S  S28  1  0.05645378  0.29061989  0.36808703  1
  S  S29  1  0.47416966  0.43014272  0.33312265  1
  S  S30  1  0.94354622  0.70938011  0.63191297  1
  S  S31  1  0.55075854  0.07850708  0.24787299  1
  S  S32  1  0.44268698  0.32080144  0.01379057  1
  S  S33  1  0.70789900  0.88847560  0.62967053  1
  S  S34  1  0.02583034  0.93014272  0.33312265  1
  S  S35  1  0.44924146  0.92149292  0.75212701  1
  S  S36  1  0.19192025  0.14722835  0.85058214  1
  S  S37  1  0.94268698  0.17919856  0.98620943  1
  S  S38  1  0.80807975  0.85277165  0.14941786  1
  S  S39  1  0.05731302  0.82080144  0.01379057  1
  S  S40  1  0.94924146  0.57850708  0.24787299  1
  S  S41  1  0.67022165  0.07420904  0.90917136  1
  S  S42  1  0.30807975  0.64722835  0.85058214  1
  S  S43  1  0.97416966  0.06985728  0.66687735  1
