# generated using pymatgen
data_Fe7(AsO4)6
_symmetry_space_group_name_H-M   'P 1'
_cell_length_a   6.64070293
_cell_length_b   7.96861052
_cell_length_c   9.65017096
_cell_angle_alpha   103.88300397
_cell_angle_beta   107.97553464
_cell_angle_gamma   101.18218920
_symmetry_Int_Tables_number   1
_chemical_formula_structural   Fe7(AsO4)6
_chemical_formula_sum   'Fe7 As6 O24'
_cell_volume   451.25086131
_cell_formula_units_Z   1
loop_
 _symmetry_equiv_pos_site_id
 _symmetry_equiv_pos_as_xyz
  1  'x, y, z'
loop_
 _atom_site_type_symbol
 _atom_site_label
 _atom_site_symmetry_multiplicity
 _atom_site_fract_x
 _atom_site_fract_y
 _atom_site_fract_z
 _atom_site_occupancy
  Fe  Fe0  1  0.04744815  0.22126930  0.01994606  1
  Fe  Fe1  1  0.95255185  0.77873070  0.98005394  1
  Fe  Fe2  1  0.27641503  0.30051349  0.78320287  1
  Fe  Fe3  1  0.72358497  0.69948651  0.21679713  1
  Fe  Fe4  1  0.61917691  0.04788660  0.38747736  1
  Fe  Fe5  1  0.38082309  0.95211340  0.61252264  1
  Fe  Fe6  1  0.00000000  0.50000000  0.50000000  1
  As  As7  1  0.09418924  0.09480284  0.33202456  1
  As  As8  1  0.90581076  0.90519716  0.66797544  1
  As  As9  1  0.23451681  0.64564176  0.27421457  1
  As  As10  1  0.76548319  0.35435824  0.72578543  1
  As  As11  1  0.60493049  0.27197863  0.12342880  1
  As  As12  1  0.39506951  0.72802137  0.87657120  1
  O  O13  1  0.01006530  0.69619734  0.16578081  1
  O  O14  1  0.98993470  0.30380266  0.83421919  1
  O  O15  1  0.05752439  0.04674349  0.14233096  1
  O  O16  1  0.94247561  0.95325651  0.85766904  1
  O  O17  1  0.12914486  0.04092152  0.65470168  1
  O  O18  1  0.87085514  0.95907848  0.34529832  1
  O  O19  1  0.11372283  0.30674076  0.42196243  1
  O  O20  1  0.88627717  0.69325924  0.57803757  1
  O  O21  1  0.21932477  0.42980800  0.19955722  1
  O  O22  1  0.78067523  0.57019200  0.80044278  1
  O  O23  1  0.22782570  0.69254751  0.45591446  1
  O  O24  1  0.77217430  0.30745249  0.54408554  1
  O  O25  1  0.32106765  0.03345887  0.41657582  1
  O  O26  1  0.67893235  0.96654113  0.58342418  1
  O  O27  1  0.52249511  0.23013070  0.72131965  1
  O  O28  1  0.47750489  0.76986930  0.27868035  1
  O  O29  1  0.54692172  0.11528213  0.20477720  1
  O  O30  1  0.45307828  0.88471787  0.79522280  1
  O  O31  1  0.63887055  0.72923455  0.00780169  1
  O  O32  1  0.36112945  0.27076545  0.99219831  1
  O  O33  1  0.73230689  0.47721795  0.26763923  1
  O  O34  1  0.26769311  0.52278205  0.73236077  1
  O  O35  1  0.76746879  0.23988891  0.02314580  1
  O  O36  1  0.23253121  0.76011109  0.97685420  1
