# generated using pymatgen
data_Cs5FeO4
_symmetry_space_group_name_H-M   'P 1'
_cell_length_a   12.79247621
_cell_length_b   7.31853582
_cell_length_c   11.38103760
_cell_angle_alpha   80.94957332
_cell_angle_beta   90.00000000
_cell_angle_gamma   90.00000000
_symmetry_Int_Tables_number   1
_chemical_formula_structural   Cs5FeO4
_chemical_formula_sum   'Cs20 Fe4 O16'
_cell_volume   1052.25232678
_cell_formula_units_Z   4
loop_
 _symmetry_equiv_pos_site_id
 _symmetry_equiv_pos_as_xyz
  1  'x, y, z'
loop_
 _atom_site_type_symbol
 _atom_site_label
 _atom_site_symmetry_multiplicity
 _atom_site_fract_x
 _atom_site_fract_y
 _atom_site_fract_z
 _atom_site_occupancy
  Cs  Cs0  1  0.70303833  0.01012101  0.23392191  1
  Cs  Cs1  1  0.20303833  0.48987899  0.76607809  1
  Cs  Cs2  1  0.29696167  0.98987899  0.76607809  1
  Cs  Cs3  1  0.79696167  0.51012101  0.23392191  1
  Cs  Cs4  1  0.17573053  0.16473023  0.14963681  1
  Cs  Cs5  1  0.67573053  0.33526977  0.85036319  1
  Cs  Cs6  1  0.82426947  0.83526977  0.85036319  1
  Cs  Cs7  1  0.32426947  0.66473023  0.14963681  1
  Cs  Cs8  1  0.07049182  0.45102671  0.36672973  1
  Cs  Cs9  1  0.57049182  0.04897329  0.63327027  1
  Cs  Cs10  1  0.92950818  0.54897329  0.63327027  1
  Cs  Cs11  1  0.42950818  0.95102671  0.36672973  1
  Cs  Cs12  1  0.92442211  0.24078361  0.00811600  1
  Cs  Cs13  1  0.42442211  0.25921639  0.99188400  1
  Cs  Cs14  1  0.07557789  0.75921639  0.99188400  1
  Cs  Cs15  1  0.57557789  0.74078361  0.00811600  1
  Cs  Cs16  1  0.86372362  0.07395843  0.50504789  1
  Cs  Cs17  1  0.36372362  0.42604157  0.49495211  1
  Cs  Cs18  1  0.13627638  0.92604157  0.49495211  1
  Cs  Cs19  1  0.63627638  0.57395843  0.50504789  1
  Fe  Fe20  1  0.53196081  0.38750315  0.25383767  1
  Fe  Fe21  1  0.03196081  0.11249685  0.74616233  1
  Fe  Fe22  1  0.46803919  0.61249685  0.74616233  1
  Fe  Fe23  1  0.96803919  0.88750315  0.25383767  1
  O  O24  1  0.88858012  0.18442755  0.75966718  1
  O  O25  1  0.38858012  0.31557245  0.24033282  1
  O  O26  1  0.11141988  0.81557245  0.24033282  1
  O  O27  1  0.61141988  0.68442755  0.75966718  1
  O  O28  1  0.60653058  0.35545927  0.11196792  1
  O  O29  1  0.10653058  0.14454073  0.88803208  1
  O  O30  1  0.39346942  0.64454073  0.88803208  1
  O  O31  1  0.89346942  0.85545927  0.11196792  1
  O  O32  1  0.59417897  0.24454244  0.38941730  1
  O  O33  1  0.09417897  0.25545756  0.61058270  1
  O  O34  1  0.40582103  0.75545756  0.61058270  1
  O  O35  1  0.90582103  0.74454244  0.38941730  1
  O  O36  1  0.96719478  0.14222672  0.27201500  1
  O  O37  1  0.46719478  0.35777328  0.72798500  1
  O  O38  1  0.03280522  0.85777328  0.72798500  1
  O  O39  1  0.53280522  0.64222672  0.27201500  1
