# generated using pymatgen
data_ZnSeO3
_symmetry_space_group_name_H-M   'P 1'
_cell_length_a   6.21569912
_cell_length_b   7.21441768
_cell_length_c   12.01209078
_cell_angle_alpha   90.00000000
_cell_angle_beta   90.00000000
_cell_angle_gamma   90.00000000
_symmetry_Int_Tables_number   1
_chemical_formula_structural   ZnSeO3
_chemical_formula_sum   'Zn8 Se8 O24'
_cell_volume   538.65397811
_cell_formula_units_Z   8
loop_
 _symmetry_equiv_pos_site_id
 _symmetry_equiv_pos_as_xyz
  1  'x, y, z'
loop_
 _atom_site_type_symbol
 _atom_site_label
 _atom_site_symmetry_multiplicity
 _atom_site_fract_x
 _atom_site_fract_y
 _atom_site_fract_z
 _atom_site_occupancy
  Zn  Zn0  1  0.86475875  0.39201579  0.59519351  1
  Zn  Zn1  1  0.36475875  0.60798421  0.90480649  1
  Zn  Zn2  1  0.63524125  0.89201579  0.40480649  1
  Zn  Zn3  1  0.13524125  0.10798421  0.09519351  1
  Zn  Zn4  1  0.13524125  0.60798421  0.40480649  1
  Zn  Zn5  1  0.63524125  0.39201579  0.09519351  1
  Zn  Zn6  1  0.36475875  0.10798421  0.59519351  1
  Zn  Zn7  1  0.86475875  0.89201579  0.90480649  1
  Se  Se8  1  0.89047911  0.95455554  0.64296684  1
  Se  Se9  1  0.39047911  0.04544446  0.85703316  1
  Se  Se10  1  0.60952089  0.45455554  0.35703316  1
  Se  Se11  1  0.10952089  0.54544446  0.14296684  1
  Se  Se12  1  0.10952089  0.04544446  0.35703316  1
  Se  Se13  1  0.60952089  0.95455554  0.14296684  1
  Se  Se14  1  0.39047911  0.54544446  0.64296684  1
  Se  Se15  1  0.89047911  0.45455554  0.85703316  1
  O  O16  1  0.01930642  0.65248488  0.90701466  1
  O  O17  1  0.51930642  0.34751512  0.59298534  1
  O  O18  1  0.48069358  0.15248488  0.09298534  1
  O  O19  1  0.98069358  0.84751512  0.40701466  1
  O  O20  1  0.98069358  0.34751512  0.09298534  1
  O  O21  1  0.48069358  0.65248488  0.40701466  1
  O  O22  1  0.51930642  0.84751512  0.90701466  1
  O  O23  1  0.01930642  0.15248488  0.59298534  1
  O  O24  1  0.65801047  0.46951051  0.93424611  1
  O  O25  1  0.15801047  0.53048949  0.56575389  1
  O  O26  1  0.84198953  0.96951051  0.06575389  1
  O  O27  1  0.34198953  0.03048949  0.43424611  1
  O  O28  1  0.34198953  0.53048949  0.06575389  1
  O  O29  1  0.84198953  0.46951051  0.43424611  1
  O  O30  1  0.15801047  0.03048949  0.93424611  1
  O  O31  1  0.65801047  0.96951051  0.56575389  1
  O  O32  1  0.79978058  0.03492466  0.76711075  1
  O  O33  1  0.29978058  0.96507534  0.73288925  1
  O  O34  1  0.70021942  0.53492466  0.23288925  1
  O  O35  1  0.20021942  0.46507534  0.26711075  1
  O  O36  1  0.20021942  0.96507534  0.23288925  1
  O  O37  1  0.70021942  0.03492466  0.26711075  1
  O  O38  1  0.29978058  0.46507534  0.76711075  1
  O  O39  1  0.79978058  0.53492466  0.73288925  1
