# generated using pymatgen
data_SbOF
_symmetry_space_group_name_H-M   'P 1'
_cell_length_a   5.51749620
_cell_length_b   11.64951291
_cell_length_c   12.31453893
_cell_angle_alpha   90.00000000
_cell_angle_beta   90.00000000
_cell_angle_gamma   90.00000000
_symmetry_Int_Tables_number   1
_chemical_formula_structural   SbOF
_chemical_formula_sum   'Sb16 O16 F16'
_cell_volume   791.53106786
_cell_formula_units_Z   16
loop_
 _symmetry_equiv_pos_site_id
 _symmetry_equiv_pos_as_xyz
  1  'x, y, z'
loop_
 _atom_site_type_symbol
 _atom_site_label
 _atom_site_symmetry_multiplicity
 _atom_site_fract_x
 _atom_site_fract_y
 _atom_site_fract_z
 _atom_site_occupancy
  Sb  Sb0  1  0.68706535  0.64547860  0.20773517  1
  Sb  Sb1  1  0.78313603  0.38719369  0.49206211  1
  Sb  Sb2  1  0.78313603  0.88719369  0.00793789  1
  Sb  Sb3  1  0.81293465  0.64547860  0.70773517  1
  Sb  Sb4  1  0.21686397  0.61280631  0.50793789  1
  Sb  Sb5  1  0.18706535  0.85452140  0.20773517  1
  Sb  Sb6  1  0.71686397  0.88719369  0.50793789  1
  Sb  Sb7  1  0.31293465  0.85452140  0.70773517  1
  Sb  Sb8  1  0.28313603  0.11280631  0.49206211  1
  Sb  Sb9  1  0.68706535  0.14547860  0.29226483  1
  Sb  Sb10  1  0.71686397  0.38719369  0.99206211  1
  Sb  Sb11  1  0.81293465  0.14547860  0.79226483  1
  Sb  Sb12  1  0.31293465  0.35452140  0.79226483  1
  Sb  Sb13  1  0.28313603  0.61280631  0.00793789  1
  Sb  Sb14  1  0.21686397  0.11280631  0.99206211  1
  Sb  Sb15  1  0.18706535  0.35452140  0.29226483  1
  O  O16  1  0.92478798  0.54722574  0.58345147  1
  O  O17  1  0.12251918  0.73683535  0.62378725  1
  O  O18  1  0.37748082  0.23683535  0.37621275  1
  O  O19  1  0.57521202  0.04722574  0.41654853  1
  O  O20  1  0.07521202  0.45277426  0.41654853  1
  O  O21  1  0.42478798  0.95277426  0.58345147  1
  O  O22  1  0.07521202  0.95277426  0.08345147  1
  O  O23  1  0.12251918  0.23683535  0.87621275  1
  O  O24  1  0.62251918  0.26316465  0.87621275  1
  O  O25  1  0.42478798  0.45277426  0.91654853  1
  O  O26  1  0.87748082  0.26316465  0.37621275  1
  O  O27  1  0.92478798  0.04722574  0.91654853  1
  O  O28  1  0.57521202  0.54722574  0.08345147  1
  O  O29  1  0.62251918  0.76316465  0.62378725  1
  O  O30  1  0.37748082  0.73683535  0.12378725  1
  O  O31  1  0.87748082  0.76316465  0.12378725  1
  F  F32  1  0.49970865  0.94856407  0.19028629  1
  F  F33  1  0.50029135  0.05143593  0.80971371  1
  F  F34  1  0.50248998  0.30301713  0.09171231  1
  F  F35  1  0.99751002  0.30301713  0.59171231  1
  F  F36  1  0.49970865  0.44856407  0.30971371  1
  F  F37  1  -0.00029135  0.55143593  0.19028629  1
  F  F38  1  0.00029135  0.94856407  0.69028629  1
  F  F39  1  0.00248998  0.19698287  0.09171231  1
  F  F40  1  0.49751002  0.19698287  0.59171231  1
  F  F41  1  0.50029135  0.55143593  0.69028629  1
  F  F42  1  0.49751002  0.69698287  0.90828769  1
  F  F43  1  0.00029135  0.44856407  0.80971371  1
  F  F44  1  -0.00029135  0.05143593  0.30971371  1
  F  F45  1  0.50248998  0.80301713  0.40828769  1
  F  F46  1  0.00248998  0.69698287  0.40828769  1
  F  F47  1  0.99751002  0.80301713  0.90828769  1
