# generated using pymatgen
data_K2Ce(NO3)6
_symmetry_space_group_name_H-M   'P 1'
_cell_length_a   13.48242309
_cell_length_b   13.48242291
_cell_length_c   6.59865275
_cell_angle_alpha   90.00000000
_cell_angle_beta   90.00000000
_cell_angle_gamma   119.99999606
_symmetry_Int_Tables_number   1
_chemical_formula_structural   K2Ce(NO3)6
_chemical_formula_sum   'K6 Ce3 N18 O54'
_cell_volume   1038.77579345
_cell_formula_units_Z   3
loop_
 _symmetry_equiv_pos_site_id
 _symmetry_equiv_pos_as_xyz
  1  'x, y, z'
loop_
 _atom_site_type_symbol
 _atom_site_label
 _atom_site_symmetry_multiplicity
 _atom_site_fract_x
 _atom_site_fract_y
 _atom_site_fract_z
 _atom_site_occupancy
  K  K0  1  0.67641823  0.68106392  0.21815130  1
  K  K1  1  0.99535432  0.67641823  0.78184870  1
  K  K2  1  0.31893608  0.99535432  0.21815130  1
  K  K3  1  0.32358177  0.31893608  0.78184870  1
  K  K4  1  0.00464568  0.32358177  0.21815130  1
  K  K5  1  0.68106392  0.00464568  0.78184870  1
  Ce  Ce6  1  0.66666700  0.33333300  0.49230659  1
  Ce  Ce7  1  0.33333300  0.66666700  0.50769341  1
  Ce  Ce8  1  0.00000000  0.00000000  0.00000000  1
  N  N9  1  0.80330522  0.52929579  0.22212637  1
  N  N10  1  0.61560295  0.47959431  0.75348879  1
  N  N11  1  0.17946183  0.00713724  0.72839432  1
  N  N12  1  0.82053817  0.99286276  0.27160568  1
  N  N13  1  0.13600863  0.61560295  0.24651121  1
  N  N14  1  0.99286276  0.17232459  0.72839432  1
  N  N15  1  0.47070421  0.27400943  0.22212637  1
  N  N16  1  0.82767541  0.82053817  0.72839432  1
  N  N17  1  0.38439705  0.52040569  0.24651121  1
  N  N18  1  0.86399137  0.38439705  0.75348879  1
  N  N19  1  0.27400943  0.80330522  0.77787363  1
  N  N20  1  0.52040569  0.13600863  0.75348879  1
  N  N21  1  0.72599057  0.19669478  0.22212637  1
  N  N22  1  0.47959431  0.86399137  0.24651121  1
  N  N23  1  0.19669478  0.47070421  0.77787363  1
  N  N24  1  0.52929579  0.72599057  0.77787363  1
  N  N25  1  0.17232459  0.17946183  0.27160568  1
  N  N26  1  0.00713724  0.82767541  0.27160568  1
  O  O27  1  0.93353615  0.85981858  0.29199788  1
  O  O28  1  0.79609348  0.92733987  0.11601045  1
  O  O29  1  0.24678396  0.46296330  0.61790576  1
  O  O30  1  0.23717033  0.25284690  0.38938036  1
  O  O31  1  0.21617834  0.75321604  0.61790576  1
  O  O32  1  0.87325909  0.45020390  0.60511438  1
  O  O33  1  0.53160183  0.23467846  0.77725574  1
  O  O34  1  0.42305619  0.87325909  0.39488562  1
  O  O35  1  0.14018142  0.07371756  0.29199788  1
  O  O36  1  0.43435824  0.63580550  0.80570840  1
  O  O37  1  0.79855274  0.43435824  0.19429160  1
  O  O38  1  0.92733987  0.13124738  0.88398955  1
  O  O39  1  0.53703670  0.78382166  0.61790576  1
  O  O40  1  0.25284690  0.01567757  0.61061964  1
  O  O41  1  0.46839817  0.76532154  0.22274426  1
  O  O42  1  0.46069328  0.05511475  0.86377371  1
  O  O43  1  0.85981858  0.92628244  0.70800212  1
  O  O44  1  0.76282967  0.74715310  0.61061964  1
  O  O45  1  0.24021169  0.85041498  0.89528742  1
  O  O46  1  0.57694381  0.12674091  0.60511438  1
  O  O47  1  0.23467846  0.70307763  0.22274426  1
  O  O48  1  0.61020329  0.75978831  0.89528742  1
  O  O49  1  0.14958502  0.38979671  0.89528742  1
  O  O50  1  0.98432243  0.23717033  0.61061964  1
  O  O51  1  0.20144726  0.56564176  0.80570840  1
  O  O52  1  0.53930672  0.94488525  0.13622629  1
  O  O53  1  0.45020390  0.57694381  0.39488562  1
  O  O54  1  0.46296330  0.21617834  0.38209424  1
  O  O55  1  0.92628244  0.06646385  0.29199788  1
  O  O56  1  0.40557853  0.46069328  0.13622629  1
  O  O57  1  0.75978831  0.14958502  0.10471258  1
  O  O58  1  0.01567757  0.76282967  0.38938036  1
  O  O59  1  0.94488525  0.40557853  0.86377371  1
  O  O60  1  0.07371756  0.93353615  0.70800212  1
  O  O61  1  0.38979671  0.24021169  0.10471258  1
  O  O62  1  0.56564176  0.36419450  0.19429160  1
  O  O63  1  0.12674091  0.54979610  0.39488562  1
  O  O64  1  0.85041498  0.61020329  0.10471258  1
  O  O65  1  0.06646385  0.14018142  0.70800212  1
  O  O66  1  0.75321604  0.53703670  0.38209424  1
  O  O67  1  0.29692237  0.53160183  0.22274426  1
  O  O68  1  0.76532154  0.29692237  0.77725574  1
  O  O69  1  0.63580550  0.20144726  0.19429160  1
  O  O70  1  0.54979610  0.42305619  0.60511438  1
  O  O71  1  0.70307763  0.46839817  0.77725574  1
  O  O72  1  0.07266013  0.86875262  0.11601045  1
  O  O73  1  0.78382166  0.24678396  0.38209424  1
  O  O74  1  0.59442147  0.53930672  0.86377371  1
  O  O75  1  0.74715310  0.98432243  0.38938036  1
  O  O76  1  0.36419450  0.79855274  0.80570840  1
  O  O77  1  0.20390652  0.07266013  0.88398955  1
  O  O78  1  0.05511475  0.59442147  0.13622629  1
  O  O79  1  0.86875262  0.79609348  0.88398955  1
  O  O80  1  0.13124738  0.20390652  0.11601045  1
