# generated using pymatgen
data_SiC
_symmetry_space_group_name_H-M   'P 1'
_cell_length_a   3.07650930
_cell_length_b   3.07650915
_cell_length_c   67.94943436
_cell_angle_alpha   90.00000000
_cell_angle_beta   90.00000000
_cell_angle_gamma   120.00000157
_symmetry_Int_Tables_number   1
_chemical_formula_structural   SiC
_chemical_formula_sum   'Si27 C27'
_cell_volume   556.97142492
_cell_formula_units_Z   27
loop_
 _symmetry_equiv_pos_site_id
 _symmetry_equiv_pos_as_xyz
  1  'x, y, z'
loop_
 _atom_site_type_symbol
 _atom_site_label
 _atom_site_symmetry_multiplicity
 _atom_site_fract_x
 _atom_site_fract_y
 _atom_site_fract_z
 _atom_site_occupancy
  Si  Si0  1  0.00000000  -0.00000000  0.22222246  1
  Si  Si1  1  0.66666700  0.33333300  0.96293980  1
  Si  Si2  1  0.66666700  0.33333300  0.40736803  1
  Si  Si3  1  0.33333300  0.66666700  0.29625707  1
  Si  Si4  1  0.33333300  0.66666700  0.51848553  1
  Si  Si5  1  0.66666700  0.33333300  0.62959711  1
  Si  Si6  1  -0.00000000  0.00000000  0.92588138  1
  Si  Si7  1  -0.00000000  0.00000000  0.77776121  1
  Si  Si8  1  0.00000000  -0.00000000  0.44443230  1
  Si  Si9  1  0.33333300  0.66666700  0.74070524  1
  Si  Si10  1  0.33333300  0.66666700  0.14813649  1
  Si  Si11  1  0.00000000  0.00000000  0.66666133  1
  Si  Si12  1  0.66666700  0.33333300  0.18517707  1
  Si  Si13  1  0.66666700  0.33333300  0.48148334  1
  Si  Si14  1  0.33333300  0.66666700  0.88888906  1
  Si  Si15  1  0.66666700  0.33333300  0.11107983  1
  Si  Si16  1  0.33333300  0.66666700  0.81479544  1
  Si  Si17  1  0.66666700  0.33333300  0.25926849  1
  Si  Si18  1  0.00000000  -0.00000000  0.99998381  1
  Si  Si19  1  0.66666700  0.33333300  0.85184688  1
  Si  Si20  1  -0.00000000  0.00000000  0.55554723  1
  Si  Si21  1  -0.00000000  0.00000000  0.07408537  1
  Si  Si22  1  0.00000000  0.00000000  0.33331886  1
  Si  Si23  1  0.66666700  0.33333300  0.70371160  1
  Si  Si24  1  0.33333300  0.66666700  0.59260305  1
  Si  Si25  1  0.33333300  0.66666700  0.37037042  1
  Si  Si26  1  0.33333300  0.66666700  0.03703869  1
  C  C27  1  -0.00000000  0.00000000  0.80561210  1
  C  C28  1  0.66666700  0.33333300  0.50926596  1
  C  C29  1  0.33333300  0.66666700  0.91666398  1
  C  C30  1  0.33333300  0.66666700  0.06489266  1
  C  C31  1  0.66666700  0.33333300  0.99079593  1
  C  C32  1  0.66666700  0.33333300  0.43514664  1
  C  C33  1  0.66666700  0.33333300  0.13885194  1
  C  C34  1  -0.00000000  -0.00000000  0.47229116  1
  C  C35  1  0.33333300  0.66666700  0.76847838  1
  C  C36  1  0.33333300  0.66666700  0.39814915  1
  C  C37  1  0.33333300  0.66666700  0.62038028  1
  C  C38  1  -0.00000000  0.00000000  0.10186240  1
  C  C39  1  -0.00000000  -0.00000000  0.02774689  1
  C  C40  1  0.66666700  0.33333300  0.21293516  1
  C  C41  1  -0.00000000  -0.00000000  0.95365401  1
  C  C42  1  0.00000000  0.00000000  0.58341120  1
  C  C43  1  -0.00000000  0.00000000  0.69452056  1
  C  C44  1  0.66666700  0.33333300  0.87969695  1
  C  C45  1  0.33333300  0.66666700  0.17599250  1
  C  C46  1  0.00000000  0.00000000  0.36117927  1
  C  C47  1  0.66666700  0.33333300  0.73148694  1
  C  C48  1  0.33333300  0.66666700  0.32403274  1
  C  C49  1  0.66666700  0.33333300  0.65737391  1
  C  C50  1  0.66666700  0.33333300  0.28704227  1
  C  C51  1  0.00000000  0.00000000  0.25007827  1
  C  C52  1  0.33333300  0.66666700  0.54626071  1
  C  C53  1  0.33333300  0.66666700  0.84255793  1
