# generated using pymatgen
data_SnICl
_symmetry_space_group_name_H-M   'P 1'
_cell_length_a   4.41004099
_cell_length_b   8.78950405
_cell_length_c   10.42826698
_cell_angle_alpha   90.00000000
_cell_angle_beta   90.00000000
_cell_angle_gamma   90.00000000
_symmetry_Int_Tables_number   1
_chemical_formula_structural   SnICl
_chemical_formula_sum   'Sn4 I4 Cl4'
_cell_volume   404.22124743
_cell_formula_units_Z   4
loop_
 _symmetry_equiv_pos_site_id
 _symmetry_equiv_pos_as_xyz
  1  'x, y, z'
loop_
 _atom_site_type_symbol
 _atom_site_label
 _atom_site_symmetry_multiplicity
 _atom_site_fract_x
 _atom_site_fract_y
 _atom_site_fract_z
 _atom_site_occupancy
  Sn  Sn0  1  0.75000000  0.63102390  0.85155135  1
  Sn  Sn1  1  0.25000000  0.36897610  0.14844865  1
  Sn  Sn2  1  0.75000000  0.13102390  0.64844865  1
  Sn  Sn3  1  0.25000000  0.86897610  0.35155135  1
  I  I4  1  0.75000000  0.98978058  0.17339022  1
  I  I5  1  0.25000000  0.51021942  0.67339022  1
  I  I6  1  0.75000000  0.48978058  0.32660978  1
  I  I7  1  0.25000000  0.01021942  0.82660978  1
  Cl  Cl8  1  0.25000000  0.64101980  0.05232179  1
  Cl  Cl9  1  0.75000000  0.85898020  0.55232179  1
  Cl  Cl10  1  0.25000000  0.14101980  0.44767821  1
  Cl  Cl11  1  0.75000000  0.35898020  0.94767821  1
