# generated using pymatgen
data_CdI2
_symmetry_space_group_name_H-M   'P 1'
_cell_length_a   4.28514623
_cell_length_b   4.28514576
_cell_length_c   58.23464870
_cell_angle_alpha   90.00000000
_cell_angle_beta   90.00000000
_cell_angle_gamma   119.99998756
_symmetry_Int_Tables_number   1
_chemical_formula_structural   CdI2
_chemical_formula_sum   'Cd8 I16'
_cell_volume   926.06909630
_cell_formula_units_Z   8
loop_
 _symmetry_equiv_pos_site_id
 _symmetry_equiv_pos_as_xyz
  1  'x, y, z'
loop_
 _atom_site_type_symbol
 _atom_site_label
 _atom_site_symmetry_multiplicity
 _atom_site_fract_x
 _atom_site_fract_y
 _atom_site_fract_z
 _atom_site_occupancy
  Cd  Cd0  1  0.33333300  0.66666700  0.53125000  1
  Cd  Cd1  1  0.33333300  0.66666700  0.78123542  1
  Cd  Cd2  1  0.66666700  0.33333300  0.40625613  1
  Cd  Cd3  1  0.33333300  0.66666700  0.03125000  1
  Cd  Cd4  1  0.00000000  -0.00000000  0.65624387  1
  Cd  Cd5  1  0.66666700  0.33333300  0.15624168  1
  Cd  Cd6  1  0.00000000  -0.00000000  0.90625832  1
  Cd  Cd7  1  0.33333300  0.66666700  0.28126458  1
  I  I8  1  0.33333300  0.66666700  0.62662414  1
  I  I9  1  0.00000000  -0.00000000  0.00178250  1
  I  I10  1  -0.00000000  0.00000000  0.37664705  1
  I  I11  1  0.33333300  0.66666700  0.18586089  1
  I  I12  1  0.66666700  0.33333300  0.81071163  1
  I  I13  1  0.66666700  0.33333300  0.56072119  1
  I  I14  1  0.66666700  0.33333300  0.93587410  1
  I  I15  1  0.00000000  0.00000000  0.25178837  1
  I  I16  1  -0.00000000  0.00000000  0.12662590  1
  I  I17  1  0.66666700  0.33333300  0.68585295  1
  I  I18  1  0.66666700  0.33333300  0.06071750  1
  I  I19  1  0.00000000  -0.00000000  0.75178137  1
  I  I20  1  0.33333300  0.66666700  0.43587586  1
  I  I21  1  0.33333300  0.66666700  0.87663911  1
  I  I22  1  0.66666700  0.33333300  0.31071863  1
  I  I23  1  -0.00000000  0.00000000  0.50177881  1
