# generated using pymatgen
data_V2O5
_symmetry_space_group_name_H-M   'P 1'
_cell_length_a   3.55392596
_cell_length_b   6.28727611
_cell_length_c   7.21741889
_cell_angle_alpha   90.13916657
_cell_angle_beta   90.00000000
_cell_angle_gamma   90.00000000
_symmetry_Int_Tables_number   1
_chemical_formula_structural   V2O5
_chemical_formula_sum   'V4 O10'
_cell_volume   161.26924012
_cell_formula_units_Z   2
loop_
 _symmetry_equiv_pos_site_id
 _symmetry_equiv_pos_as_xyz
  1  'x, y, z'
loop_
 _atom_site_type_symbol
 _atom_site_label
 _atom_site_symmetry_multiplicity
 _atom_site_fract_x
 _atom_site_fract_y
 _atom_site_fract_z
 _atom_site_occupancy
  V  V0  1  0.75000100  0.74177789  0.72448814  1
  V  V1  1  0.25000100  0.25822211  0.27551186  1
  V  V2  1  0.75000100  0.19493061  0.90275991  1
  V  V3  1  0.25000100  0.80506939  0.09724009  1
  O  O4  1  0.25000100  0.74034582  0.80873941  1
  O  O5  1  0.75000100  0.25965418  0.19126159  1
  O  O6  1  0.75000100  0.03741924  0.70517152  1
  O  O7  1  0.25000100  0.96258176  0.29482848  1
  O  O8  1  0.75000100  0.44089450  0.82624878  1
  O  O9  1  0.25000100  0.55910550  0.17375122  1
  O  O10  1  0.25000100  0.14565751  0.96887018  1
  O  O11  1  0.75000100  0.67985511  0.51178792  1
  O  O12  1  0.25000100  0.32014489  0.48821208  1
  O  O13  1  0.75000100  0.85434249  0.03112982  1
