# generated using pymatgen
data_NaMo6Cl13
_symmetry_space_group_name_H-M   'P 1'
_cell_length_a   9.01979515
_cell_length_b   9.14039730
_cell_length_c   14.08868671
_cell_angle_alpha   97.02619973
_cell_angle_beta   101.65096644
_cell_angle_gamma   114.39918097
_symmetry_Int_Tables_number   1
_chemical_formula_structural   NaMo6Cl13
_chemical_formula_sum   'Na2 Mo12 Cl26'
_cell_volume   1008.06225547
_cell_formula_units_Z   2
loop_
 _symmetry_equiv_pos_site_id
 _symmetry_equiv_pos_as_xyz
  1  'x, y, z'
loop_
 _atom_site_type_symbol
 _atom_site_label
 _atom_site_symmetry_multiplicity
 _atom_site_fract_x
 _atom_site_fract_y
 _atom_site_fract_z
 _atom_site_occupancy
  Na  Na0  1  0.49698321  0.75375226  0.72691216  1
  Na  Na1  1  0.50301679  0.24624774  0.27308784  1
  Mo  Mo2  1  0.94640289  0.01351458  0.61895715  1
  Mo  Mo3  1  0.05359711  0.98648542  0.38104285  1
  Mo  Mo4  1  0.20040840  0.00216789  0.56350248  1
  Mo  Mo5  1  0.79959160  0.99783211  0.43649752  1
  Mo  Mo6  1  0.10565208  0.22689844  0.52479858  1
  Mo  Mo7  1  0.89434792  0.77310156  0.47520142  1
  Mo  Mo8  1  0.13446773  0.45373469  0.09627167  1
  Mo  Mo9  1  0.86553227  0.54626531  0.90372833  1
  Mo  Mo10  1  0.18587880  0.61859624  0.95841855  1
  Mo  Mo11  1  0.81412120  0.38140376  0.04158145  1
  Mo  Mo12  1  0.04359367  0.68804109  0.08858385  1
  Mo  Mo13  1  0.95640633  0.31195891  0.91141615  1
  Cl  Cl14  1  0.14486452  0.77807582  0.42561903  1
  Cl  Cl15  1  0.85513548  0.22192418  0.57438097  1
  Cl  Cl16  1  0.75870973  0.76933087  0.30164067  1
  Cl  Cl17  1  0.24129027  0.23066913  0.69835933  1
  Cl  Cl18  1  0.34283052  0.20821258  0.47025276  1
  Cl  Cl19  1  0.65716948  0.79178742  0.52974724  1
  Cl  Cl20  1  0.96199826  0.20128089  0.34870999  1
  Cl  Cl21  1  0.03800174  0.79871911  0.65129001  1
  Cl  Cl22  1  0.34619065  0.74792988  0.13417634  1
  Cl  Cl23  1  0.65380935  0.25207012  0.86582366  1
  Cl  Cl24  1  0.98863731  0.52053722  0.21472579  1
  Cl  Cl25  1  0.01136269  0.47946278  0.78527421  1
  Cl  Cl26  1  0.26310774  0.38677108  0.96750266  1
  Cl  Cl27  1  0.73689226  0.61322892  0.03249734  1
  Cl  Cl28  1  0.91046594  0.16217615  0.04648264  1
  Cl  Cl29  1  0.08953406  0.83782385  0.95351736  1
  Cl  Cl30  1  0.46339004  -0.00058439  0.64390984  1
  Cl  Cl31  1  0.53660996  0.00058439  0.35609016  1
  Cl  Cl32  1  0.24574882  0.52674676  0.56352109  1
  Cl  Cl33  1  0.75425118  0.47325324  0.43647891  1
  Cl  Cl34  1  0.31389620  0.40746871  0.23079574  1
  Cl  Cl35  1  0.68610380  0.59253129  0.76920426  1
  Cl  Cl36  1  0.43263993  0.77840397  0.90480132  1
  Cl  Cl37  1  0.56736007  0.22159603  0.09519868  1
  Cl  Cl38  1  0.11777313  0.95680516  0.21165121  1
  Cl  Cl39  1  0.88222687  0.04319484  0.78834879  1
