# generated using pymatgen
data_Na7In3Se8
_symmetry_space_group_name_H-M   'P 1'
_cell_length_a   6.70288694
_cell_length_b   10.45146081
_cell_length_c   13.54245825
_cell_angle_alpha   91.57038223
_cell_angle_beta   90.04357376
_cell_angle_gamma   90.22907991
_symmetry_Int_Tables_number   1
_chemical_formula_structural   Na7In3Se8
_chemical_formula_sum   'Na14 In6 Se16'
_cell_volume   948.35211088
_cell_formula_units_Z   2
loop_
 _symmetry_equiv_pos_site_id
 _symmetry_equiv_pos_as_xyz
  1  'x, y, z'
loop_
 _atom_site_type_symbol
 _atom_site_label
 _atom_site_symmetry_multiplicity
 _atom_site_fract_x
 _atom_site_fract_y
 _atom_site_fract_z
 _atom_site_occupancy
  Na  Na0  1  0.74457699  0.12846455  0.48371302  1
  Na  Na1  1  0.25542301  0.87153545  0.51628698  1
  Na  Na2  1  0.28003072  0.10944628  0.27391911  1
  Na  Na3  1  0.71996928  0.89055372  0.72608089  1
  Na  Na4  1  0.73152208  0.38618370  0.23362351  1
  Na  Na5  1  0.26847792  0.61381630  0.76637649  1
  Na  Na6  1  0.25407693  0.36018825  0.02003833  1
  Na  Na7  1  0.74592307  0.63981175  0.97996167  1
  Na  Na8  1  0.48218227  0.62311063  0.36633207  1
  Na  Na9  1  0.51781773  0.37688937  0.63366793  1
  Na  Na10  1  0.47800066  0.86044132  0.12431772  1
  Na  Na11  1  0.52199934  0.13955868  0.87568228  1
  Na  Na12  1  0.14615389  0.62648797  0.17835113  1
  Na  Na13  1  0.85384611  0.37351203  0.82164887  1
  In  In14  1  0.12767376  0.15632623  0.69527968  1
  In  In15  1  0.87232624  0.84367377  0.30472032  1
  In  In16  1  0.13715962  0.38237829  0.43465054  1
  In  In17  1  0.86284038  0.61762171  0.56534946  1
  In  In18  1  0.13491845  0.88823173  0.92608179  1
  In  In19  1  0.86508155  0.11176827  0.07391821  1
  Se  Se20  1  0.25827699  0.16740549  0.50914256  1
  Se  Se21  1  0.74172301  0.83259451  0.49085744  1
  Se  Se22  1  0.25359568  0.92495876  0.74405155  1
  Se  Se23  1  0.74640432  0.07504124  0.25594845  1
  Se  Se24  1  0.25404792  0.66804159  0.97711616  1
  Se  Se25  1  0.74595208  0.33195841  0.02288384  1
  Se  Se26  1  0.74918444  0.15808737  0.69355729  1
  Se  Se27  1  0.25081556  0.84191263  0.30644271  1
  Se  Se28  1  0.25073090  0.07706183  0.04768219  1
  Se  Se29  1  0.74926910  0.92293817  0.95231781  1
  Se  Se30  1  0.27347982  0.33780217  0.80404873  1
  Se  Se31  1  0.72652018  0.66219783  0.19595127  1
  Se  Se32  1  0.75043766  0.41833906  0.45286398  1
  Se  Se33  1  0.24956234  0.58166094  0.54713602  1
  Se  Se34  1  0.26185962  0.38628663  0.25724435  1
  Se  Se35  1  0.73814038  0.61371337  0.74275565  1
