# generated using pymatgen
data_Sr2NiSe2(ClO3)2
_symmetry_space_group_name_H-M   'P 1'
_cell_length_a   5.34338510
_cell_length_b   12.93989627
_cell_length_c   12.16074126
_cell_angle_alpha   89.99662096
_cell_angle_beta   92.79532141
_cell_angle_gamma   89.99852609
_symmetry_Int_Tables_number   1
_chemical_formula_structural   Sr2NiSe2(ClO3)2
_chemical_formula_sum   'Sr8 Ni4 Se8 Cl8 O24'
_cell_volume   839.82781244
_cell_formula_units_Z   4
loop_
 _symmetry_equiv_pos_site_id
 _symmetry_equiv_pos_as_xyz
  1  'x, y, z'
loop_
 _atom_site_type_symbol
 _atom_site_label
 _atom_site_symmetry_multiplicity
 _atom_site_fract_x
 _atom_site_fract_y
 _atom_site_fract_z
 _atom_site_occupancy
  Sr  Sr0  1  0.48399691  0.39957761  0.26656075  1
  Sr  Sr1  1  0.48405818  0.89958522  0.26659094  1
  Sr  Sr2  1  0.51595778  0.10042625  0.73342445  1
  Sr  Sr3  1  0.51599166  0.60041606  0.73342640  1
  Sr  Sr4  1  0.01597508  0.14955555  0.23339250  1
  Sr  Sr5  1  0.01606009  0.64955765  0.23341845  1
  Sr  Sr6  1  0.98394054  0.35043680  0.76658354  1
  Sr  Sr7  1  0.98400304  0.85045442  0.76659870  1
  Ni  Ni8  1  0.50003874  0.74998150  0.00001514  1
  Ni  Ni9  1  -0.00000380  0.50000925  0.50000904  1
  Ni  Ni10  1  0.49998234  0.25000988  0.00000162  1
  Ni  Ni11  1  -0.00000597  0.00000078  0.50000375  1
  Se  Se12  1  0.50610884  0.12988021  0.42848554  1
  Se  Se13  1  0.50620995  0.62987287  0.42852876  1
  Se  Se14  1  0.00616651  0.12014423  0.92853902  1
  Se  Se15  1  0.00621939  0.62012251  0.92853809  1
  Se  Se16  1  0.99379835  0.37987551  0.07146074  1
  Se  Se17  1  0.99383534  0.87985194  0.07148197  1
  Se  Se18  1  0.49376417  0.37013175  0.57148013  1
  Se  Se19  1  0.49387807  0.87011488  0.57150217  1
  Cl  Cl20  1  0.45935394  0.41059425  0.89651579  1
  Cl  Cl21  1  0.45940562  0.91059092  0.89652897  1
  Cl  Cl22  1  0.54058974  0.08940791  0.10343905  1
  Cl  Cl23  1  0.54063660  0.58937793  0.10346072  1
  Cl  Cl24  1  0.04054958  0.16056795  0.60343994  1
  Cl  Cl25  1  0.04062148  0.66058101  0.60344707  1
  Cl  Cl26  1  0.95938395  0.33944021  0.39653319  1
  Cl  Cl27  1  0.95943308  0.83944404  0.39654673  1
  O  O28  1  0.25603956  0.18780245  0.88007879  1
  O  O29  1  0.25611294  0.68778132  0.88009538  1
  O  O30  1  0.74391702  0.31220759  0.11991912  1
  O  O31  1  0.74395295  0.81219592  0.11993911  1
  O  O32  1  0.75605326  0.06223612  0.38007257  1
  O  O33  1  0.75614872  0.56223336  0.38008806  1
  O  O34  1  0.24385111  0.43776987  0.61993358  1
  O  O35  1  0.24395112  0.93777597  0.61992528  1
  O  O36  1  0.27737457  0.03858781  0.39499602  1
  O  O37  1  0.27747592  0.53856748  0.39502913  1
  O  O38  1  0.77736091  0.21142143  0.89503789  1
  O  O39  1  0.77743164  0.71141503  0.89504959  1
  O  O40  1  0.22259025  0.28858672  0.10496094  1
  O  O41  1  0.22267017  0.78858023  0.10498564  1
  O  O42  1  0.72252383  0.46142405  0.60497470  1
  O  O43  1  0.72262795  0.96140792  0.60499855  1
  O  O44  1  0.94356875  0.03589074  0.82545172  1
  O  O45  1  0.94361069  0.53588772  0.82544589  1
  O  O46  1  0.55641137  0.28586990  0.67456114  1
  O  O47  1  0.55648495  0.78588214  0.67459568  1
  O  O48  1  0.44349597  0.21411674  0.32536525  1
  O  O49  1  0.44358794  0.71411614  0.32542456  1
  O  O50  1  0.05639455  0.46412192  0.17454860  1
  O  O51  1  0.05641368  0.96411333  0.17457066  1
