# generated using pymatgen
data_Zn2SeCl2O3
_symmetry_space_group_name_H-M   'P 1'
_cell_length_a   7.63832277
_cell_length_b   10.23390047
_cell_length_c   15.18587519
_cell_angle_alpha   90.00000000
_cell_angle_beta   90.00000000
_cell_angle_gamma   90.00000000
_symmetry_Int_Tables_number   1
_chemical_formula_structural   Zn2SeCl2O3
_chemical_formula_sum   'Zn16 Se8 Cl16 O24'
_cell_volume   1187.07735772
_cell_formula_units_Z   8
loop_
 _symmetry_equiv_pos_site_id
 _symmetry_equiv_pos_as_xyz
  1  'x, y, z'
loop_
 _atom_site_type_symbol
 _atom_site_label
 _atom_site_symmetry_multiplicity
 _atom_site_fract_x
 _atom_site_fract_y
 _atom_site_fract_z
 _atom_site_occupancy
  Zn  Zn0  1  0.39580958  0.22443097  0.53110882  1
  Zn  Zn1  1  0.35029845  0.49498221  0.38713071  1
  Zn  Zn2  1  0.89580958  0.27556903  0.53110882  1
  Zn  Zn3  1  0.85029845  0.49498221  0.11286929  1
  Zn  Zn4  1  0.60419042  0.72443097  0.03110882  1
  Zn  Zn5  1  0.14970155  0.50501779  0.88713071  1
  Zn  Zn6  1  0.64970155  0.99498221  0.88713071  1
  Zn  Zn7  1  0.35029845  0.00501779  0.11286929  1
  Zn  Zn8  1  0.89580958  0.22443097  0.96889118  1
  Zn  Zn9  1  0.10419042  0.72443097  0.46889118  1
  Zn  Zn10  1  0.85029845  0.00501779  0.38713071  1
  Zn  Zn11  1  0.14970155  0.99498221  0.61286929  1
  Zn  Zn12  1  0.60419042  0.77556903  0.46889118  1
  Zn  Zn13  1  0.64970155  0.50501779  0.61286929  1
  Zn  Zn14  1  0.10419042  0.77556903  0.03110882  1
  Zn  Zn15  1  0.39580958  0.27556903  0.96889118  1
  Se  Se16  1  0.22152873  0.46369015  0.59344383  1
  Se  Se17  1  0.77847127  0.96369015  0.09344383  1
  Se  Se18  1  0.72152873  0.03630985  0.59344383  1
  Se  Se19  1  0.77847127  0.53630985  0.40655617  1
  Se  Se20  1  0.27847127  0.53630985  0.09344383  1
  Se  Se21  1  0.72152873  0.46369015  0.90655617  1
  Se  Se22  1  0.27847127  0.96369015  0.40655617  1
  Se  Se23  1  0.22152873  0.03630985  0.90655617  1
  Cl  Cl24  1  0.33738782  0.40717837  0.79973306  1
  Cl  Cl25  1  0.93317144  0.28595025  0.12044596  1
  Cl  Cl26  1  0.16261218  0.59282163  0.29973306  1
  Cl  Cl27  1  0.16261218  0.90717837  0.20026694  1
  Cl  Cl28  1  0.43317144  0.21404875  0.12044596  1
  Cl  Cl29  1  0.56682856  0.78595025  0.87955404  1
  Cl  Cl30  1  0.66261218  0.59282163  0.20026694  1
  Cl  Cl31  1  0.43317144  0.28595025  0.37955404  1
  Cl  Cl32  1  0.66261218  0.90717837  0.29973306  1
  Cl  Cl33  1  0.93317144  0.21404875  0.37955404  1
  Cl  Cl34  1  0.56682856  0.71404975  0.62044596  1
  Cl  Cl35  1  0.06682856  0.71404975  0.87955404  1
  Cl  Cl36  1  0.06682856  0.78595025  0.62044596  1
  Cl  Cl37  1  0.33738782  0.09282163  0.70026694  1
  Cl  Cl38  1  0.83738782  0.40717837  0.70026694  1
  Cl  Cl39  1  0.83738782  0.09282163  0.79973306  1
  O  O40  1  0.64651997  0.31508400  0.94261429  1
  O  O41  1  0.85348003  0.68491600  0.44261429  1
  O  O42  1  0.78773026  0.04964551  0.99505047  1
  O  O43  1  0.06645790  0.90776879  0.41291713  1
  O  O44  1  0.28773026  0.45035449  0.99505047  1
  O  O45  1  0.78773026  0.45035449  0.50494953  1
  O  O46  1  0.06645790  0.59223121  0.08708287  1
  O  O47  1  0.21226974  0.54964551  0.49505047  1
  O  O48  1  0.35348003  0.68491600  0.05738571  1
  O  O49  1  0.85348003  0.81508400  0.05738571  1
  O  O50  1  0.28773026  0.04964551  0.50494953  1
  O  O51  1  0.71226974  0.54964551  0.00494953  1
  O  O52  1  0.14651997  0.18491600  0.94261429  1
  O  O53  1  0.43354210  0.40776879  0.58708287  1
  O  O54  1  0.21226974  0.95035449  0.00494953  1
  O  O55  1  0.93354210  0.40776879  0.91291713  1
  O  O56  1  0.56645790  0.59223121  0.41291713  1
  O  O57  1  0.71226974  0.95035449  0.49505047  1
  O  O58  1  0.93354210  0.09223121  0.58708287  1
  O  O59  1  0.43354210  0.09223121  0.91291713  1
  O  O60  1  0.64651997  0.18491600  0.55738571  1
  O  O61  1  0.14651997  0.31508400  0.55738571  1
  O  O62  1  0.35348003  0.81508400  0.44261429  1
  O  O63  1  0.56645790  0.90776879  0.08708287  1
