# generated using pymatgen
data_K3PO4
_symmetry_space_group_name_H-M   'P 1'
_cell_length_a   5.93523976
_cell_length_b   8.05900519
_cell_length_c   11.18210995
_cell_angle_alpha   90.00000000
_cell_angle_beta   90.00000000
_cell_angle_gamma   90.00000000
_symmetry_Int_Tables_number   1
_chemical_formula_structural   K3PO4
_chemical_formula_sum   'K12 P4 O16'
_cell_volume   534.86411477
_cell_formula_units_Z   4
loop_
 _symmetry_equiv_pos_site_id
 _symmetry_equiv_pos_as_xyz
  1  'x, y, z'
loop_
 _atom_site_type_symbol
 _atom_site_label
 _atom_site_symmetry_multiplicity
 _atom_site_fract_x
 _atom_site_fract_y
 _atom_site_fract_z
 _atom_site_occupancy
  K  K0  1  0.80520415  0.49259520  0.64378960  1
  K  K1  1  0.19479585  0.99259520  0.35621040  1
  K  K2  1  0.30520415  0.50740480  0.85621040  1
  K  K3  1  0.13539678  0.25000000  0.06892068  1
  K  K4  1  0.63539678  0.75000000  0.43107932  1
  K  K5  1  0.86460322  0.75000000  0.93107932  1
  K  K6  1  0.30520415  0.99259520  0.85621040  1
  K  K7  1  0.36460322  0.25000000  0.56892068  1
  K  K8  1  0.69479585  0.49259520  0.14378960  1
  K  K9  1  0.19479585  0.50740480  0.35621040  1
  K  K10  1  0.80520415  0.00740480  0.64378960  1
  K  K11  1  0.69479585  0.00740480  0.14378960  1
  P  P12  1  0.78219203  0.25000000  0.38454267  1
  P  P13  1  0.71780797  0.25000000  0.88454267  1
  P  P14  1  0.21780797  0.75000000  0.61545733  1
  P  P15  1  0.28219203  0.75000000  0.11545733  1
  O  O16  1  0.05153675  0.75000000  0.50820149  1
  O  O17  1  0.63418571  0.09239260  0.38965282  1
  O  O18  1  0.13418571  0.90760740  0.11034718  1
  O  O19  1  0.86581429  0.40760740  0.88965282  1
  O  O20  1  0.13418571  0.59239260  0.11034718  1
  O  O21  1  0.57784711  0.25000000  0.76769443  1
  O  O22  1  0.36581429  0.90760740  0.61034718  1
  O  O23  1  0.44846325  0.75000000  0.00820149  1
  O  O24  1  0.63418571  0.40760740  0.38965282  1
  O  O25  1  0.92215289  0.25000000  0.26769443  1
  O  O26  1  0.55153675  0.25000000  0.99179851  1
  O  O27  1  0.86581429  0.09239260  0.88965282  1
  O  O28  1  0.36581429  0.59239260  0.61034718  1
  O  O29  1  0.94846325  0.25000000  0.49179851  1
  O  O30  1  0.07784711  0.75000000  0.73230557  1
  O  O31  1  0.42215289  0.75000000  0.23230557  1
