# generated using pymatgen
data_Pb5SO8
_symmetry_space_group_name_H-M   'P 1'
_cell_length_a   11.77648465
_cell_length_b   7.33947494
_cell_length_c   11.64704757
_cell_angle_alpha   89.16667231
_cell_angle_beta   90.00000000
_cell_angle_gamma   90.00000000
_symmetry_Int_Tables_number   1
_chemical_formula_structural   Pb5SO8
_chemical_formula_sum   'Pb20 S4 O32'
_cell_volume   1006.58527971
_cell_formula_units_Z   4
loop_
 _symmetry_equiv_pos_site_id
 _symmetry_equiv_pos_as_xyz
  1  'x, y, z'
loop_
 _atom_site_type_symbol
 _atom_site_label
 _atom_site_symmetry_multiplicity
 _atom_site_fract_x
 _atom_site_fract_y
 _atom_site_fract_z
 _atom_site_occupancy
  Pb  Pb0  1  0.75731789  0.11093273  0.61364326  1
  Pb  Pb1  1  0.25731789  0.88906727  0.88635674  1
  Pb  Pb2  1  0.24268211  0.88906727  0.38635674  1
  Pb  Pb3  1  0.74268211  0.11093273  0.11364326  1
  Pb  Pb4  1  0.09103880  0.12289455  0.60934051  1
  Pb  Pb5  1  0.59103880  0.87710545  0.89065949  1
  Pb  Pb6  1  0.90896120  0.87710545  0.39065949  1
  Pb  Pb7  1  0.40896120  0.12289455  0.10934051  1
  Pb  Pb8  1  0.73977296  0.63051579  0.61313760  1
  Pb  Pb9  1  0.23977296  0.36948421  0.88686240  1
  Pb  Pb10  1  0.26022704  0.36948421  0.38686240  1
  Pb  Pb11  1  0.76022704  0.63051579  0.11313760  1
  Pb  Pb12  1  0.94005766  0.37407241  0.38327163  1
  Pb  Pb13  1  0.44005766  0.62592759  0.11672837  1
  Pb  Pb14  1  0.05994234  0.62592759  0.61672837  1
  Pb  Pb15  1  0.55994234  0.37407241  0.88327163  1
  Pb  Pb16  1  0.57926371  0.86556267  0.37268791  1
  Pb  Pb17  1  0.07926371  0.13443733  0.12731209  1
  Pb  Pb18  1  0.42073629  0.13443733  0.62731209  1
  Pb  Pb19  1  0.92073629  0.86556267  0.87268791  1
  S  S20  1  0.89477945  0.35550027  0.84693881  1
  S  S21  1  0.39477945  0.64449973  0.65306119  1
  S  S22  1  0.10522055  0.64449973  0.15306119  1
  S  S23  1  0.60522055  0.35550027  0.34693881  1
  O  O24  1  0.08374531  0.86678740  0.49104432  1
  O  O25  1  0.58374531  0.13321260  0.00895568  1
  O  O26  1  0.91625469  0.13321260  0.50895568  1
  O  O27  1  0.41625469  0.86678740  0.99104432  1
  O  O28  1  0.90028872  0.60807925  0.50174317  1
  O  O29  1  0.40028872  0.39192075  0.99825683  1
  O  O30  1  0.09971128  0.39192075  0.49825683  1
  O  O31  1  0.59971128  0.60807925  0.00174317  1
  O  O32  1  0.72630586  0.87277228  0.48909744  1
  O  O33  1  0.22630586  0.12722772  0.01090256  1
  O  O34  1  0.27369414  0.12722772  0.51090256  1
  O  O35  1  0.77369414  0.87277228  0.98909744  1
  O  O36  1  0.82681363  0.86275932  0.70796770  1
  O  O37  1  0.32681363  0.13724068  0.79203230  1
  O  O38  1  0.17318637  0.13724068  0.29203230  1
  O  O39  1  0.67318637  0.86275932  0.20796770  1
  O  O40  1  0.90793078  0.37344180  0.72010438  1
  O  O41  1  0.40793078  0.62655820  0.77989562  1
  O  O42  1  0.09206922  0.62655820  0.27989562  1
  O  O43  1  0.59206922  0.37344180  0.22010438  1
  O  O44  1  0.79627750  0.23601248  0.87257909  1
  O  O45  1  0.29627750  0.76398752  0.62742091  1
  O  O46  1  0.20372250  0.76398752  0.12742091  1
  O  O47  1  0.70372250  0.23601248  0.37257909  1
  O  O48  1  0.87169739  0.53870902  0.89468300  1
  O  O49  1  0.37169739  0.46129098  0.60531700  1
  O  O50  1  0.12830261  0.46129098  0.10531700  1
  O  O51  1  0.62830261  0.53870902  0.39468300  1
  O  O52  1  0.99801462  0.27426709  0.89699741  1
  O  O53  1  0.49801462  0.72573291  0.60300259  1
  O  O54  1  0.00198538  0.72573291  0.10300259  1
  O  O55  1  0.50198538  0.27426709  0.39699741  1
