# generated using pymatgen
data_Cs3MnI5
_symmetry_space_group_name_H-M   'P 1'
_cell_length_a   10.33003781
_cell_length_b   10.33003645
_cell_length_c   11.03022578
_cell_angle_alpha   117.94660136
_cell_angle_beta   117.94660429
_cell_angle_gamma   89.95252646
_symmetry_Int_Tables_number   1
_chemical_formula_structural   Cs3MnI5
_chemical_formula_sum   'Cs6 Mn2 I10'
_cell_volume   881.67490407
_cell_formula_units_Z   2
loop_
 _symmetry_equiv_pos_site_id
 _symmetry_equiv_pos_as_xyz
  1  'x, y, z'
loop_
 _atom_site_type_symbol
 _atom_site_label
 _atom_site_symmetry_multiplicity
 _atom_site_fract_x
 _atom_site_fract_y
 _atom_site_fract_z
 _atom_site_occupancy
  Cs  Cs0  1  0.15600259  0.34399741  0.00000000  1
  Cs  Cs1  1  0.25000000  0.25000000  0.50000000  1
  Cs  Cs2  1  0.34405804  0.84405804  0.00000000  1
  Cs  Cs3  1  0.84399741  0.65600259  -0.00000000  1
  Cs  Cs4  1  0.75000000  0.75000000  0.50000000  1
  Cs  Cs5  1  0.65594196  0.15594196  -0.00000000  1
  Mn  Mn6  1  0.24992675  0.74992675  0.49985449  1
  Mn  Mn7  1  0.75007325  0.25007325  0.50014551  1
  I  I8  1  0.19891663  0.99480552  0.69372215  1
  I  I9  1  0.80108337  0.00519448  0.30627785  1
  I  I10  1  0.69941941  0.19941941  0.69445707  1
  I  I11  1  0.50519448  0.30108337  0.30627785  1
  I  I12  1  -0.00000000  -0.00000000  -0.00000000  1
  I  I13  1  0.49480552  0.69891663  0.69372215  1
  I  I14  1  0.00496334  0.50496334  0.30554293  1
  I  I15  1  0.30058059  0.80058059  0.30554293  1
  I  I16  1  0.99503666  0.49503666  0.69445707  1
  I  I17  1  0.50000000  0.50000000  -0.00000000  1
