# generated using pymatgen
data_Nd4Se3O4
_symmetry_space_group_name_H-M   'P 1'
_cell_length_a   4.01690519
_cell_length_b   6.78274544
_cell_length_c   8.46630651
_cell_angle_alpha   89.99987881
_cell_angle_beta   90.00000000
_cell_angle_gamma   107.22423673
_symmetry_Int_Tables_number   1
_chemical_formula_structural   Nd4Se3O4
_chemical_formula_sum   'Nd4 Se3 O4'
_cell_volume   220.32517157
_cell_formula_units_Z   1
loop_
 _symmetry_equiv_pos_site_id
 _symmetry_equiv_pos_as_xyz
  1  'x, y, z'
loop_
 _atom_site_type_symbol
 _atom_site_label
 _atom_site_symmetry_multiplicity
 _atom_site_fract_x
 _atom_site_fract_y
 _atom_site_fract_z
 _atom_site_occupancy
  Nd  Nd0  1  0.68340067  0.36679934  0.23758298  1
  Nd  Nd1  1  0.68340067  0.36679934  0.76241602  1
  Nd  Nd2  1  0.00139028  0.00278057  0.99999900  1
  Nd  Nd3  1  0.01686072  0.03372145  0.50000000  1
  Se  Se4  1  0.35511674  0.71023349  0.35181351  1
  Se  Se5  1  0.31456781  0.62913562  0.00000000  1
  Se  Se6  1  0.35511674  0.71023449  0.64818949  1
  O  O7  1  0.08811129  0.17622259  0.75570023  1
  O  O8  1  0.58892158  0.17784116  -0.00000000  1
  O  O9  1  0.61482318  0.22964636  0.50000000  1
  O  O10  1  0.08811129  0.17622259  0.24429977  1
