# generated using pymatgen
data_Sr(Li2P)2
_symmetry_space_group_name_H-M   'P 1'
_cell_length_a   8.22360054
_cell_length_b   8.22360022
_cell_length_c   8.22360022
_cell_angle_alpha   30.12255966
_cell_angle_beta   30.12256594
_cell_angle_gamma   30.12256021
_symmetry_Int_Tables_number   1
_chemical_formula_structural   Sr(Li2P)2
_chemical_formula_sum   'Sr1 Li4 P2'
_cell_volume   124.09152381
_cell_formula_units_Z   1
loop_
 _symmetry_equiv_pos_site_id
 _symmetry_equiv_pos_as_xyz
  1  'x, y, z'
loop_
 _atom_site_type_symbol
 _atom_site_label
 _atom_site_symmetry_multiplicity
 _atom_site_fract_x
 _atom_site_fract_y
 _atom_site_fract_z
 _atom_site_occupancy
  Sr  Sr0  1  -0.00000000  0.00000000  -0.00000000  1
  Li  Li1  1  0.42982929  0.42982929  0.42982929  1
  Li  Li2  1  0.13797511  0.13797511  0.13797511  1
  Li  Li3  1  0.57017071  0.57017071  0.57017071  1
  Li  Li4  1  0.86202489  0.86202489  0.86202489  1
  P  P5  1  0.75452378  0.75452378  0.75452378  1
  P  P6  1  0.24547622  0.24547622  0.24547622  1
