# generated using pymatgen
data_KSnS4
_symmetry_space_group_name_H-M   'P 1'
_cell_length_a   10.06523343
_cell_length_b   9.65782084
_cell_length_c   14.61250626
_cell_angle_alpha   68.70655087
_cell_angle_beta   90.00000000
_cell_angle_gamma   90.00000000
_symmetry_Int_Tables_number   1
_chemical_formula_structural   KSnS4
_chemical_formula_sum   'K8 Sn8 S32'
_cell_volume   1323.48513875
_cell_formula_units_Z   8
loop_
 _symmetry_equiv_pos_site_id
 _symmetry_equiv_pos_as_xyz
  1  'x, y, z'
loop_
 _atom_site_type_symbol
 _atom_site_label
 _atom_site_symmetry_multiplicity
 _atom_site_fract_x
 _atom_site_fract_y
 _atom_site_fract_z
 _atom_site_occupancy
  K  K0  1  0.36187492  0.85566640  0.79725671  1
  K  K1  1  0.86187492  0.14433360  0.70274329  1
  K  K2  1  0.63812508  0.14433360  0.20274329  1
  K  K3  1  0.13812508  0.85566640  0.29725671  1
  K  K4  1  0.27286700  0.37332329  0.59630720  1
  K  K5  1  0.77286700  0.62667671  0.90369280  1
  K  K6  1  0.72713300  0.62667671  0.40369280  1
  K  K7  1  0.22713300  0.37332329  0.09630720  1
  Sn  Sn8  1  0.17309378  0.98668858  0.98412314  1
  Sn  Sn9  1  0.67309378  0.01331142  0.51587686  1
  Sn  Sn10  1  0.82690622  0.01331142  0.01587686  1
  Sn  Sn11  1  0.32690622  0.98668858  0.48412314  1
  Sn  Sn12  1  0.00012877  0.81030656  0.59450525  1
  Sn  Sn13  1  0.50012877  0.18969344  0.90549475  1
  Sn  Sn14  1  -0.00012877  0.18969344  0.40549475  1
  Sn  Sn15  1  0.49987123  0.81030656  0.09450525  1
  S  S16  1  0.27508871  0.74458684  0.03561228  1
  S  S17  1  0.77508871  0.25541316  0.46438772  1
  S  S18  1  0.72491129  0.25541316  0.96438772  1
  S  S19  1  0.22491129  0.74458684  0.53561228  1
  S  S20  1  0.04029267  0.07996097  0.08613284  1
  S  S21  1  0.54029267  0.92003903  0.41386716  1
  S  S22  1  0.95970733  0.92003903  0.91386716  1
  S  S23  1  0.45970733  0.07996097  0.58613284  1
  S  S24  1  0.89952785  0.93518202  0.42300056  1
  S  S25  1  0.39952785  0.06481798  0.07699944  1
  S  S26  1  0.10047215  0.06481798  0.57699944  1
  S  S27  1  0.60047215  0.93518202  0.92300056  1
  S  S28  1  0.06689395  0.71119926  0.77935170  1
  S  S29  1  0.56689395  0.28880074  0.72064830  1
  S  S30  1  0.93310605  0.28880074  0.22064830  1
  S  S31  1  0.43310605  0.71119926  0.27935170  1
  S  S32  1  0.27176279  0.15308521  0.83448824  1
  S  S33  1  0.77176279  0.84691479  0.66551176  1
  S  S34  1  0.72823721  0.84691479  0.16551176  1
  S  S35  1  0.22823721  0.15308521  0.33448824  1
  S  S36  1  0.14338835  0.50590274  0.80393002  1
  S  S37  1  0.64338835  0.49409726  0.69606998  1
  S  S38  1  0.85661165  0.49409726  0.19606998  1
  S  S39  1  0.35661165  0.50590274  0.30393002  1
  S  S40  1  0.34403019  0.53899107  0.77187194  1
  S  S41  1  0.84403019  0.46100893  0.72812806  1
  S  S42  1  0.65596981  0.46100893  0.22812806  1
  S  S43  1  0.15596981  0.53899107  0.27187194  1
  S  S44  1  0.44043794  0.45297218  0.90321110  1
  S  S45  1  0.94043794  0.54702782  0.59678890  1
  S  S46  1  0.55956206  0.54702782  0.09678890  1
  S  S47  1  0.05956206  0.45297218  0.40321110  1
