# generated using pymatgen
data_Y2WO6
_symmetry_space_group_name_H-M   'P 1'
_cell_length_a   5.34517835
_cell_length_b   7.63113137
_cell_length_c   11.37056694
_cell_angle_alpha   75.49457358
_cell_angle_beta   90.00000000
_cell_angle_gamma   90.00000000
_symmetry_Int_Tables_number   1
_chemical_formula_structural   Y2WO6
_chemical_formula_sum   'Y8 W4 O24'
_cell_volume   449.01846596
_cell_formula_units_Z   4
loop_
 _symmetry_equiv_pos_site_id
 _symmetry_equiv_pos_as_xyz
  1  'x, y, z'
loop_
 _atom_site_type_symbol
 _atom_site_label
 _atom_site_symmetry_multiplicity
 _atom_site_fract_x
 _atom_site_fract_y
 _atom_site_fract_z
 _atom_site_occupancy
  Y  Y0  1  0.18671539  0.79671891  0.07786249  1
  Y  Y1  1  0.26113223  -0.00000000  0.75000000  1
  Y  Y2  1  0.73886777  -0.00000000  0.25000000  1
  Y  Y3  1  0.31749807  0.50000000  0.75000000  1
  Y  Y4  1  0.18671539  0.20328109  0.42213751  1
  Y  Y5  1  0.68250193  0.50000000  0.25000000  1
  Y  Y6  1  0.81328461  0.20328109  0.92213751  1
  Y  Y7  1  0.81328461  0.79671891  0.57786249  1
  W  W8  1  0.74586939  0.72203050  0.88627333  1
  W  W9  1  0.25413061  0.72203050  0.38627333  1
  W  W10  1  0.74586939  0.27796950  0.61372667  1
  W  W11  1  0.25413061  0.27796950  0.11372667  1
  O  O12  1  0.84637969  0.36590455  0.45205351  1
  O  O13  1  0.47426703  0.84994209  0.92988871  1
  O  O14  1  0.84637969  0.63409545  0.04794649  1
  O  O15  1  0.01537318  0.28912304  0.72834036  1
  O  O16  1  0.98462682  0.28912304  0.22834036  1
  O  O17  1  0.15362031  0.36590455  0.95205351  1
  O  O18  1  0.64258982  0.49035970  0.88695052  1
  O  O19  1  0.52573297  0.15005791  0.07011129  1
  O  O20  1  0.15362031  0.63409545  0.54794649  1
  O  O21  1  0.01537318  0.71087696  0.77165964  1
  O  O22  1  0.46139119  0.21326594  0.27169927  1
  O  O23  1  0.04027548  0.93733232  0.39627454  1
  O  O24  1  0.47426703  0.15005791  0.57011129  1
  O  O25  1  0.98462682  0.71087696  0.27165964  1
  O  O26  1  0.95972452  0.06266768  0.60372546  1
  O  O27  1  0.53860881  0.21326594  0.77169927  1
  O  O28  1  0.53860881  0.78673406  0.72830073  1
  O  O29  1  0.04027548  0.06266768  0.10372546  1
  O  O30  1  0.64258982  0.50964030  0.61304948  1
  O  O31  1  0.35741018  0.50964030  0.11304948  1
  O  O32  1  0.46139119  0.78673406  0.22830073  1
  O  O33  1  0.35741018  0.49035970  0.38695052  1
  O  O34  1  0.52573297  0.84994209  0.42988871  1
  O  O35  1  0.95972452  0.93733232  0.89627454  1
