# generated using pymatgen
data_NaMnF3
_symmetry_space_group_name_H-M   'P 1'
_cell_length_a   5.48554473
_cell_length_b   5.72833986
_cell_length_c   7.94483284
_cell_angle_alpha   90.00000000
_cell_angle_beta   90.00000000
_cell_angle_gamma   90.00000000
_symmetry_Int_Tables_number   1
_chemical_formula_structural   NaMnF3
_chemical_formula_sum   'Na4 Mn4 F12'
_cell_volume   249.65099502
_cell_formula_units_Z   4
loop_
 _symmetry_equiv_pos_site_id
 _symmetry_equiv_pos_as_xyz
  1  'x, y, z'
loop_
 _atom_site_type_symbol
 _atom_site_label
 _atom_site_symmetry_multiplicity
 _atom_site_fract_x
 _atom_site_fract_y
 _atom_site_fract_z
 _atom_site_occupancy
  Na  Na0  1  0.48260187  0.93810040  0.25000000  1
  Na  Na1  1  0.98260187  0.56189960  0.75000000  1
  Na  Na2  1  0.01739813  0.43810040  0.25000000  1
  Na  Na3  1  0.51739813  0.06189960  0.75000000  1
  Mn  Mn4  1  0.50000000  0.50000000  0.00000000  1
  Mn  Mn5  1  0.00000000  -0.00000000  0.00000000  1
  Mn  Mn6  1  0.00000000  -0.00000000  0.50000000  1
  Mn  Mn7  1  0.50000000  0.50000000  0.50000000  1
  F  F8  1  0.62497628  0.55698937  0.25000000  1
  F  F9  1  0.12497628  0.94301063  0.75000000  1
  F  F10  1  0.87502372  0.05698937  0.25000000  1
  F  F11  1  0.37502372  0.44301063  0.75000000  1
  F  F12  1  0.81081003  0.30590667  0.93386861  1
  F  F13  1  0.31081003  0.19409333  0.06613139  1
  F  F14  1  0.68918997  0.80590667  0.56613139  1
  F  F15  1  0.18918997  0.69409333  0.43386861  1
  F  F16  1  0.81081003  0.30590667  0.56613139  1
  F  F17  1  0.31081003  0.19409333  0.43386861  1
  F  F18  1  0.68918997  0.80590667  0.93386861  1
  F  F19  1  0.18918997  0.69409333  0.06613139  1
