# generated using pymatgen
data_MnTlCl3
_symmetry_space_group_name_H-M   'P 1'
_cell_length_a   3.82193433
_cell_length_b   8.99668546
_cell_length_c   14.68728821
_cell_angle_alpha   90.00000000
_cell_angle_beta   90.00000000
_cell_angle_gamma   90.00000000
_symmetry_Int_Tables_number   1
_chemical_formula_structural   MnTlCl3
_chemical_formula_sum   'Mn4 Tl4 Cl12'
_cell_volume   505.01860133
_cell_formula_units_Z   4
loop_
 _symmetry_equiv_pos_site_id
 _symmetry_equiv_pos_as_xyz
  1  'x, y, z'
loop_
 _atom_site_type_symbol
 _atom_site_label
 _atom_site_symmetry_multiplicity
 _atom_site_fract_x
 _atom_site_fract_y
 _atom_site_fract_z
 _atom_site_occupancy
  Mn  Mn0  1  0.75000000  0.83685481  0.94600316  1
  Mn  Mn1  1  0.25000000  0.16314519  0.05399684  1
  Mn  Mn2  1  0.25000000  0.66314519  0.44600316  1
  Mn  Mn3  1  0.75000000  0.33685481  0.55399684  1
  Tl  Tl4  1  0.75000000  0.55699482  0.17642475  1
  Tl  Tl5  1  0.25000000  0.44300518  0.82357525  1
  Tl  Tl6  1  0.25000000  0.94300518  0.67642475  1
  Tl  Tl7  1  0.75000000  0.05699482  0.32357525  1
  Cl  Cl8  1  0.25000000  0.27494379  0.20486168  1
  Cl  Cl9  1  0.75000000  0.82325303  0.50368485  1
  Cl  Cl10  1  0.75000000  0.47875090  0.40136913  1
  Cl  Cl11  1  0.75000000  0.97875090  0.09863187  1
  Cl  Cl12  1  0.75000000  0.32325303  0.99631515  1
  Cl  Cl13  1  0.25000000  0.02124910  0.90136813  1
  Cl  Cl14  1  0.75000000  0.22505621  0.70486168  1
  Cl  Cl15  1  0.25000000  0.52124910  0.59863187  1
  Cl  Cl16  1  0.25000000  0.17674697  0.49631515  1
  Cl  Cl17  1  0.25000000  0.77494379  0.29513832  1
  Cl  Cl18  1  0.25000000  0.67674697  0.00368485  1
  Cl  Cl19  1  0.75000000  0.72505621  0.79513832  1
