# generated using pymatgen
data_Nd3SiS6Cl
_symmetry_space_group_name_H-M   'P 1'
_cell_length_a   10.45834107
_cell_length_b   12.56249387
_cell_length_c   16.35123141
_cell_angle_alpha   90.00000000
_cell_angle_beta   90.00000000
_cell_angle_gamma   90.00000000
_symmetry_Int_Tables_number   1
_chemical_formula_structural   Nd3SiS6Cl
_chemical_formula_sum   'Nd24 Si8 S48 Cl8'
_cell_volume   2148.27131142
_cell_formula_units_Z   8
loop_
 _symmetry_equiv_pos_site_id
 _symmetry_equiv_pos_as_xyz
  1  'x, y, z'
loop_
 _atom_site_type_symbol
 _atom_site_label
 _atom_site_symmetry_multiplicity
 _atom_site_fract_x
 _atom_site_fract_y
 _atom_site_fract_z
 _atom_site_occupancy
  Nd  Nd0  1  0.25000000  0.37687810  0.63872654  1
  Nd  Nd1  1  0.96430140  0.61764085  0.88819184  1
  Nd  Nd2  1  0.25000000  0.11357113  0.12532062  1
  Nd  Nd3  1  0.46430140  0.38235915  0.11180816  1
  Nd  Nd4  1  0.25000000  0.87687810  0.86127346  1
  Nd  Nd5  1  0.53569860  0.61764085  0.88819184  1
  Nd  Nd6  1  0.25000000  0.61357113  0.37467938  1
  Nd  Nd7  1  0.54343679  0.31282324  0.40549867  1
  Nd  Nd8  1  0.04343679  0.68717676  0.59450133  1
  Nd  Nd9  1  0.95656321  0.31282324  0.40549867  1
  Nd  Nd10  1  0.45656321  0.18717676  0.90549867  1
  Nd  Nd11  1  0.95656321  0.81282324  0.09450133  1
  Nd  Nd12  1  0.45656321  0.68717676  0.59450133  1
  Nd  Nd13  1  0.03569860  0.38235915  0.11180816  1
  Nd  Nd14  1  0.96430140  0.11764085  0.61180816  1
  Nd  Nd15  1  0.53569860  0.11764085  0.61180816  1
  Nd  Nd16  1  0.75000000  0.12312190  0.13872654  1
  Nd  Nd17  1  0.04343679  0.18717676  0.90549867  1
  Nd  Nd18  1  0.46430140  0.88235915  0.38819184  1
  Nd  Nd19  1  0.03569860  0.88235915  0.38819184  1
  Nd  Nd20  1  0.75000000  0.88642887  0.87467938  1
  Nd  Nd21  1  0.54343679  0.81282324  0.09450133  1
  Nd  Nd22  1  0.75000000  0.38642887  0.62532062  1
  Nd  Nd23  1  0.75000000  0.62312190  0.36127346  1
  Si  Si24  1  0.25000000  0.33450740  0.27803349  1
  Si  Si25  1  0.25000000  0.83450740  0.22196651  1
  Si  Si26  1  0.75000000  0.16549260  0.77803349  1
  Si  Si27  1  0.25000000  0.61614677  0.76014563  1
  Si  Si28  1  0.75000000  0.88385323  0.26014563  1
  Si  Si29  1  0.75000000  0.66549260  0.72196651  1
  Si  Si30  1  0.25000000  0.11614677  0.73985437  1
  Si  Si31  1  0.75000000  0.38385323  0.23985437  1
  S  S32  1  0.75000000  0.02293770  0.70908078  1
  S  S33  1  0.00952974  0.34308902  0.56966412  1
  S  S34  1  0.75000000  0.62074828  0.59761341  1
  S  S35  1  0.25000000  0.06236300  0.95401804  1
  S  S36  1  0.58357085  0.97139449  0.23049400  1
  S  S37  1  0.50952974  0.65691098  0.43033588  1
  S  S38  1  0.25000000  0.97706230  0.29091922  1
  S  S39  1  0.40900356  0.73920866  0.25291375  1
  S  S40  1  0.99047026  0.15691098  0.06966412  1
  S  S41  1  0.49047026  0.34308902  0.56966412  1
  S  S42  1  0.75000000  0.68645147  0.97255490  1
  S  S43  1  0.25000000  0.56236300  0.54598196  1
  S  S44  1  0.25000000  0.47706230  0.20908078  1
  S  S45  1  0.09099644  0.23920866  0.24708625  1
  S  S46  1  0.41642915  0.52860551  0.73049400  1
  S  S47  1  0.25000000  0.76797165  0.69941163  1
  S  S48  1  0.75000000  0.23202835  0.30058837  1
  S  S49  1  0.75000000  0.35625924  0.11235435  1
  S  S50  1  0.75000000  0.85625924  0.38764565  1
  S  S51  1  0.08357085  0.52860551  0.73049400  1
  S  S52  1  0.25000000  0.64374076  0.88764565  1
  S  S53  1  0.75000000  0.18645147  0.52744510  1
  S  S54  1  0.91642915  0.47139449  0.26950600  1
  S  S55  1  0.09099644  0.73920866  0.25291375  1
  S  S56  1  0.99047026  0.65691098  0.43033588  1
  S  S57  1  0.75000000  0.43763700  0.45401804  1
  S  S58  1  0.75000000  0.12074828  0.90238659  1
  S  S59  1  0.25000000  0.14374076  0.61235435  1
  S  S60  1  0.50952974  0.15691098  0.06966412  1
  S  S61  1  0.25000000  0.87925172  0.09761341  1
  S  S62  1  0.25000000  0.37925172  0.40238659  1
  S  S63  1  0.91642915  0.97139449  0.23049400  1
  S  S64  1  0.25000000  0.81354853  0.47255490  1
  S  S65  1  0.00952974  0.84308902  0.93033588  1
  S  S66  1  0.41642915  0.02860551  0.76950600  1
  S  S67  1  0.59099644  0.26079134  0.74708625  1
  S  S68  1  0.40900356  0.23920866  0.24708625  1
  S  S69  1  0.59099644  0.76079134  0.75291375  1
  S  S70  1  0.75000000  0.93763700  0.04598196  1
  S  S71  1  0.08357085  0.02860551  0.76950600  1
  S  S72  1  0.25000000  0.26797165  0.80058837  1
  S  S73  1  0.90900356  0.26079134  0.74708625  1
  S  S74  1  0.49047026  0.84308902  0.93033588  1
  S  S75  1  0.58357085  0.47139449  0.26950600  1
  S  S76  1  0.90900356  0.76079134  0.75291375  1
  S  S77  1  0.75000000  0.52293770  0.79091922  1
  S  S78  1  0.25000000  0.31354853  0.02744510  1
  S  S79  1  0.75000000  0.73202835  0.19941163  1
  Cl  Cl80  1  0.95475588  0.89669374  0.55993326  1
  Cl  Cl81  1  0.54524412  0.39669374  0.94006674  1
  Cl  Cl82  1  0.54524412  0.89669374  0.55993326  1
  Cl  Cl83  1  0.04524412  0.10330626  0.44006674  1
  Cl  Cl84  1  0.95475588  0.39669374  0.94006674  1
  Cl  Cl85  1  0.45475588  0.10330626  0.44006674  1
  Cl  Cl86  1  0.04524412  0.60330626  0.05993326  1
  Cl  Cl87  1  0.45475588  0.60330626  0.05993326  1
