# generated using pymatgen
data_Na2Ti6O13
_symmetry_space_group_name_H-M   'P 1'
_cell_length_a   7.77943170
_cell_length_b   7.77943170
_cell_length_c   9.21775820
_cell_angle_alpha   81.35289405
_cell_angle_beta   81.35289405
_cell_angle_gamma   27.76819959
_symmetry_Int_Tables_number   1
_chemical_formula_structural   Na2Ti6O13
_chemical_formula_sum   'Na2 Ti6 O13'
_cell_volume   256.76614826
_cell_formula_units_Z   1
loop_
 _symmetry_equiv_pos_site_id
 _symmetry_equiv_pos_as_xyz
  1  'x, y, z'
loop_
 _atom_site_type_symbol
 _atom_site_label
 _atom_site_symmetry_multiplicity
 _atom_site_fract_x
 _atom_site_fract_y
 _atom_site_fract_z
 _atom_site_occupancy
  Na  Na0  1  0.53773495  0.53773495  0.26872869  1
  Na  Na1  1  0.46226505  0.46226505  0.73127131  1
  Ti  Ti2  1  0.16552681  0.16552681  0.56475398  1
  Ti  Ti3  1  0.83447319  0.83447319  0.43524602  1
  Ti  Ti4  1  0.11486969  0.11486969  0.90444139  1
  Ti  Ti5  1  0.88513031  0.88513031  0.09555861  1
  Ti  Ti6  1  0.77287818  0.77287818  0.76915977  1
  Ti  Ti7  1  0.22712182  0.22712182  0.23084023  1
  O  O8  1  0.16257941  0.16257941  0.08694997  1
  O  O9  1  0.83742059  0.83742059  0.91305003  1
  O  O10  1  0.35556981  0.35556981  0.11849301  1
  O  O11  1  0.64443019  0.64443019  0.88150699  1
  O  O12  1  0.12575499  0.12575499  0.38583325  1
  O  O13  1  0.87424501  0.87424501  0.61416675  1
  O  O14  1  0.29721810  0.29721810  0.42880649  1
  O  O15  1  0.70278190  0.70278190  0.57119351  1
  O  O16  1  -0.00000000  -0.00000000  -0.00000000  1
  O  O17  1  0.75940514  0.75940514  0.24687795  1
  O  O18  1  0.24059486  0.24059486  0.75312205  1
  O  O19  1  0.93065356  0.93065356  0.29166603  1
  O  O20  1  0.06934644  0.06934644  0.70833397  1
