# generated using pymatgen
data_ScIO
_symmetry_space_group_name_H-M   'P 1'
_cell_length_a   3.87755168
_cell_length_b   7.24030987
_cell_length_c   10.14776031
_cell_angle_alpha   93.36188932
_cell_angle_beta   100.90354201
_cell_angle_gamma   90.00715686
_symmetry_Int_Tables_number   1
_chemical_formula_structural   ScIO
_chemical_formula_sum   'Sc4 I4 O4'
_cell_volume   279.25215104
_cell_formula_units_Z   4
loop_
 _symmetry_equiv_pos_site_id
 _symmetry_equiv_pos_as_xyz
  1  'x, y, z'
loop_
 _atom_site_type_symbol
 _atom_site_label
 _atom_site_symmetry_multiplicity
 _atom_site_fract_x
 _atom_site_fract_y
 _atom_site_fract_z
 _atom_site_occupancy
  Sc  Sc0  1  0.29686921  0.38361200  0.59478857  1
  Sc  Sc1  1  0.70150263  0.11754345  0.40203776  1
  Sc  Sc2  1  0.70313079  0.61638800  0.40521143  1
  Sc  Sc3  1  0.29849737  0.88245655  0.59796224  1
  I  I4  1  0.10391085  0.35170159  0.21263463  1
  I  I5  1  0.41110794  0.15570490  0.82417325  1
  I  I6  1  0.58889206  0.84429510  0.17582675  1
  I  I7  1  0.89608915  0.64829841  0.78736537  1
  O  O8  1  0.24508464  0.62818621  0.48974995  1
  O  O9  1  0.75529109  0.88000168  0.51066031  1
  O  O10  1  0.75491536  0.37181379  0.51025005  1
  O  O11  1  0.24470891  0.11999832  0.48933969  1
