# generated using pymatgen
data_P3NCl12
_symmetry_space_group_name_H-M   'P 1'
_cell_length_a   21.08698296
_cell_length_b   11.74099133
_cell_length_c   14.51002047
_cell_angle_alpha   73.84356685
_cell_angle_beta   90.00000000
_cell_angle_gamma   90.00000000
_symmetry_Int_Tables_number   1
_chemical_formula_structural   P3NCl12
_chemical_formula_sum   'P24 N8 Cl96'
_cell_volume   3450.54040802
_cell_formula_units_Z   8
loop_
 _symmetry_equiv_pos_site_id
 _symmetry_equiv_pos_as_xyz
  1  'x, y, z'
loop_
 _atom_site_type_symbol
 _atom_site_label
 _atom_site_symmetry_multiplicity
 _atom_site_fract_x
 _atom_site_fract_y
 _atom_site_fract_z
 _atom_site_occupancy
  P  P0  1  0.70752660  0.92882306  0.13136250  1
  P  P1  1  0.46892518  0.79131286  0.66535883  1
  P  P2  1  0.77592150  0.01163137  0.95145640  1
  P  P3  1  0.03741704  0.75482425  0.65604761  1
  P  P4  1  0.71723988  0.41480295  0.06307541  1
  P  P5  1  0.28276012  0.58519705  0.93692459  1
  P  P6  1  0.72407850  0.51163137  0.45145640  1
  P  P7  1  0.96892518  0.70868714  0.83464117  1
  P  P8  1  0.47121673  0.76051230  0.28344315  1
  P  P9  1  0.53107482  0.20868714  0.33464117  1
  P  P10  1  0.46258296  0.25482425  0.15604761  1
  P  P11  1  0.52878327  0.23948770  0.71655685  1
  P  P12  1  0.27592150  0.48836863  0.54854360  1
  P  P13  1  0.20752660  0.57117694  0.36863750  1
  P  P14  1  0.22407850  0.98836863  0.04854360  1
  P  P15  1  0.78276012  0.91480295  0.56307541  1
  P  P16  1  0.96258296  0.24517575  0.34395239  1
  P  P17  1  0.03107482  0.29131286  0.16535883  1
  P  P18  1  0.79247340  0.42882306  0.63136250  1
  P  P19  1  0.97121673  0.73948770  0.21655685  1
  P  P20  1  0.21723988  0.08519705  0.43692459  1
  P  P21  1  0.53741704  0.74517575  0.84395239  1
  P  P22  1  0.02878327  0.26051230  0.78344315  1
  P  P23  1  0.29247340  0.07117694  0.86863750  1
  N  N24  1  0.01627071  0.29462712  0.26972665  1
  N  N25  1  0.23938906  0.01118133  0.94020193  1
  N  N26  1  0.48372929  0.79462712  0.76972665  1
  N  N27  1  0.51627071  0.20537288  0.23027335  1
  N  N28  1  0.76061094  0.98881867  0.05979807  1
  N  N29  1  0.26061094  0.51118133  0.44020193  1
  N  N30  1  0.98372929  0.70537288  0.73027335  1
  N  N31  1  0.73938906  0.48881867  0.55979807  1
  Cl  Cl32  1  0.40916949  0.85368231  0.35356228  1
  Cl  Cl33  1  0.44898825  0.42646873  0.12989784  1
  Cl  Cl34  1  0.78286825  0.86427648  0.91181021  1
  Cl  Cl35  1  0.69614106  0.76021815  0.13858518  1
  Cl  Cl36  1  0.45462756  0.62995149  0.65561721  1
  Cl  Cl37  1  0.53456891  0.66805666  0.21161539  1
  Cl  Cl38  1  0.22060768  0.50154662  0.85796746  1
  Cl  Cl39  1  0.79881059  0.33716389  0.01206880  1
  Cl  Cl40  1  0.53742338  0.85753887  0.57411090  1
  Cl  Cl41  1  0.29881059  0.16283611  0.48793120  1
  Cl  Cl42  1  0.72060768  0.99845338  0.64203254  1
  Cl  Cl43  1  0.61997285  0.82021938  0.80250014  1
  Cl  Cl44  1  0.89183788  0.82967691  0.25695199  1
  Cl  Cl45  1  0.94898825  0.07353127  0.37010216  1
  Cl  Cl46  1  0.44799095  0.14897283  0.67708399  1
  Cl  Cl47  1  0.71025729  0.26146541  0.18540722  1
  Cl  Cl48  1  0.12424725  0.49579290  0.40145271  1
  Cl  Cl49  1  0.96192148  0.59789174  0.34974888  1
  Cl  Cl50  1  0.39235421  0.88350395  0.61843913  1
  Cl  Cl51  1  0.54537244  0.37004851  0.34438279  1
  Cl  Cl52  1  0.35722705  0.40678804  0.57763509  1
  Cl  Cl53  1  0.80385894  0.26021815  0.63858518  1
  Cl  Cl54  1  0.84405742  0.83396371  0.48234470  1
  Cl  Cl55  1  0.78974271  0.76146541  0.68540722  1
  Cl  Cl56  1  0.85722705  0.09321196  0.92236491  1
  Cl  Cl57  1  0.48381836  0.22468395  0.03369016  1
  Cl  Cl58  1  0.86370913  0.99397269  0.61313976  1
  Cl  Cl59  1  0.36370913  0.50602731  0.88686024  1
  Cl  Cl60  1  0.38002715  0.17978062  0.19749986  1
  Cl  Cl61  1  0.98136129  0.88006569  0.08569574  1
  Cl  Cl62  1  0.96257662  0.35753887  0.07411090  1
  Cl  Cl63  1  0.59083051  0.14631769  0.64643772  1
  Cl  Cl64  1  0.63629087  0.49397269  0.11313976  1
  Cl  Cl65  1  0.51618164  0.77531605  0.96630984  1
  Cl  Cl66  1  0.22905288  0.56270269  0.23975985  1
  Cl  Cl67  1  0.30385894  0.23978185  0.86141482  1
  Cl  Cl68  1  0.01618164  0.72468395  0.53369016  1
  Cl  Cl69  1  0.72541128  0.57015237  0.93949615  1
  Cl  Cl70  1  0.27458872  0.42984763  0.06050385  1
  Cl  Cl71  1  0.46543109  0.33194334  0.78838461  1
  Cl  Cl72  1  0.27939232  0.00154662  0.35796746  1
  Cl  Cl73  1  0.77939232  0.49845338  0.14203254  1
  Cl  Cl74  1  0.96543109  0.16805666  0.71161539  1
  Cl  Cl75  1  0.03742338  0.64246113  0.92588910  1
  Cl  Cl76  1  0.77458872  0.07015237  0.43949615  1
  Cl  Cl77  1  0.37575275  0.99579290  0.90145271  1
  Cl  Cl78  1  0.11997285  0.67978062  0.69749986  1
  Cl  Cl79  1  0.90916949  0.64631769  0.14643772  1
  Cl  Cl80  1  0.21165995  0.39108919  0.63323043  1
  Cl  Cl81  1  0.28834005  0.89108919  0.13323043  1
  Cl  Cl82  1  0.71713175  0.36427648  0.41181021  1
  Cl  Cl83  1  0.55200905  0.85102717  0.32291601  1
  Cl  Cl84  1  0.28974271  0.73853459  0.81459278  1
  Cl  Cl85  1  0.03807852  0.40210826  0.65025112  1
  Cl  Cl86  1  0.21713175  0.13572352  0.08818979  1
  Cl  Cl87  1  0.22541128  0.92984763  0.56050385  1
  Cl  Cl88  1  0.34405742  0.66603629  0.01765530  1
  Cl  Cl89  1  0.94799095  0.35102717  0.82291601  1
  Cl  Cl90  1  0.48136129  0.61993431  0.41430426  1
  Cl  Cl91  1  0.10816212  0.17032309  0.74304801  1
  Cl  Cl92  1  0.27094712  0.06270269  0.73975985  1
  Cl  Cl93  1  0.55101175  0.57353127  0.87010216  1
  Cl  Cl94  1  0.71165995  0.10891081  0.86676957  1
  Cl  Cl95  1  0.19614106  0.73978185  0.36141482  1
  Cl  Cl96  1  0.62424725  0.00420710  0.09854729  1
  Cl  Cl97  1  0.72905288  0.93729731  0.26024015  1
  Cl  Cl98  1  0.14277295  0.90678804  0.07763509  1
  Cl  Cl99  1  0.78834005  0.60891081  0.36676957  1
  Cl  Cl100  1  0.05200905  0.64897283  0.17708399  1
  Cl  Cl101  1  0.09083051  0.35368231  0.85356228  1
  Cl  Cl102  1  0.60764579  0.11649605  0.38156087  1
  Cl  Cl103  1  0.64277295  0.59321196  0.42236491  1
  Cl  Cl104  1  0.21025729  0.23853459  0.31459278  1
  Cl  Cl105  1  0.20118941  0.66283611  0.98793120  1
  Cl  Cl106  1  0.88002715  0.32021938  0.30250014  1
  Cl  Cl107  1  0.28286825  0.63572352  0.58818979  1
  Cl  Cl108  1  0.13629087  0.00602731  0.38686024  1
  Cl  Cl109  1  0.89235421  0.61649605  0.88156087  1
  Cl  Cl110  1  0.65594258  0.33396371  0.98234470  1
  Cl  Cl111  1  0.04537244  0.12995149  0.15561721  1
  Cl  Cl112  1  0.98381836  0.27531605  0.46630984  1
  Cl  Cl113  1  0.87575275  0.50420710  0.59854729  1
  Cl  Cl114  1  0.01863871  0.11993431  0.91430426  1
  Cl  Cl115  1  0.15594258  0.16603629  0.51765530  1
  Cl  Cl116  1  0.03456891  0.83194334  0.28838461  1
  Cl  Cl117  1  0.77094712  0.43729731  0.76024015  1
  Cl  Cl118  1  0.95462756  0.87004851  0.84438279  1
  Cl  Cl119  1  0.53807852  0.09789174  0.84974888  1
  Cl  Cl120  1  0.51863871  0.38006569  0.58569574  1
  Cl  Cl121  1  0.10764579  0.38350395  0.11843913  1
  Cl  Cl122  1  0.46257662  0.14246113  0.42588910  1
  Cl  Cl123  1  0.46192148  0.90210826  0.15025112  1
  Cl  Cl124  1  0.60816212  0.32967691  0.75695199  1
  Cl  Cl125  1  0.39183788  0.67032309  0.24304801  1
  Cl  Cl126  1  0.05101175  0.92646873  0.62989784  1
  Cl  Cl127  1  0.70118941  0.83716389  0.51206880  1
