# generated using pymatgen
data_Rb2Sb4O11
_symmetry_space_group_name_H-M   'P 1'
_cell_length_a   10.50301515
_cell_length_b   10.50301343
_cell_length_c   7.23813278
_cell_angle_alpha   85.09803476
_cell_angle_beta   85.09803017
_cell_angle_gamma   42.43730381
_symmetry_Int_Tables_number   1
_chemical_formula_structural   Rb2Sb4O11
_chemical_formula_sum   'Rb4 Sb8 O22'
_cell_volume   536.52048763
_cell_formula_units_Z   2
loop_
 _symmetry_equiv_pos_site_id
 _symmetry_equiv_pos_as_xyz
  1  'x, y, z'
loop_
 _atom_site_type_symbol
 _atom_site_label
 _atom_site_symmetry_multiplicity
 _atom_site_fract_x
 _atom_site_fract_y
 _atom_site_fract_z
 _atom_site_occupancy
  Rb  Rb0  1  0.50858996  0.50858949  0.74474942  1
  Rb  Rb1  1  0.26493348  0.26493437  0.00685540  1
  Rb  Rb2  1  0.49141019  0.49141002  0.25525021  1
  Rb  Rb3  1  0.73506523  0.73506524  0.99314414  1
  Sb  Sb4  1  0.92835267  0.92835245  0.09836665  1
  Sb  Sb5  1  0.43135453  0.91745521  0.56342888  1
  Sb  Sb6  1  0.08254496  0.56864544  0.43657063  1
  Sb  Sb7  1  0.91745509  0.43135448  0.56342927  1
  Sb  Sb8  1  0.92431692  0.92431671  0.61693162  1
  Sb  Sb9  1  0.07164753  0.07164763  0.90163299  1
  Sb  Sb10  1  0.07568315  0.07568314  0.38306831  1
  Sb  Sb11  1  0.56864579  0.08254479  0.43657055  1
  O  O12  1  0.05076977  0.47621986  0.66653535  1
  O  O13  1  0.11715409  0.11715414  0.13220585  1
  O  O14  1  0.47621996  0.05076981  0.66653509  1
  O  O15  1  0.16546436  0.65729516  0.57023509  1
  O  O16  1  0.83344616  0.83344599  0.50887037  1
  O  O17  1  0.33944223  0.33944212  0.36008914  1
  O  O18  1  0.32587581  0.93124279  0.80913959  1
  O  O19  1  0.82934117  0.17065898  -0.00000014  1
  O  O20  1  0.65729536  0.16546430  0.57023509  1
  O  O21  1  0.67412395  0.06875843  0.19086022  1
  O  O22  1  0.16655389  0.16655391  0.49112956  1
  O  O23  1  0.83453560  0.34270478  0.42976502  1
  O  O24  1  0.06875857  0.67412376  0.19086027  1
  O  O25  1  0.17065912  0.82934105  -0.00000022  1
  O  O26  1  0.52378028  0.94923018  0.33346432  1
  O  O27  1  0.93124154  0.32587639  0.80913976  1
  O  O28  1  0.66055768  0.66055788  0.63991088  1
  O  O29  1  0.97649577  0.97649569  0.34547128  1
  O  O30  1  0.94923022  0.52378012  0.33346459  1
  O  O31  1  0.34270477  0.83453558  0.42976506  1
  O  O32  1  0.02350424  0.02350427  0.65452859  1
  O  O33  1  0.88284594  0.88284582  0.86779415  1
