# generated using pymatgen
data_CrCuO2
_symmetry_space_group_name_H-M   'P 1'
_cell_length_a   2.98115295
_cell_length_b   2.98115286
_cell_length_c   11.49846406
_cell_angle_alpha   90.02330785
_cell_angle_beta   97.47038371
_cell_angle_gamma   59.99344678
_symmetry_Int_Tables_number   1
_chemical_formula_structural   CrCuO2
_chemical_formula_sum   'Cr2 Cu2 O4'
_cell_volume   87.49337481
_cell_formula_units_Z   2
loop_
 _symmetry_equiv_pos_site_id
 _symmetry_equiv_pos_as_xyz
  1  'x, y, z'
loop_
 _atom_site_type_symbol
 _atom_site_label
 _atom_site_symmetry_multiplicity
 _atom_site_fract_x
 _atom_site_fract_y
 _atom_site_fract_z
 _atom_site_occupancy
  Cr  Cr0  1  0.49998727  0.74998627  0.75000000  1
  Cr  Cr1  1  0.49998203  0.24998290  0.25000013  1
  Cu  Cu2  1  0.00000893  0.00001714  0.99999180  1
  Cu  Cu3  1  0.00004129  0.50003371  0.50000758  1
  O  O4  1  0.89215021  0.55400539  0.33814682  1
  O  O5  1  0.89214218  0.05400908  0.83813510  1
  O  O6  1  0.10783672  0.94598360  0.16185312  1
  O  O7  1  0.10784937  0.44598491  0.66186446  1
