# generated using pymatgen
data_ZnS
_symmetry_space_group_name_H-M   'P 1'
_cell_length_a   3.81002514
_cell_length_b   3.81002547
_cell_length_c   74.74230237
_cell_angle_alpha   89.99968651
_cell_angle_beta   90.00031580
_cell_angle_gamma   119.99894982
_symmetry_Int_Tables_number   1
_chemical_formula_structural   ZnS
_chemical_formula_sum   'Zn24 S24'
_cell_volume   939.63118022
_cell_formula_units_Z   24
loop_
 _symmetry_equiv_pos_site_id
 _symmetry_equiv_pos_as_xyz
  1  'x, y, z'
loop_
 _atom_site_type_symbol
 _atom_site_label
 _atom_site_symmetry_multiplicity
 _atom_site_fract_x
 _atom_site_fract_y
 _atom_site_fract_z
 _atom_site_occupancy
  Zn  Zn0  1  0.66666584  0.33333416  0.70834009  1
  Zn  Zn1  1  0.33333367  0.66666633  0.66668846  1
  Zn  Zn2  1  0.66666582  0.33333418  0.33333362  1
  Zn  Zn3  1  0.33333299  0.66666701  0.29168052  1
  Zn  Zn4  1  0.99999850  0.00000150  0.37501573  1
  Zn  Zn5  1  0.66666582  0.33333418  0.08335306  1
  Zn  Zn6  1  0.66666581  0.33333419  0.58334938  1
  Zn  Zn7  1  0.66666582  0.33333418  0.20833916  1
  Zn  Zn8  1  0.33333298  0.66666702  0.54169558  1
  Zn  Zn9  1  -0.00000082  1.00000082  0.75001639  1
  Zn  Zn10  1  0.33333296  0.66666704  0.04172008  1
  Zn  Zn11  1  0.66666511  0.33333489  0.45834458  1
  Zn  Zn12  1  -0.00000079  1.00000079  0.12502481  1
  Zn  Zn13  1  0.33333367  0.66666633  0.16668868  1
  Zn  Zn14  1  0.33333336  0.66666664  0.41668620  1
  Zn  Zn15  1  0.99999850  0.00000150  0.50002472  1
  Zn  Zn16  1  -0.00000081  1.00000081  0.62502304  1
  Zn  Zn17  1  0.66666581  0.33333419  0.83331466  1
  Zn  Zn18  1  0.33333209  0.66666791  0.79167964  1
  Zn  Zn19  1  0.33333527  0.66666473  0.95832827  1
  Zn  Zn20  1  0.99999828  0.00000172  0.87501505  1
  Zn  Zn21  1  0.66666297  0.33333703  0.91671178  1
  Zn  Zn22  1  0.99999746  0.00000254  0.00002402  1
  Zn  Zn23  1  -0.00000084  1.00000084  0.25001514  1
  S  S24  1  0.33333476  0.66666524  0.19790043  1
  S  S25  1  0.66666749  0.33333251  0.86451525  1
  S  S26  1  0.00000149  0.99999851  0.40622967  1
  S  S27  1  0.66666802  0.33333198  0.61456987  1
  S  S28  1  0.00000104  0.99999896  0.53123865  1
  S  S29  1  0.33333440  0.66666560  0.44790084  1
  S  S30  1  0.33332820  0.66667180  0.98952763  1
  S  S31  1  0.66666801  0.33333199  0.73956218  1
  S  S32  1  0.00000057  0.99999943  0.03127718  1
  S  S33  1  0.33333471  0.66666529  0.82288753  1
  S  S34  1  0.00000071  0.99999929  0.78122751  1
  S  S35  1  0.66666391  0.33333609  0.94790459  1
  S  S36  1  0.00000144  0.99999856  0.15623598  1
  S  S37  1  0.33333476  0.66666524  0.69790072  1
  S  S38  1  0.66666761  0.33333239  0.48956800  1
  S  S39  1  0.00000142  0.99999858  0.65623501  1
  S  S40  1  0.00000106  0.99999894  0.28122702  1
  S  S41  1  0.66666764  0.33333236  0.36455646  1
  S  S42  1  0.33333472  0.66666528  0.57290769  1
  S  S43  1  0.33333468  0.66666532  0.07291780  1
  S  S44  1  0.66666801  0.33333199  0.11457251  1
  S  S45  1  0.66666800  0.33333200  0.23956124  1
  S  S46  1  0.33333587  0.66666413  0.32289245  1
  S  S47  1  0.99999501  0.00000499  0.90626716  1
