# generated using pymatgen
data_SrNiF6
_symmetry_space_group_name_H-M   'P 1'
_cell_length_a   4.65614170
_cell_length_b   4.65614109
_cell_length_c   4.65614117
_cell_angle_alpha   99.43956244
_cell_angle_beta   99.43954820
_cell_angle_gamma   99.43955743
_symmetry_Int_Tables_number   1
_chemical_formula_structural   SrNiF6
_chemical_formula_sum   'Sr1 Ni1 F6'
_cell_volume   96.31948555
_cell_formula_units_Z   1
loop_
 _symmetry_equiv_pos_site_id
 _symmetry_equiv_pos_as_xyz
  1  'x, y, z'
loop_
 _atom_site_type_symbol
 _atom_site_label
 _atom_site_symmetry_multiplicity
 _atom_site_fract_x
 _atom_site_fract_y
 _atom_site_fract_z
 _atom_site_occupancy
  Sr  Sr0  1  0.50000000  0.50000000  0.50000000  1
  Ni  Ni1  1  0.00000000  0.00000000  0.00000000  1
  F  F2  1  0.72210161  0.72210161  0.06795199  1
  F  F3  1  0.72210161  0.06795199  0.72210161  1
  F  F4  1  0.27789839  0.93204801  0.27789839  1
  F  F5  1  0.27789839  0.27789839  0.93204801  1
  F  F6  1  0.93204801  0.27789839  0.27789839  1
  F  F7  1  0.06795199  0.72210161  0.72210161  1
