# generated using pymatgen
data_NdH12(NO5)3
_symmetry_space_group_name_H-M   'P 1'
_cell_length_a   6.61816810
_cell_length_b   9.03412212
_cell_length_c   11.52960142
_cell_angle_alpha   68.53631744
_cell_angle_beta   88.22788983
_cell_angle_gamma   69.49932679
_symmetry_Int_Tables_number   1
_chemical_formula_structural   NdH12(NO5)3
_chemical_formula_sum   'Nd2 H24 N6 O30'
_cell_volume   597.16152272
_cell_formula_units_Z   2
loop_
 _symmetry_equiv_pos_site_id
 _symmetry_equiv_pos_as_xyz
  1  'x, y, z'
loop_
 _atom_site_type_symbol
 _atom_site_label
 _atom_site_symmetry_multiplicity
 _atom_site_fract_x
 _atom_site_fract_y
 _atom_site_fract_z
 _atom_site_occupancy
  Nd  Nd0  1  0.30234984  0.59278410  0.22541551  1
  Nd  Nd1  1  0.69765016  0.40721590  0.77458449  1
  H  H2  1  0.10159162  0.64101388  0.97135953  1
  H  H3  1  0.89840838  0.35898612  0.02864047  1
  H  H4  1  0.30079480  0.46646854  0.00860544  1
  H  H5  1  0.69920520  0.53353146  0.99139456  1
  H  H6  1  0.08313786  0.64733777  0.45231847  1
  H  H7  1  0.91686214  0.35266223  0.54768153  1
  H  H8  1  0.28098665  0.47215701  0.51596544  1
  H  H9  1  0.71901335  0.52784299  0.48403456  1
  H  H10  1  0.86470317  0.89304035  0.11188166  1
  H  H11  1  0.13529683  0.10695965  0.88811834  1
  H  H12  1  0.80327755  0.74331458  0.20913986  1
  H  H13  1  0.19672245  0.25668542  0.79086014  1
  H  H14  1  0.11082331  0.33430644  0.22794446  1
  H  H15  1  0.88917669  0.66569356  0.77205554  1
  H  H16  1  0.12383369  0.31787479  0.37097332  1
  H  H17  1  0.87616631  0.68212521  0.62902668  1
  H  H18  1  0.04885481  0.13119565  0.20289987  1
  H  H19  1  0.95114519  0.86880435  0.79710013  1
  H  H20  1  0.22862506  0.17117050  0.11945889  1
  H  H21  1  0.77137494  0.82882950  0.88054111  1
  H  H22  1  0.26411633  0.16227198  0.56605607  1
  H  H23  1  0.73588367  0.83772802  0.43394393  1
  H  H24  1  0.08977982  0.10060225  0.53303637  1
  H  H25  1  0.91022018  0.89939775  0.46696363  1
  N  N26  1  0.42711201  0.82782355  0.32166952  1
  N  N27  1  0.57288799  0.17217645  0.67833048  1
  N  N28  1  0.43329634  0.83576245  0.99229598  1
  N  N29  1  0.56670366  0.16423755  0.00770402  1
  N  N30  1  0.68651333  0.26505158  0.31772014  1
  N  N31  1  0.31348667  0.73494842  0.68227986  1
  O  O32  1  0.21568358  0.55263626  0.04015316  1
  O  O33  1  0.78431642  0.44736374  0.95984684  1
  O  O34  1  0.20101192  0.55591576  0.43583537  1
  O  O35  1  0.79898808  0.44408424  0.56416463  1
  O  O36  1  0.92289880  0.77509231  0.17202669  1
  O  O37  1  0.07710120  0.22490669  0.82797331  1
  O  O38  1  0.12230644  0.39314588  0.28327896  1
  O  O39  1  0.87769356  0.60685412  0.71672104  1
  O  O40  1  0.08492012  0.22384485  0.14249349  1
  O  O41  1  0.91507988  0.77615515  0.85750651  1
  O  O42  1  0.12010102  0.20276128  0.52029511  1
  O  O43  1  0.87989898  0.79723872  0.47970489  1
  O  O44  1  0.57436095  0.68804438  0.32336977  1
  O  O45  1  0.42563905  0.31195562  0.67663023  1
  O  O46  1  0.24043184  0.86554395  0.27118096  1
  O  O47  1  0.75956816  0.13445605  0.72881904  1
  O  O48  1  0.46874867  0.91962268  0.36683581  1
  O  O49  1  0.53125133  0.08037732  0.63316419  1
  O  O50  1  0.55995117  0.68864774  0.06528242  1
  O  O51  1  0.44004883  0.31135226  0.93471758  1
  O  O52  1  0.23847632  0.88713082  0.01476168  1
  O  O53  1  0.76152368  0.11286918  0.98523832  1
  O  O54  1  0.50020015  0.92649154  0.90259752  1
  O  O55  1  0.49979985  0.07350846  0.09740248  1
  O  O56  1  0.60571230  0.33629263  0.20349160  1
  O  O57  1  0.39428770  0.66370737  0.79650840  1
  O  O58  1  0.59237401  0.33565820  0.39183822  1
  O  O59  1  0.40762599  0.66434180  0.60816178  1
  O  O60  1  0.85221581  0.13374977  0.35407360  1
  O  O61  1  0.14778419  0.86625023  0.64592640  1
