# generated using pymatgen
data_SrZrS3
_symmetry_space_group_name_H-M   'P 1'
_cell_length_a   3.84019975
_cell_length_b   8.58682343
_cell_length_c   13.99646858
_cell_angle_alpha   90.00000000
_cell_angle_beta   90.00000000
_cell_angle_gamma   90.00000000
_symmetry_Int_Tables_number   1
_chemical_formula_structural   SrZrS3
_chemical_formula_sum   'Sr4 Zr4 S12'
_cell_volume   461.53519166
_cell_formula_units_Z   4
loop_
 _symmetry_equiv_pos_site_id
 _symmetry_equiv_pos_as_xyz
  1  'x, y, z'
loop_
 _atom_site_type_symbol
 _atom_site_label
 _atom_site_symmetry_multiplicity
 _atom_site_fract_x
 _atom_site_fract_y
 _atom_site_fract_z
 _atom_site_occupancy
  Sr  Sr0  1  0.25000000  0.56631842  0.67933728  1
  Sr  Sr1  1  0.75000000  0.43368158  0.32066272  1
  Sr  Sr2  1  0.25000000  0.06631842  0.82066272  1
  Sr  Sr3  1  0.75000000  0.93368158  0.17933728  1
  Zr  Zr4  1  0.75000000  0.17229793  0.55704884  1
  Zr  Zr5  1  0.75000000  0.67229793  0.94295116  1
  Zr  Zr6  1  0.25000000  0.32770207  0.05704884  1
  Zr  Zr7  1  0.25000000  0.82770207  0.44295116  1
  S  S8  1  0.75000000  0.16365179  0.98627987  1
  S  S9  1  0.25000000  0.70665262  0.28426736  1
  S  S10  1  0.25000000  0.98474767  0.60581465  1
  S  S11  1  0.25000000  0.48474767  0.89418535  1
  S  S12  1  0.25000000  0.83634821  0.01372013  1
  S  S13  1  0.75000000  0.51525233  0.10581465  1
  S  S14  1  0.75000000  0.66365179  0.51372013  1
  S  S15  1  0.25000000  0.20665262  0.21573264  1
  S  S16  1  0.75000000  0.79334738  0.78426736  1
  S  S17  1  0.75000000  0.29334738  0.71573264  1
  S  S18  1  0.25000000  0.33634821  0.48627987  1
  S  S19  1  0.75000000  0.01525233  0.39418535  1
