# generated using pymatgen
data_Gd2MoO6
_symmetry_space_group_name_H-M   'P 1'
_cell_length_a   9.97949517
_cell_length_b   9.97949517
_cell_length_c   5.42131112
_cell_angle_alpha   74.94811590
_cell_angle_beta   74.94811590
_cell_angle_gamma   68.15204508
_symmetry_Int_Tables_number   1
_chemical_formula_structural   Gd2MoO6
_chemical_formula_sum   'Gd8 Mo4 O24'
_cell_volume   475.86336856
_cell_formula_units_Z   4
loop_
 _symmetry_equiv_pos_site_id
 _symmetry_equiv_pos_as_xyz
  1  'x, y, z'
loop_
 _atom_site_type_symbol
 _atom_site_label
 _atom_site_symmetry_multiplicity
 _atom_site_fract_x
 _atom_site_fract_y
 _atom_site_fract_z
 _atom_site_occupancy
  Gd  Gd0  1  0.78592477  0.55263011  0.61876179  1
  Gd  Gd1  1  0.21407523  0.44736989  0.38123821  1
  Gd  Gd2  1  0.60932184  0.39067816  0.25000000  1
  Gd  Gd3  1  0.39067816  0.60932184  0.75000000  1
  Gd  Gd4  1  0.55263011  0.78592477  0.11876179  1
  Gd  Gd5  1  0.13482848  0.86517152  0.25000000  1
  Gd  Gd6  1  0.44736989  0.21407523  0.88123821  1
  Gd  Gd7  1  0.86517152  0.13482848  0.75000000  1
  Mo  Mo8  1  0.29581159  0.01269778  0.56094524  1
  Mo  Mo9  1  0.70418841  0.98730222  0.43905476  1
  Mo  Mo10  1  0.98730222  0.70418841  0.93905476  1
  Mo  Mo11  1  0.01269778  0.29581159  0.06094524  1
  O  O12  1  0.39065120  0.42519915  0.57912358  1
  O  O13  1  0.56933684  0.97503285  0.73615571  1
  O  O14  1  0.81980641  0.71321356  0.86177684  1
  O  O15  1  0.67328236  0.11441177  0.13725729  1
  O  O16  1  0.11441177  0.67328236  0.63725729  1
  O  O17  1  0.32671764  0.88558823  0.86274271  1
  O  O18  1  0.28678644  0.18019359  0.63822316  1
  O  O19  1  0.97503285  0.56933684  0.23615571  1
  O  O20  1  0.57480085  0.60934880  0.92087642  1
  O  O21  1  0.43066316  0.02496715  0.26384429  1
  O  O22  1  0.11412146  0.04746622  0.51597929  1
  O  O23  1  0.19003991  0.66345161  0.08532087  1
  O  O24  1  0.80996009  0.33654839  0.91467913  1
  O  O25  1  0.33654839  0.80996009  0.41467913  1
  O  O26  1  0.88558823  0.32671764  0.36274271  1
  O  O27  1  0.95253378  0.88587854  0.98402071  1
  O  O28  1  0.88587854  0.95253378  0.48402071  1
  O  O29  1  0.66345161  0.19003991  0.58532087  1
  O  O30  1  0.71321356  0.81980641  0.36177684  1
  O  O31  1  0.04746622  0.11412146  0.01597929  1
  O  O32  1  0.18019359  0.28678644  0.13822316  1
  O  O33  1  0.60934880  0.57480085  0.42087642  1
  O  O34  1  0.42519915  0.39065120  0.07912358  1
  O  O35  1  0.02496715  0.43066316  0.76384429  1
