# generated using pymatgen
data_Li7MnN4
_symmetry_space_group_name_H-M   'P 1'
_cell_length_a   9.46008598
_cell_length_b   9.46009637
_cell_length_c   9.46008436
_cell_angle_alpha   89.99997741
_cell_angle_beta   89.99994198
_cell_angle_gamma   89.99998286
_symmetry_Int_Tables_number   1
_chemical_formula_structural   Li7MnN4
_chemical_formula_sum   'Li56 Mn8 N32'
_cell_volume   846.61440453
_cell_formula_units_Z   8
loop_
 _symmetry_equiv_pos_site_id
 _symmetry_equiv_pos_as_xyz
  1  'x, y, z'
loop_
 _atom_site_type_symbol
 _atom_site_label
 _atom_site_symmetry_multiplicity
 _atom_site_fract_x
 _atom_site_fract_y
 _atom_site_fract_z
 _atom_site_occupancy
  Li  Li0  1  -0.00000026  0.50000069  0.50000067  1
  Li  Li1  1  0.50000243  0.00000064  0.00000002  1
  Li  Li2  1  -0.00000135  -0.00000020  0.49999727  1
  Li  Li3  1  -0.00000037  0.50000052  0.00000132  1
  Li  Li4  1  0.49999830  0.00000508  0.50000053  1
  Li  Li5  1  0.50000048  0.49999969  0.00000104  1
  Li  Li6  1  0.24996766  0.00000257  0.49999536  1
  Li  Li7  1  0.00000833  0.49999393  0.75002422  1
  Li  Li8  1  0.00000180  0.49999088  0.24998475  1
  Li  Li9  1  0.49999779  0.25002962  0.00000893  1
  Li  Li10  1  0.49999264  0.74997140  0.00000371  1
  Li  Li11  1  0.75001953  0.00000681  0.49999302  1
  Li  Li12  1  0.23224718  0.23224895  0.23224675  1
  Li  Li13  1  0.26775164  0.73224680  0.26775179  1
  Li  Li14  1  0.26775162  0.26775323  0.73224778  1
  Li  Li15  1  0.73224838  0.26775426  0.26775155  1
  Li  Li16  1  0.76775282  0.76775204  0.23224744  1
  Li  Li17  1  0.23224787  0.76775235  0.76775133  1
  Li  Li18  1  0.76775167  0.23224846  0.76775243  1
  Li  Li19  1  0.73224828  0.73224694  0.73224680  1
  Li  Li20  1  0.25166123  0.23794386  0.98187336  1
  Li  Li21  1  0.24834427  0.48187206  0.26205895  1
  Li  Li22  1  0.24834427  0.51812693  0.73794128  1
  Li  Li23  1  0.51812281  0.26205551  0.75165865  1
  Li  Li24  1  0.48187595  0.26205497  0.24834172  1
  Li  Li25  1  0.73794264  0.24833833  0.51812592  1
  Li  Li26  1  0.26205662  0.75166118  0.51812250  1
  Li  Li27  1  0.98187591  0.25165425  0.23794346  1
  Li  Li28  1  0.23794577  0.98187408  0.25165824  1
  Li  Li29  1  0.76205530  0.01812558  0.25165848  1
  Li  Li30  1  0.98187591  0.74834222  0.76205570  1
  Li  Li31  1  0.76205624  0.98187651  0.74834058  1
  Li  Li32  1  0.01812455  0.74833874  0.23794520  1
  Li  Li33  1  0.01812394  0.25165769  0.76205592  1
  Li  Li34  1  0.23794486  0.01812559  0.74833967  1
  Li  Li35  1  0.25165959  0.76205740  0.01812465  1
  Li  Li36  1  0.74834030  0.23794361  0.01812388  1
  Li  Li37  1  0.74833784  0.76205741  0.98187260  1
  Li  Li38  1  0.26205618  0.24833726  0.48187393  1
  Li  Li39  1  0.73794338  0.75166181  0.48187246  1
  Li  Li40  1  0.51812395  0.73794396  0.24834334  1
  Li  Li41  1  0.48187519  0.73794563  0.75166055  1
  Li  Li42  1  0.75165610  0.51812833  0.26205868  1
  Li  Li43  1  0.75165947  0.48187396  0.73794449  1
  Li  Li44  1  0.26405252  -0.00000018  -0.00000155  1
  Li  Li45  1  0.23596075  0.49999672  0.49999946  1
  Li  Li46  1  0.49999870  0.50000066  0.76403808  1
  Li  Li47  1  0.49999880  0.49999899  0.23596293  1
  Li  Li48  1  0.49999887  0.23596150  0.49999692  1
  Li  Li49  1  0.50000057  0.76404528  0.50000532  1
  Li  Li50  1  0.00000432  0.26403669  0.00000007  1
  Li  Li51  1  0.00000101  -0.00000935  0.26404016  1
  Li  Li52  1  0.00000092  0.73596475  -0.00000001  1
  Li  Li53  1  0.00000341  0.00000647  0.73595598  1
  Li  Li54  1  0.73595377  0.00000232  0.00000368  1
  Li  Li55  1  0.76403728  0.49999595  0.50000093  1
  Mn  Mn56  1  0.49999952  0.50000243  0.49999924  1
  Mn  Mn57  1  0.00000206  -0.00000006  -0.00000071  1
  Mn  Mn58  1  0.50000009  0.00000013  0.74999632  1
  Mn  Mn59  1  0.75000202  0.50000090  0.00000104  1
  Mn  Mn60  1  0.24999673  0.49999989  -0.00000019  1
  Mn  Mn61  1  -0.00000201  0.25000534  0.50000002  1
  Mn  Mn62  1  -0.00000117  0.74999379  0.50000064  1
  Mn  Mn63  1  0.49999939  -0.00000104  0.25000281  1
  N  N64  1  0.60977495  0.60977556  0.60977632  1
  N  N65  1  0.89022585  0.10977629  0.89022409  1
  N  N66  1  0.10977830  0.89022587  0.89022337  1
  N  N67  1  0.89022419  0.89022573  0.10977455  1
  N  N68  1  0.60977431  0.39022427  0.39022401  1
  N  N69  1  0.39022344  0.39022448  0.60977500  1
  N  N70  1  0.39022465  0.60977627  0.39022545  1
  N  N71  1  0.10977782  0.10977388  0.10977616  1
  N  N72  1  0.35663547  0.38288560  0.10706202  1
  N  N73  1  0.14336734  0.60705915  0.11711441  1
  N  N74  1  0.14336781  0.39293955  0.88288620  1
  N  N75  1  0.39294080  0.11711655  0.85663570  1
  N  N76  1  0.60705894  0.11711589  0.14336505  1
  N  N77  1  0.88288604  0.14336461  0.39294030  1
  N  N78  1  0.11711388  0.85663531  0.39293903  1
  N  N79  1  0.10706038  0.35663312  0.38288473  1
  N  N80  1  0.38288442  0.10706007  0.35663470  1
  N  N81  1  0.61711430  0.89294106  0.35663576  1
  N  N82  1  0.10705957  0.64336580  0.61711431  1
  N  N83  1  0.61711452  0.10706103  0.64336387  1
  N  N84  1  0.89294055  0.64336518  0.38288555  1
  N  N85  1  0.89294148  0.35663325  0.61711390  1
  N  N86  1  0.38288505  0.89294155  0.64336468  1
  N  N87  1  0.35663550  0.61711336  0.89293938  1
  N  N88  1  0.64336438  0.38288630  0.89294008  1
  N  N89  1  0.64336400  0.61711327  0.10706018  1
  N  N90  1  0.11711435  0.14336426  0.60705957  1
  N  N91  1  0.88288573  0.85663584  0.60705806  1
  N  N92  1  0.39294056  0.88288432  0.14336520  1
  N  N93  1  0.60705834  0.88288517  0.85663538  1
  N  N94  1  0.85663361  0.39293944  0.11711546  1
  N  N95  1  0.85663419  0.60705928  0.88288546  1
