# generated using pymatgen
data_Ba6Pr3I19
_symmetry_space_group_name_H-M   'P 1'
_cell_length_a   10.30750771
_cell_length_b   10.30750771
_cell_length_c   22.92704495
_cell_angle_alpha   86.21558798
_cell_angle_beta   86.21558798
_cell_angle_gamma   76.21611649
_symmetry_Int_Tables_number   1
_chemical_formula_structural   Ba6Pr3I19
_chemical_formula_sum   'Ba12 Pr6 I38'
_cell_volume   2357.38979741
_cell_formula_units_Z   2
loop_
 _symmetry_equiv_pos_site_id
 _symmetry_equiv_pos_as_xyz
  1  'x, y, z'
loop_
 _atom_site_type_symbol
 _atom_site_label
 _atom_site_symmetry_multiplicity
 _atom_site_fract_x
 _atom_site_fract_y
 _atom_site_fract_z
 _atom_site_occupancy
  Ba  Ba0  1  0.73422288  0.58778175  0.03834963  1
  Ba  Ba1  1  0.58114810  0.78336209  0.28410213  1
  Ba  Ba2  1  0.91364410  0.14693108  0.60569094  1
  Ba  Ba3  1  0.41885190  0.21663791  0.71589787  1
  Ba  Ba4  1  0.26577712  0.41221825  0.96165037  1
  Ba  Ba5  1  0.85306892  0.08635590  0.89430906  1
  Ba  Ba6  1  0.78336209  0.58114810  0.78410213  1
  Ba  Ba7  1  0.58778175  0.73422288  0.53834963  1
  Ba  Ba8  1  0.21663791  0.41885190  0.21589787  1
  Ba  Ba9  1  0.14693108  0.91364410  0.10569094  1
  Ba  Ba10  1  0.08635590  0.85306892  0.39430906  1
  Ba  Ba11  1  0.41221825  0.26577712  0.46165037  1
  Pr  Pr12  1  0.63557817  0.12632136  0.12502641  1
  Pr  Pr13  1  0.75431785  0.24568215  0.25000000  1
  Pr  Pr14  1  0.24568215  0.75431785  0.75000000  1
  Pr  Pr15  1  0.36442183  0.87367864  0.87497359  1
  Pr  Pr16  1  0.87367864  0.36442183  0.37497359  1
  Pr  Pr17  1  0.12632136  0.63557817  0.62502641  1
  I  I18  1  0.61495841  0.30101350  0.99598786  1
  I  I19  1  0.53726378  0.83959174  0.13368109  1
  I  I20  1  0.07117880  0.15367230  0.28529573  1
  I  I21  1  0.52307309  0.86395246  0.74352226  1
  I  I22  1  0.45790869  0.55521955  0.84151240  1
  I  I23  1  0.09422754  0.75547643  0.88421876  1
  I  I24  1  0.30101350  0.61495841  0.49598786  1
  I  I25  1  0.24452357  0.90577246  0.61578124  1
  I  I26  1  0.07487052  0.16056210  0.46509214  1
  I  I27  1  0.86395246  0.52307309  0.24352226  1
  I  I28  1  0.92913402  0.41769440  0.91367764  1
  I  I29  1  0.31210437  0.20170312  0.09846443  1
  I  I30  1  0.16040826  0.46273622  0.36631891  1
  I  I31  1  0.79829688  0.68789563  0.40153557  1
  I  I32  1  0.41769440  0.92913402  0.41367764  1
  I  I33  1  0.15367230  0.07117880  0.78529573  1
  I  I34  1  0.55521955  0.45790869  0.34151240  1
  I  I35  1  0.69898650  0.38504159  0.50401214  1
  I  I36  1  0.46273622  0.16040826  0.86631891  1
  I  I37  1  0.92882120  0.84632770  0.71470427  1
  I  I38  1  0.84632770  0.92882120  0.21470427  1
  I  I39  1  0.24561569  0.75438431  0.25000000  1
  I  I40  1  0.68789563  0.79829688  0.90153557  1
  I  I41  1  0.58230560  0.07086598  0.58632236  1
  I  I42  1  0.16056210  0.07487052  0.96509214  1
  I  I43  1  0.47692691  0.13604754  0.25647774  1
  I  I44  1  0.92512948  0.83943790  0.53490786  1
  I  I45  1  0.20170312  0.31210437  0.59846443  1
  I  I46  1  0.44478045  0.54209131  0.65848760  1
  I  I47  1  0.90577246  0.24452357  0.11578124  1
  I  I48  1  0.75547643  0.09422754  0.38421876  1
  I  I49  1  0.75438431  0.24561569  0.75000000  1
  I  I50  1  0.83943790  0.92512948  0.03490786  1
  I  I51  1  0.07086598  0.58230560  0.08632236  1
  I  I52  1  0.38504159  0.69898650  0.00401214  1
  I  I53  1  0.83959174  0.53726378  0.63368109  1
  I  I54  1  0.13604754  0.47692691  0.75647774  1
  I  I55  1  0.54209131  0.44478045  0.15848760  1
