# generated using pymatgen
data_Rb6Si10O23
_symmetry_space_group_name_H-M   'P 1'
_cell_length_a   9.46957576
_cell_length_b   9.46950208
_cell_length_c   8.11466863
_cell_angle_alpha   90.00038820
_cell_angle_beta   90.00022824
_cell_angle_gamma   120.99484230
_symmetry_Int_Tables_number   1
_chemical_formula_structural   Rb6Si10O23
_chemical_formula_sum   'Rb6 Si10 O23'
_cell_volume   623.76002661
_cell_formula_units_Z   1
loop_
 _symmetry_equiv_pos_site_id
 _symmetry_equiv_pos_as_xyz
  1  'x, y, z'
loop_
 _atom_site_type_symbol
 _atom_site_label
 _atom_site_symmetry_multiplicity
 _atom_site_fract_x
 _atom_site_fract_y
 _atom_site_fract_z
 _atom_site_occupancy
  Rb  Rb0  1  0.01641724  0.25974226  0.49998550  1
  Rb  Rb1  1  0.77306759  0.77310200  0.49998927  1
  Rb  Rb2  1  0.25977426  0.01646006  0.49998530  1
  Rb  Rb3  1  0.76895002  0.76898760  0.00000184  1
  Rb  Rb4  1  0.01488744  0.25200123  0.00000250  1
  Rb  Rb5  1  0.25203441  0.01487645  0.00000258  1
  Si  Si6  1  0.41527307  0.41525757  0.69965021  1
  Si  Si7  1  0.70186549  0.36236131  0.18810466  1
  Si  Si8  1  0.62417607  0.03145359  0.69015408  1
  Si  Si9  1  0.03145194  0.62419606  0.69015396  1
  Si  Si10  1  0.36234448  0.70184275  0.81190222  1
  Si  Si11  1  0.41527363  0.41525720  0.30034519  1
  Si  Si12  1  0.70187353  0.36235946  0.81191002  1
  Si  Si13  1  0.03144958  0.62420087  0.30985320  1
  Si  Si14  1  0.62417154  0.03144717  0.30985173  1
  Si  Si15  1  0.36234149  0.70184517  0.18811033  1
  O  O16  1  0.43846563  0.86407773  0.30221570  1
  O  O17  1  0.43885410  0.59016062  0.23346788  1
  O  O18  1  0.43886283  0.59016347  0.76652971  1
  O  O19  1  0.59650223  0.16423582  0.20322421  1
  O  O20  1  0.59648822  0.16422950  0.79678211  1
  O  O21  1  0.25360186  0.25358594  0.75298758  1
  O  O22  1  0.77122051  0.01066880  0.74608633  1
  O  O23  1  0.43846620  0.86407669  0.69777784  1
  O  O24  1  0.59017638  0.43886955  0.76657980  1
  O  O25  1  0.16422584  0.59648283  0.79676652  1
  O  O26  1  0.63789063  0.09577995  0.50000768  1
  O  O27  1  0.43968385  0.43963082  0.49999919  1
  O  O28  1  0.59016716  0.43886838  0.23341376  1
  O  O29  1  0.86407529  0.43848343  0.30222899  1
  O  O30  1  0.25360482  0.25358920  0.24699226  1
  O  O31  1  0.01067002  0.77123120  0.74610483  1
  O  O32  1  0.01068092  0.77124067  0.25390568  1
  O  O33  1  0.41338105  0.76575139  -0.00000277  1
  O  O34  1  0.86407961  0.43847140  0.69776671  1
  O  O35  1  0.77121950  0.01067615  0.25392143  1
  O  O36  1  0.09578494  0.63792684  0.50000543  1
  O  O37  1  0.76580044  0.41338736  -0.00000350  1
  O  O38  1  0.16422319  0.59649652  0.20323802  1
