# generated using pymatgen
data_SiC
_symmetry_space_group_name_H-M   'P 1'
_cell_length_a   3.07622888
_cell_length_b   3.07623076
_cell_length_c   47.82365120
_cell_angle_alpha   90.00000000
_cell_angle_beta   90.00000000
_cell_angle_gamma   120.00000130
_symmetry_Int_Tables_number   1
_chemical_formula_structural   SiC
_chemical_formula_sum   'Si19 C19'
_cell_volume   391.93216952
_cell_formula_units_Z   19
loop_
 _symmetry_equiv_pos_site_id
 _symmetry_equiv_pos_as_xyz
  1  'x, y, z'
loop_
 _atom_site_type_symbol
 _atom_site_label
 _atom_site_symmetry_multiplicity
 _atom_site_fract_x
 _atom_site_fract_y
 _atom_site_fract_z
 _atom_site_occupancy
  Si  Si0  1  0.66666700  0.33333300  0.73686325  1
  Si  Si1  1  0.66666700  0.33333300  0.94736043  1
  Si  Si2  1  0.66666700  0.33333300  0.15790783  1
  Si  Si3  1  0.33333300  0.66666700  0.68421510  1
  Si  Si4  1  -0.00000000  0.00000000  0.78941444  1
  Si  Si5  1  0.33333300  0.66666700  0.36837563  1
  Si  Si6  1  0.00000000  -0.00000000  0.42104092  1
  Si  Si7  1  0.66666700  0.33333300  0.63154685  1
  Si  Si8  1  -0.00000000  -0.00000000  0.21055779  1
  Si  Si9  1  0.66666700  0.33333300  0.52626329  1
  Si  Si10  1  0.33333300  0.66666700  0.47370105  1
  Si  Si11  1  0.00000000  -0.00000000  0.89469717  1
  Si  Si12  1  0.00000000  0.00000000  0.99998726  1
  Si  Si13  1  0.33333300  0.66666700  0.84206485  1
  Si  Si14  1  0.33333300  0.66666700  0.26310917  1
  Si  Si15  1  0.66666700  0.33333300  0.31574754  1
  Si  Si16  1  0.00000000  -0.00000000  0.10525397  1
  Si  Si17  1  0.00000000  0.00000000  0.57891214  1
  Si  Si18  1  0.33333300  0.66666700  0.05262514  1
  C  C19  1  0.00000000  0.00000000  0.61849956  1
  C  C20  1  0.00000000  -0.00000000  0.82887783  1
  C  C21  1  0.33333300  0.66666700  0.72380912  1
  C  C22  1  0.66666700  0.33333300  0.77633195  1
  C  C23  1  0.33333300  0.66666700  0.40783926  1
  C  C24  1  0.66666700  0.33333300  0.35532740  1
  C  C25  1  0.66666700  0.33333300  0.67101600  1
  C  C26  1  0.00000000  0.00000000  0.14470959  1
  C  C27  1  0.66666700  0.33333300  0.98694266  1
  C  C28  1  0.00000000  -0.00000000  0.46064101  1
  C  C29  1  -0.00000000  -0.00000000  0.93416144  1
  C  C30  1  0.66666700  0.33333300  0.19750128  1
  C  C31  1  0.33333300  0.66666700  0.51317750  1
  C  C32  1  0.66666700  0.33333300  0.56573093  1
  C  C33  1  0.33333300  0.66666700  0.30256749  1
  C  C34  1  -0.00000000  -0.00000000  0.25002680  1
  C  C35  1  -0.00000000  -0.00000000  0.03943376  1
  C  C36  1  0.33333300  0.66666700  0.88164826  1
  C  C37  1  0.33333300  0.66666700  0.09220634  1
