# generated using pymatgen
data_KSO3
_symmetry_space_group_name_H-M   'P 1'
_cell_length_a   9.87228113
_cell_length_b   9.87248201
_cell_length_c   6.29887238
_cell_angle_alpha   90.00021631
_cell_angle_beta   90.00008617
_cell_angle_gamma   120.00109804
_symmetry_Int_Tables_number   1
_chemical_formula_structural   KSO3
_chemical_formula_sum   'K6 S6 O18'
_cell_volume   531.65818069
_cell_formula_units_Z   6
loop_
 _symmetry_equiv_pos_site_id
 _symmetry_equiv_pos_as_xyz
  1  'x, y, z'
loop_
 _atom_site_type_symbol
 _atom_site_label
 _atom_site_symmetry_multiplicity
 _atom_site_fract_x
 _atom_site_fract_y
 _atom_site_fract_z
 _atom_site_occupancy
  K  K0  1  0.72190027  0.72190360  0.49988985  1
  K  K1  1  0.37862427  0.37857767  0.00002412  1
  K  K2  1  0.62145158  0.00005592  0.00003048  1
  K  K3  1  0.27809812  -0.00001554  0.49988920  1
  K  K4  1  -0.00006165  0.62138014  0.00001256  1
  K  K5  1  0.00001043  0.27810513  0.49986844  1
  S  S6  1  0.33333702  0.66666679  0.68777690  1
  S  S7  1  -0.00000219  -0.00000593  0.82600561  1
  S  S8  1  0.33332530  0.66667455  0.34305707  1
  S  S9  1  0.66667638  0.33334019  0.31229330  1
  S  S10  1  0.00000042  -0.00001314  0.17375770  1
  S  S11  1  0.66665868  0.33334039  0.65702093  1
  O  O12  1  0.36062817  0.82099454  0.74704894  1
  O  O13  1  0.63949851  0.46045364  0.25305829  1
  O  O14  1  0.24597220  0.74391773  0.28531316  1
  O  O15  1  0.98716254  0.85178289  0.23450789  1
  O  O16  1  0.14821722  0.13536276  0.23450359  1
  O  O17  1  0.50207191  0.25583853  0.71486372  1
  O  O18  1  0.82097885  0.36051569  0.25308727  1
  O  O19  1  0.01274867  0.86456421  0.76530902  1
  O  O20  1  0.74415702  0.24625433  0.71488579  1
  O  O21  1  0.85180297  0.98723211  0.76532734  1
  O  O22  1  0.46037466  0.63937287  0.74703896  1
  O  O23  1  0.13542323  0.14818131  0.76531594  1
  O  O24  1  0.86463424  0.01283889  0.23452235  1
  O  O25  1  0.49792284  0.75402719  0.28529756  1
  O  O26  1  0.53956281  0.17903707  0.25306982  1
  O  O27  1  0.25608036  0.50207449  0.28530409  1
  O  O28  1  0.17901175  0.53962132  0.74705023  1
  O  O29  1  0.75373344  0.49792166  0.71486888  1
