# generated using pymatgen
data_ZnS
_symmetry_space_group_name_H-M   'P 1'
_cell_length_a   3.80710241
_cell_length_b   3.80710208
_cell_length_c   99.67937160
_cell_angle_alpha   90.00000000
_cell_angle_beta   90.00000000
_cell_angle_gamma   119.99999411
_symmetry_Int_Tables_number   1
_chemical_formula_structural   ZnS
_chemical_formula_sum   'Zn32 S32'
_cell_volume   1251.19508521
_cell_formula_units_Z   32
loop_
 _symmetry_equiv_pos_site_id
 _symmetry_equiv_pos_as_xyz
  1  'x, y, z'
loop_
 _atom_site_type_symbol
 _atom_site_label
 _atom_site_symmetry_multiplicity
 _atom_site_fract_x
 _atom_site_fract_y
 _atom_site_fract_z
 _atom_site_occupancy
  Zn  Zn0  1  0.66666700  0.33333300  0.87503860  1
  Zn  Zn1  1  0.33333300  0.66666700  0.03127406  1
  Zn  Zn2  1  0.00000000  -0.00000000  0.68752511  1
  Zn  Zn3  1  0.33333300  0.66666700  0.50005076  1
  Zn  Zn4  1  0.66666700  0.33333300  0.15629591  1
  Zn  Zn5  1  -0.00000000  -0.00000000  0.28130298  1
  Zn  Zn6  1  0.00000000  -0.00000000  0.84378277  1
  Zn  Zn7  1  0.66666700  0.33333300  0.96876709  1
  Zn  Zn8  1  -0.00000000  0.00000000  0.37504441  1
  Zn  Zn9  1  0.00000000  -0.00000000  0.78124461  1
  Zn  Zn10  1  0.33333300  0.66666700  0.12503637  1
  Zn  Zn11  1  0.33333300  0.66666700  0.71875792  1
  Zn  Zn12  1  0.66666700  0.33333300  0.46880036  1
  Zn  Zn13  1  0.00000000  -0.00000000  0.18754486  1
  Zn  Zn14  1  0.66666700  0.33333300  0.74999884  1
  Zn  Zn15  1  0.66666700  0.33333300  0.34381037  1
  Zn  Zn16  1  0.33333300  0.66666700  0.90627750  1
  Zn  Zn17  1  0.33333300  0.66666700  0.21880058  1
  Zn  Zn18  1  0.00000000  -0.00000000  0.53128807  1
  Zn  Zn19  1  0.66666700  0.33333300  0.56253312  1
  Zn  Zn20  1  0.66666700  0.33333300  0.06253147  1
  Zn  Zn21  1  0.66666700  0.33333300  0.81251727  1
  Zn  Zn22  1  -0.00000000  -0.00000000  0.09378021  1
  Zn  Zn23  1  0.00000000  -0.00000000  0.93750980  1
  Zn  Zn24  1  0.33333300  0.66666700  0.31255649  1
  Zn  Zn25  1  0.33333300  0.66666700  0.40630298  1
  Zn  Zn26  1  0.00000000  -0.00000000  0.43756482  1
  Zn  Zn27  1  0.66666700  0.33333300  0.65626396  1
  Zn  Zn28  1  0.66666700  0.33333300  0.25005825  1
  Zn  Zn29  1  0.00000000  -0.00000000  0.62500977  1
  Zn  Zn30  1  0.33333300  0.66666700  0.59377952  1
  Zn  Zn31  1  -0.00000000  0.00000000  0.00003333  1
  S  S32  1  0.33333300  0.66666700  0.24219881  1
  S  S33  1  0.66666700  0.33333300  0.49219509  1
  S  S34  1  0.66666700  0.33333300  0.08593174  1
  S  S35  1  0.33333300  0.66666700  0.52344148  1
  S  S36  1  0.00000000  -0.00000000  0.46094926  1
  S  S37  1  0.00000000  -0.00000000  0.02342771  1
  S  S38  1  0.66666700  0.33333300  0.58593156  1
  S  S39  1  0.33333300  0.66666700  0.74216032  1
  S  S40  1  0.33333300  0.66666700  0.92967589  1
  S  S41  1  0.00000000  -0.00000000  0.21094330  1
  S  S42  1  -0.00000000  -0.00000000  0.30469948  1
  S  S43  1  0.00000000  -0.00000000  0.86720776  1
  S  S44  1  0.66666700  0.33333300  0.17969179  1
  S  S45  1  0.33333300  0.66666700  0.42972349  1
  S  S46  1  0.66666700  0.33333300  0.67969294  1
  S  S47  1  0.66666700  0.33333300  0.36719824  1
  S  S48  1  0.66666700  0.33333300  0.89843559  1
  S  S49  1  -0.00000000  -0.00000000  0.64839496  1
  S  S50  1  0.00000000  -0.00000000  0.55468465  1
  S  S51  1  0.33333300  0.66666700  0.33595192  1
  S  S52  1  0.33333300  0.66666700  0.05467964  1
  S  S53  1  0.66666700  0.33333300  0.77338360  1
  S  S54  1  0.00000000  -0.00000000  0.39842322  1
  S  S55  1  0.66666700  0.33333300  0.27345059  1
  S  S56  1  0.00000000  -0.00000000  0.96089593  1
  S  S57  1  0.66666700  0.33333300  0.99219730  1
  S  S58  1  0.33333300  0.66666700  0.14843823  1
  S  S59  1  0.00000000  -0.00000000  0.11718296  1
  S  S60  1  0.00000000  -0.00000000  0.71091823  1
  S  S61  1  -0.00000000  0.00000000  0.80465859  1
  S  S62  1  0.66666700  0.33333300  0.83592393  1
  S  S63  1  0.33333300  0.66666700  0.61717464  1
