# generated using pymatgen
data_RbAg2(AsSe2)3
_symmetry_space_group_name_H-M   'P 1'
_cell_length_a   7.73928545
_cell_length_b   10.02875983
_cell_length_c   20.05894407
_cell_angle_alpha   60.25518807
_cell_angle_beta   90.00000000
_cell_angle_gamma   90.00000000
_symmetry_Int_Tables_number   1
_chemical_formula_structural   RbAg2(AsSe2)3
_chemical_formula_sum   'Rb4 Ag8 As12 Se24'
_cell_volume   1351.75450469
_cell_formula_units_Z   4
loop_
 _symmetry_equiv_pos_site_id
 _symmetry_equiv_pos_as_xyz
  1  'x, y, z'
loop_
 _atom_site_type_symbol
 _atom_site_label
 _atom_site_symmetry_multiplicity
 _atom_site_fract_x
 _atom_site_fract_y
 _atom_site_fract_z
 _atom_site_occupancy
  Rb  Rb0  1  0.17792566  0.16135242  0.83217295  1
  Rb  Rb1  1  0.82207434  0.83864758  0.16782705  1
  Rb  Rb2  1  0.32207434  0.16135242  0.33217295  1
  Rb  Rb3  1  0.67792566  0.83864758  0.66782705  1
  Ag  Ag4  1  0.46736438  0.45073855  0.08043136  1
  Ag  Ag5  1  0.48702831  0.35254423  0.49970967  1
  Ag  Ag6  1  0.98702831  0.64745577  0.00029033  1
  Ag  Ag7  1  0.53263562  0.54926145  0.91956864  1
  Ag  Ag8  1  0.96736438  0.54926145  0.41956864  1
  Ag  Ag9  1  0.51297169  0.64745577  0.50029033  1
  Ag  Ag10  1  0.01297169  0.35254423  -0.00029033  1
  Ag  Ag11  1  0.03263562  0.45073855  0.58043136  1
  As  As12  1  0.85018900  0.95334599  0.35395881  1
  As  As13  1  0.37138394  0.65470386  0.27651886  1
  As  As14  1  0.61891430  0.21316085  0.91878422  1
  As  As15  1  0.11891430  0.78683915  0.58121578  1
  As  As16  1  0.14981100  0.04665401  0.64604119  1
  As  As17  1  0.88108570  0.21316085  0.41878422  1
  As  As18  1  0.64981100  0.95334599  0.85395881  1
  As  As19  1  0.87138394  0.34529614  0.22348114  1
  As  As20  1  0.38108570  0.78683915  0.08121578  1
  As  As21  1  0.35018900  0.04665401  0.14604119  1
  As  As22  1  0.12861606  0.65470386  0.77651886  1
  As  As23  1  0.62861606  0.34529614  0.72348114  1
  Se  Se24  1  0.24538748  0.45379936  0.89190687  1
  Se  Se25  1  0.25461252  0.45379936  0.39190687  1
  Se  Se26  1  0.80197428  0.13317629  0.73567473  1
  Se  Se27  1  0.30197428  0.86682371  0.76432527  1
  Se  Se28  1  0.72108383  0.41004429  0.31050354  1
  Se  Se29  1  0.27891617  0.58995571  0.68949646  1
  Se  Se30  1  0.30459377  0.73461881  0.98232679  1
  Se  Se31  1  0.70538091  0.73124894  0.37207528  1
  Se  Se32  1  0.77891617  0.41004429  0.81050354  1
  Se  Se33  1  0.29461909  0.26875106  0.62792472  1
  Se  Se34  1  0.20538091  0.26875106  0.12792472  1
  Se  Se35  1  0.80459377  0.26538119  0.51767321  1
  Se  Se36  1  0.79461909  0.73124894  0.87207528  1
  Se  Se37  1  0.69802572  0.13317629  0.23567473  1
  Se  Se38  1  0.20210444  0.01214953  0.04866853  1
  Se  Se39  1  0.79789556  0.98785047  0.95133147  1
  Se  Se40  1  0.29789556  0.01214953  0.54866853  1
  Se  Se41  1  0.69540623  0.26538119  0.01767321  1
  Se  Se42  1  0.22108383  0.58995571  0.18949646  1
  Se  Se43  1  0.70210444  0.98785047  0.45133147  1
  Se  Se44  1  0.19540623  0.73461881  0.48232679  1
  Se  Se45  1  0.74538748  0.54620064  0.60809313  1
  Se  Se46  1  0.19802572  0.86682371  0.26432527  1
  Se  Se47  1  0.75461252  0.54620064  0.10809313  1
