# generated using pymatgen
data_Ta4S9Br8
_symmetry_space_group_name_H-M   'P 1'
_cell_length_a   9.93409080
_cell_length_b   9.93425561
_cell_length_c   9.93414157
_cell_angle_alpha   97.45467881
_cell_angle_beta   97.45401500
_cell_angle_gamma   137.77717026
_symmetry_Int_Tables_number   1
_chemical_formula_structural   Ta4S9Br8
_chemical_formula_sum   'Ta4 S9 Br8'
_cell_volume   614.60705747
_cell_formula_units_Z   1
loop_
 _symmetry_equiv_pos_site_id
 _symmetry_equiv_pos_as_xyz
  1  'x, y, z'
loop_
 _atom_site_type_symbol
 _atom_site_label
 _atom_site_symmetry_multiplicity
 _atom_site_fract_x
 _atom_site_fract_y
 _atom_site_fract_z
 _atom_site_occupancy
  Ta  Ta0  1  0.24487084  0.06581071  0.17905192  1
  Ta  Ta1  1  0.06580164  0.88674732  0.82095591  1
  Ta  Ta2  1  0.88674145  0.06579613  0.82093389  1
  Ta  Ta3  1  0.06581975  0.24488151  0.17906416  1
  S  S4  1  0.87774320  0.87773863  0.61554779  1
  S  S5  1  0.26219009  0.87773235  0.00000299  1
  S  S6  1  0.26221722  0.26221316  0.38444995  1
  S  S7  1  0.69573218  0.96102648  0.00000551  1
  S  S8  1  0.17151745  0.17152100  -0.00000075  1
  S  S9  1  0.69572065  0.69572082  0.73470704  1
  S  S10  1  0.96103336  0.96103630  0.26529633  1
  S  S11  1  0.87774650  0.26219425  -0.00000769  1
  S  S12  1  0.96101703  0.69572576  0.00001155  1
  Br  Br13  1  0.17507061  0.40282337  0.77224671  1
  Br  Br14  1  0.63057581  0.40285460  0.22773333  1
  Br  Br15  1  0.28143430  0.92816961  0.35325907  1
  Br  Br16  1  0.40287077  0.63057734  0.22771629  1
  Br  Br17  1  0.92806103  0.57481964  0.64675734  1
  Br  Br18  1  0.57481199  0.92806329  0.64674219  1
  Br  Br19  1  0.40282128  0.17507352  0.77225491  1
  Br  Br20  1  0.92816186  0.28143322  0.35327056  1
