# generated using pymatgen
data_CsTeF5
_symmetry_space_group_name_H-M   'P 1'
_cell_length_a   6.62500673
_cell_length_b   8.21265692
_cell_length_c   10.09524274
_cell_angle_alpha   90.00000000
_cell_angle_beta   90.00000000
_cell_angle_gamma   90.00000000
_symmetry_Int_Tables_number   1
_chemical_formula_structural   CsTeF5
_chemical_formula_sum   'Cs4 Te4 F20'
_cell_volume   549.27112708
_cell_formula_units_Z   4
loop_
 _symmetry_equiv_pos_site_id
 _symmetry_equiv_pos_as_xyz
  1  'x, y, z'
loop_
 _atom_site_type_symbol
 _atom_site_label
 _atom_site_symmetry_multiplicity
 _atom_site_fract_x
 _atom_site_fract_y
 _atom_site_fract_z
 _atom_site_occupancy
  Cs  Cs0  1  0.25000000  0.63413477  0.17030195  1
  Cs  Cs1  1  0.75000000  0.36586523  0.82969805  1
  Cs  Cs2  1  0.75000000  0.13413477  0.32969805  1
  Cs  Cs3  1  0.25000000  0.86586523  0.67030195  1
  Te  Te4  1  0.25000000  0.13829431  0.06734837  1
  Te  Te5  1  0.75000000  0.86170569  0.93265163  1
  Te  Te6  1  0.75000000  0.63829431  0.43265163  1
  Te  Te7  1  0.25000000  0.36170569  0.56734837  1
  F  F8  1  0.04688333  0.97923757  0.13514836  1
  F  F9  1  0.54688333  0.02076243  0.86485164  1
  F  F10  1  0.95311667  0.47923757  0.36485164  1
  F  F11  1  0.45311667  0.52076243  0.63514836  1
  F  F12  1  0.95311667  0.02076243  0.86485164  1
  F  F13  1  0.45311667  0.97923757  0.13514836  1
  F  F14  1  0.04688333  0.52076243  0.63514836  1
  F  F15  1  0.54688333  0.47923757  0.36485164  1
  F  F16  1  0.03647678  0.30785028  0.06943419  1
  F  F17  1  0.53647678  0.69214972  0.93056581  1
  F  F18  1  0.96352322  0.80785028  0.43056581  1
  F  F19  1  0.46352322  0.19214972  0.56943419  1
  F  F20  1  0.96352322  0.69214972  0.93056581  1
  F  F21  1  0.46352322  0.30785028  0.06943419  1
  F  F22  1  0.03647678  0.19214972  0.56943419  1
  F  F23  1  0.53647678  0.80785028  0.43056581  1
  F  F24  1  0.25000000  0.19417994  0.24967167  1
  F  F25  1  0.75000000  0.80582006  0.75032833  1
  F  F26  1  0.75000000  0.69417994  0.25032833  1
  F  F27  1  0.25000000  0.30582006  0.74967167  1
