# generated using pymatgen
data_Mn3Nb2ZnO9
_symmetry_space_group_name_H-M   'P 1'
_cell_length_a   5.28813052
_cell_length_b   5.28813052
_cell_length_c   14.32012908
_cell_angle_alpha   90.00000000
_cell_angle_beta   90.00000000
_cell_angle_gamma   119.99999700
_symmetry_Int_Tables_number   1
_chemical_formula_structural   Mn3Nb2ZnO9
_chemical_formula_sum   'Mn6 Nb4 Zn2 O18'
_cell_volume   346.80225205
_cell_formula_units_Z   2
loop_
 _symmetry_equiv_pos_site_id
 _symmetry_equiv_pos_as_xyz
  1  'x, y, z'
loop_
 _atom_site_type_symbol
 _atom_site_label
 _atom_site_symmetry_multiplicity
 _atom_site_fract_x
 _atom_site_fract_y
 _atom_site_fract_z
 _atom_site_occupancy
  Mn  Mn0  1  0.66666700  0.33333300  0.69718224  1
  Mn  Mn1  1  0.66666700  0.33333300  0.98070037  1
  Mn  Mn2  1  0.66666700  0.33333300  0.48070037  1
  Mn  Mn3  1  0.33333300  0.66666700  0.51463338  1
  Mn  Mn4  1  0.33333300  0.66666700  0.01463338  1
  Mn  Mn5  1  0.66666700  0.33333300  0.19718224  1
  Nb  Nb6  1  -0.00000000  -0.00000000  0.85795991  1
  Nb  Nb7  1  -0.00000000  -0.00000000  0.14050228  1
  Nb  Nb8  1  -0.00000000  -0.00000000  0.64050228  1
  Nb  Nb9  1  -0.00000000  -0.00000000  0.35795991  1
  Zn  Zn10  1  0.33333300  0.66666700  0.79735535  1
  Zn  Zn11  1  0.33333300  0.66666700  0.29735535  1
  O  O12  1  0.34164597  0.31409940  0.08386804  1
  O  O13  1  0.65765667  0.68456480  0.91432618  1
  O  O14  1  0.00938020  0.28931925  0.24946027  1
  O  O15  1  0.27993904  0.99061980  0.24946027  1
  O  O16  1  0.97245343  0.65835403  0.08386804  1
  O  O17  1  0.68590060  0.65835403  0.58386804  1
  O  O18  1  0.71068075  0.99061980  0.74946027  1
  O  O19  1  0.02690813  0.34234333  0.91432618  1
  O  O20  1  0.02690813  0.68456480  0.41432618  1
  O  O21  1  0.34164597  0.02754657  0.58386804  1
  O  O22  1  0.27993904  0.28931925  0.74946027  1
  O  O23  1  0.97245343  0.31409940  0.58386804  1
  O  O24  1  0.71068075  0.72006096  0.24946027  1
  O  O25  1  0.31543520  0.97309187  0.91432618  1
  O  O26  1  0.68590060  0.02754657  0.08386804  1
  O  O27  1  0.65765667  0.97309187  0.41432618  1
  O  O28  1  0.31543520  0.34234333  0.41432618  1
  O  O29  1  0.00938020  0.72006096  0.74946027  1
