# generated using pymatgen
data_Li5Mn7O16
_symmetry_space_group_name_H-M   'P 1'
_cell_length_a   5.70532599
_cell_length_b   8.08374117
_cell_length_c   11.49220907
_cell_angle_alpha   90.00000000
_cell_angle_beta   90.00000000
_cell_angle_gamma   90.00000000
_symmetry_Int_Tables_number   1
_chemical_formula_structural   Li5Mn7O16
_chemical_formula_sum   'Li10 Mn14 O32'
_cell_volume   530.02503319
_cell_formula_units_Z   2
loop_
 _symmetry_equiv_pos_site_id
 _symmetry_equiv_pos_as_xyz
  1  'x, y, z'
loop_
 _atom_site_type_symbol
 _atom_site_label
 _atom_site_symmetry_multiplicity
 _atom_site_fract_x
 _atom_site_fract_y
 _atom_site_fract_z
 _atom_site_occupancy
  Li  Li0  1  0.50000000  0.00000000  0.00000000  1
  Li  Li1  1  0.50000000  0.62848607  0.12419462  1
  Li  Li2  1  0.00000000  0.12848607  0.37580538  1
  Li  Li3  1  0.50000000  0.37151393  0.87580538  1
  Li  Li4  1  0.50000000  0.61570210  0.62329529  1
  Li  Li5  1  0.00000000  0.50000000  0.50000000  1
  Li  Li6  1  0.00000000  0.88429790  0.12329529  1
  Li  Li7  1  0.00000000  0.11570210  0.87670471  1
  Li  Li8  1  0.50000000  0.38429790  0.37670471  1
  Li  Li9  1  0.00000000  0.87151393  0.62419462  1
  Mn  Mn10  1  0.74636508  0.25268683  0.12528097  1
  Mn  Mn11  1  0.00000000  0.50000000  0.00000000  1
  Mn  Mn12  1  0.00000000  0.50642623  0.25180758  1
  Mn  Mn13  1  0.24636508  0.75268683  0.37471903  1
  Mn  Mn14  1  0.25363492  0.25268683  0.12528097  1
  Mn  Mn15  1  0.50000000  0.00642623  0.24819242  1
  Mn  Mn16  1  0.50000000  0.00000000  0.50000000  1
  Mn  Mn17  1  0.75363492  0.75268683  0.37471903  1
  Mn  Mn18  1  0.75363492  0.24731317  0.62528097  1
  Mn  Mn19  1  0.00000000  0.49357377  0.74819242  1
  Mn  Mn20  1  0.25363492  0.74731317  0.87471903  1
  Mn  Mn21  1  0.24636508  0.24731317  0.62528097  1
  Mn  Mn22  1  0.50000000  0.99357377  0.75180758  1
  Mn  Mn23  1  0.74636508  0.74731317  0.87471903  1
  O  O24  1  0.26756674  0.97594205  0.86376338  1
  O  O25  1  0.50000000  0.74610022  0.97963795  1
  O  O26  1  0.73243326  0.97594205  0.86376338  1
  O  O27  1  0.77810487  0.50776755  0.87552733  1
  O  O28  1  0.77810487  0.49223245  0.12447267  1
  O  O29  1  0.00000000  0.74007118  0.98392108  1
  O  O30  1  0.00000000  0.25992882  0.01607892  1
  O  O31  1  0.00000000  0.27230427  0.23918994  1
  O  O32  1  0.22189513  0.50776755  0.87552733  1
  O  O33  1  0.22189513  0.49223245  0.12447267  1
  O  O34  1  0.26756674  0.02405795  0.13623662  1
  O  O35  1  0.27810487  0.99223245  0.37552733  1
  O  O36  1  0.50000000  0.24439834  0.23920221  1
  O  O37  1  0.50000000  0.25389978  0.02036205  1
  O  O38  1  0.50000000  0.77230427  0.26081006  1
  O  O39  1  0.50000000  0.75992882  0.48392108  1
  O  O40  1  0.73243326  0.02405795  0.13623662  1
  O  O41  1  0.72189513  0.99223245  0.37552733  1
  O  O42  1  0.76756674  0.52405795  0.36376338  1
  O  O43  1  0.76756674  0.47594205  0.63623662  1
  O  O44  1  0.00000000  0.75389978  0.47963795  1
  O  O45  1  0.00000000  0.74439834  0.26079779  1
  O  O46  1  0.00000000  0.24610022  0.52036205  1
  O  O47  1  0.00000000  0.25560166  0.73920221  1
  O  O48  1  0.23243326  0.52405795  0.36376338  1
  O  O49  1  0.23243326  0.47594205  0.63623662  1
  O  O50  1  0.27810487  0.00776755  0.62447267  1
  O  O51  1  0.50000000  0.24007118  0.51607892  1
  O  O52  1  0.50000000  0.22769573  0.73918994  1
  O  O53  1  0.50000000  0.75560166  0.76079779  1
  O  O54  1  0.72189513  0.00776755  0.62447267  1
  O  O55  1  0.00000000  0.72769573  0.76081006  1
