# generated using pymatgen
data_LaPS4
_symmetry_space_group_name_H-M   'P 1'
_cell_length_a   12.54867246
_cell_length_b   12.54863776
_cell_length_c   12.54869530
_cell_angle_alpha   127.48000724
_cell_angle_beta   127.48012571
_cell_angle_gamma   77.46840589
_symmetry_Int_Tables_number   1
_chemical_formula_structural   LaPS4
_chemical_formula_sum   'La8 P8 S32'
_cell_volume   1206.97221882
_cell_formula_units_Z   8
loop_
 _symmetry_equiv_pos_site_id
 _symmetry_equiv_pos_as_xyz
  1  'x, y, z'
loop_
 _atom_site_type_symbol
 _atom_site_label
 _atom_site_symmetry_multiplicity
 _atom_site_fract_x
 _atom_site_fract_y
 _atom_site_fract_z
 _atom_site_occupancy
  La  La0  1  0.24999983  0.24999893  -0.00000149  1
  La  La1  1  0.74999440  0.75000167  -0.00000243  1
  La  La2  1  0.74999786  0.24999864  0.49999999  1
  La  La3  1  0.25000297  0.74999733  0.50000019  1
  La  La4  1  0.00000059  0.00000158  0.00000114  1
  La  La5  1  0.49998436  0.50001186  -0.00000376  1
  La  La6  1  0.00001223  0.49999169  0.50000429  1
  La  La7  1  0.50000192  0.00000021  0.50000047  1
  P  P8  1  0.08855091  0.87499649  0.71355153  1
  P  P9  1  0.16145478  0.37499962  0.28645612  1
  P  P10  1  0.58855055  0.87499813  0.21354777  1
  P  P11  1  0.66144719  0.37500205  0.78644552  1
  P  P12  1  0.12499828  0.83855263  0.21355112  1
  P  P13  1  0.12500098  0.33855619  0.71355010  1
  P  P14  1  0.62500082  0.91145171  0.78645485  1
  P  P15  1  0.62499947  0.41144688  0.28644898  1
  S  S16  1  0.49053908  0.72269435  0.96004072  1
  S  S17  1  0.97269227  0.24053425  0.46003931  1
  S  S18  1  0.47172424  0.29103017  0.68393012  1
  S  S19  1  0.78049496  0.51265054  0.53995183  1
  S  S20  1  0.99053334  0.03049037  0.76783642  1
  S  S21  1  0.27730700  0.23734492  0.76783723  1
  S  S22  1  0.64288533  0.45897020  0.68068613  1
  S  S23  1  0.54103341  0.22172478  0.18393416  1
  S  S24  1  0.96950207  0.73734629  0.96004794  1
  S  S25  1  0.46950698  0.50946044  0.23215509  1
  S  S26  1  0.04102924  0.85711804  0.31931651  1
  S  S27  1  0.27827556  0.95896570  0.81606846  1
  S  S28  1  0.10711840  0.79103257  0.81931978  1
  S  S29  1  0.26265381  0.22269229  0.23215811  1
  S  S30  1  0.48734674  0.02730889  0.26784055  1
  S  S31  1  0.98734628  0.71950541  0.46004743  1
  S  S32  1  0.14290004  0.46220167  0.18392784  1
  S  S33  1  0.20896925  0.02827758  0.31607251  1
  S  S34  1  0.71219988  0.89289841  0.68392322  1
  S  S35  1  0.77730389  0.00946290  0.03996078  1
  S  S36  1  0.28049276  0.74053603  0.26783950  1
  S  S37  1  0.60710159  0.78779852  0.31607378  1
  S  S38  1  0.47269091  0.01265637  0.73215748  1
  S  S39  1  0.03779551  0.35710139  0.81606927  1
  S  S40  1  0.97171837  0.28779764  0.18068512  1
  S  S41  1  0.77828229  0.96220350  0.31931518  1
  S  S42  1  0.76265360  0.53049738  0.03995149  1
  S  S43  1  0.75946245  0.21950644  0.73215727  1
  S  S44  1  0.53780123  0.72172088  0.68069068  1
  S  S45  1  0.21220652  0.52827910  0.81931655  1
  S  S46  1  0.70897034  0.39288132  0.18068193  1
  S  S47  1  0.25946552  0.52730604  0.53996221  1
