# generated using pymatgen
data_Ta2Pt3S8
_symmetry_space_group_name_H-M   'P 1'
_cell_length_a   3.46291391
_cell_length_b   10.57723422
_cell_length_c   14.64145029
_cell_angle_alpha   90.00000000
_cell_angle_beta   90.00000000
_cell_angle_gamma   90.00000000
_symmetry_Int_Tables_number   1
_chemical_formula_structural   Ta2Pt3S8
_chemical_formula_sum   'Ta4 Pt6 S16'
_cell_volume   536.28779540
_cell_formula_units_Z   2
loop_
 _symmetry_equiv_pos_site_id
 _symmetry_equiv_pos_as_xyz
  1  'x, y, z'
loop_
 _atom_site_type_symbol
 _atom_site_label
 _atom_site_symmetry_multiplicity
 _atom_site_fract_x
 _atom_site_fract_y
 _atom_site_fract_z
 _atom_site_occupancy
  Ta  Ta0  1  0.50000000  0.20084760  0.12283902  1
  Ta  Ta1  1  0.50000000  0.29915240  0.62283902  1
  Ta  Ta2  1  0.50000000  0.79915240  0.87716098  1
  Ta  Ta3  1  0.50000000  0.70084760  0.37716098  1
  Pt  Pt4  1  0.00000000  0.86137433  0.27625686  1
  Pt  Pt5  1  -0.00000000  0.13862567  0.72374314  1
  Pt  Pt6  1  0.00000000  0.36137433  0.22374314  1
  Pt  Pt7  1  0.00000000  0.63862567  0.77625686  1
  Pt  Pt8  1  -0.00000000  0.50000000  0.50000000  1
  Pt  Pt9  1  -0.00000000  0.00000000  -0.00000000  1
  S  S10  1  0.50000000  0.06738366  0.62693093  1
  S  S11  1  -0.00000000  0.22135797  0.00062186  1
  S  S12  1  0.50000000  0.43261634  0.12693093  1
  S  S13  1  -0.00000000  0.46626807  0.65706409  1
  S  S14  1  -0.00000000  0.27864203  0.50062186  1
  S  S15  1  -0.00000000  0.96626807  0.84293591  1
  S  S16  1  0.00000000  0.72135797  0.49937814  1
  S  S17  1  0.00000000  0.03373193  0.15706409  1
  S  S18  1  0.50000000  0.73882542  0.21200578  1
  S  S19  1  -0.00000000  0.53373193  0.34293591  1
  S  S20  1  0.50000000  0.56738366  0.87306907  1
  S  S21  1  0.50000000  0.23882542  0.28799422  1
  S  S22  1  0.00000000  0.77864203  -0.00062186  1
  S  S23  1  0.50000000  0.26117458  0.78799422  1
  S  S24  1  0.50000000  0.76117458  0.71200578  1
  S  S25  1  0.50000000  0.93261634  0.37306907  1
