# generated using pymatgen
data_Zr4Cd(PO4)6
_symmetry_space_group_name_H-M   'P 1'
_cell_length_a   9.00431101
_cell_length_b   9.00431101
_cell_length_c   9.00431119
_cell_angle_alpha   59.16020894
_cell_angle_beta   59.16020894
_cell_angle_gamma   59.16020562
_symmetry_Int_Tables_number   1
_chemical_formula_structural   Zr4Cd(PO4)6
_chemical_formula_sum   'Zr4 Cd1 P6 O24'
_cell_volume   506.34248317
_cell_formula_units_Z   1
loop_
 _symmetry_equiv_pos_site_id
 _symmetry_equiv_pos_as_xyz
  1  'x, y, z'
loop_
 _atom_site_type_symbol
 _atom_site_label
 _atom_site_symmetry_multiplicity
 _atom_site_fract_x
 _atom_site_fract_y
 _atom_site_fract_z
 _atom_site_occupancy
  Zr  Zr0  1  0.13586591  0.13586591  0.13586591  1
  Zr  Zr1  1  0.86413409  0.86413409  0.86413409  1
  Zr  Zr2  1  0.64799357  0.64799357  0.64799357  1
  Zr  Zr3  1  0.35200643  0.35200643  0.35200643  1
  Cd  Cd4  1  0.50000000  0.50000000  0.50000000  1
  P  P5  1  0.95277599  0.52900119  0.25737968  1
  P  P6  1  0.52900119  0.25737968  0.95277599  1
  P  P7  1  0.25737968  0.95277599  0.52900119  1
  P  P8  1  0.04722401  0.47099881  0.74262032  1
  P  P9  1  0.47099881  0.74262032  0.04722401  1
  P  P10  1  0.74262032  0.04722401  0.47099881  1
  O  O11  1  0.98999002  0.36864645  0.21455719  1
  O  O12  1  0.36864645  0.21455719  0.98999002  1
  O  O13  1  0.21455719  0.98999002  0.36864645  1
  O  O14  1  0.01000998  0.63135355  0.78544281  1
  O  O15  1  0.63135355  0.78544281  0.01000998  1
  O  O16  1  0.78544281  0.01000998  0.63135355  1
  O  O17  1  0.51038218  0.68537775  0.89318987  1
  O  O18  1  0.68537775  0.89318987  0.51038218  1
  O  O19  1  0.89318987  0.51038218  0.68537775  1
  O  O20  1  0.48961782  0.31462225  0.10681013  1
  O  O21  1  0.31462225  0.10681013  0.48961782  1
  O  O22  1  0.10681013  0.48961782  0.31462225  1
  O  O23  1  0.06172537  0.29308218  0.90495517  1
  O  O24  1  0.29308218  0.90495517  0.06172537  1
  O  O25  1  0.90495517  0.06172537  0.29308218  1
  O  O26  1  0.93827463  0.70691782  0.09504483  1
  O  O27  1  0.70691782  0.09504483  0.93827463  1
  O  O28  1  0.09504483  0.93827463  0.70691782  1
  O  O29  1  0.55376342  0.41957256  0.76835846  1
  O  O30  1  0.41957256  0.76835846  0.55376342  1
  O  O31  1  0.76835846  0.55376342  0.41957256  1
  O  O32  1  0.44623658  0.58042744  0.23164154  1
  O  O33  1  0.58042744  0.23164154  0.44623658  1
  O  O34  1  0.23164154  0.44623658  0.58042744  1
