# generated using pymatgen
data_AsIF12
_symmetry_space_group_name_H-M   'P 1'
_cell_length_a   9.25724634
_cell_length_b   9.25724634
_cell_length_c   9.25724634
_cell_angle_alpha   90.00000000
_cell_angle_beta   90.00000000
_cell_angle_gamma   90.00000000
_symmetry_Int_Tables_number   1
_chemical_formula_structural   AsIF12
_chemical_formula_sum   'As4 I4 F48'
_cell_volume   793.31462742
_cell_formula_units_Z   4
loop_
 _symmetry_equiv_pos_site_id
 _symmetry_equiv_pos_as_xyz
  1  'x, y, z'
loop_
 _atom_site_type_symbol
 _atom_site_label
 _atom_site_symmetry_multiplicity
 _atom_site_fract_x
 _atom_site_fract_y
 _atom_site_fract_z
 _atom_site_occupancy
  As  As0  1  -0.00000000  0.00000000  0.50000000  1
  As  As1  1  -0.00000000  0.50000000  0.00000000  1
  As  As2  1  0.50000000  0.00000000  0.00000000  1
  As  As3  1  0.50000000  0.50000000  0.50000000  1
  I  I4  1  -0.00000000  0.00000000  0.00000000  1
  I  I5  1  0.50000000  0.00000000  0.50000000  1
  I  I6  1  0.50000000  0.50000000  0.00000000  1
  I  I7  1  -0.00000000  0.50000000  0.50000000  1
  F  F8  1  0.88206113  0.64030321  0.56309286  1
  F  F9  1  0.43958747  0.60372811  0.64556725  1
  F  F10  1  0.89627189  0.35443275  0.93958747  1
  F  F11  1  0.11793887  0.14030321  0.93690714  1
  F  F12  1  0.35969679  0.43690714  0.11793887  1
  F  F13  1  0.38206113  0.85969679  0.43690714  1
  F  F14  1  0.35443275  0.93958747  0.89627189  1
  F  F15  1  0.06041253  0.39627189  0.14556725  1
  F  F16  1  0.35969679  0.06309286  0.61793887  1
  F  F17  1  0.88206113  0.85969679  0.06309286  1
  F  F18  1  0.06041253  0.10372811  0.64556725  1
  F  F19  1  0.56041253  0.39627189  0.35443275  1
  F  F20  1  0.85969679  0.06309286  0.88206113  1
  F  F21  1  0.43690714  0.11793887  0.35969679  1
  F  F22  1  0.14556725  0.43958747  0.89627189  1
  F  F23  1  0.64030321  0.56309286  0.88206113  1
  F  F24  1  0.64030321  0.93690714  0.38206113  1
  F  F25  1  0.64556725  0.06041253  0.10372811  1
  F  F26  1  0.61793887  0.35969679  0.06309286  1
  F  F27  1  0.85443275  0.93958747  0.60372811  1
  F  F28  1  0.93690714  0.11793887  0.14030321  1
  F  F29  1  0.06309286  0.61793887  0.35969679  1
  F  F30  1  0.10372811  0.64556725  0.06041253  1
  F  F31  1  0.56041253  0.10372811  0.85443275  1
  F  F32  1  0.64556725  0.43958747  0.60372811  1
  F  F33  1  0.14030321  0.56309286  0.61793887  1
  F  F34  1  0.39627189  0.14556725  0.06041253  1
  F  F35  1  0.14556725  0.06041253  0.39627189  1
  F  F36  1  0.06309286  0.88206113  0.85969679  1
  F  F37  1  0.43958747  0.89627189  0.14556725  1
  F  F38  1  0.14030321  0.93690714  0.11793887  1
  F  F39  1  0.38206113  0.64030321  0.93690714  1
  F  F40  1  0.85443275  0.56041253  0.10372811  1
  F  F41  1  0.89627189  0.14556725  0.43958747  1
  F  F42  1  0.85969679  0.43690714  0.38206113  1
  F  F43  1  0.60372811  0.64556725  0.43958747  1
  F  F44  1  0.60372811  0.85443275  0.93958747  1
  F  F45  1  0.11793887  0.35969679  0.43690714  1
  F  F46  1  0.56309286  0.61793887  0.14030321  1
  F  F47  1  0.43690714  0.38206113  0.85969679  1
  F  F48  1  0.35443275  0.56041253  0.39627189  1
  F  F49  1  0.93958747  0.60372811  0.85443275  1
  F  F50  1  0.61793887  0.14030321  0.56309286  1
  F  F51  1  0.93690714  0.38206113  0.64030321  1
  F  F52  1  0.93958747  0.89627189  0.35443275  1
  F  F53  1  0.39627189  0.35443275  0.56041253  1
  F  F54  1  0.10372811  0.85443275  0.56041253  1
  F  F55  1  0.56309286  0.88206113  0.64030321  1
