# generated using pymatgen
data_Na2SrAl4(SiO4)4
_symmetry_space_group_name_H-M   'P 1'
_cell_length_a   10.58959469
_cell_length_b   10.58959469
_cell_length_c   10.58959469
_cell_angle_alpha   133.32639423
_cell_angle_beta   124.46436411
_cell_angle_gamma   75.40131837
_symmetry_Int_Tables_number   1
_chemical_formula_structural   Na2SrAl4(SiO4)4
_chemical_formula_sum   'Na4 Sr2 Al8 Si8 O32'
_cell_volume   693.61756066
_cell_formula_units_Z   2
loop_
 _symmetry_equiv_pos_site_id
 _symmetry_equiv_pos_as_xyz
  1  'x, y, z'
loop_
 _atom_site_type_symbol
 _atom_site_label
 _atom_site_symmetry_multiplicity
 _atom_site_fract_x
 _atom_site_fract_y
 _atom_site_fract_z
 _atom_site_occupancy
  Na  Na0  1  0.58170417  0.36693811  0.13985450  1
  Na  Na1  1  0.72708360  0.86693811  0.78523394  1
  Na  Na2  1  0.08170417  0.94184966  0.21476606  1
  Na  Na3  1  0.22708360  0.44184966  0.86014550  1
  Sr  Sr4  1  0.65402979  0.65402979  0.00000000  1
  Sr  Sr5  1  0.15402979  0.15402979  0.00000000  1
  Al  Al6  1  0.37130644  0.99405412  0.23893302  1
  Al  Al7  1  0.76370715  0.08659470  0.22831206  1
  Al  Al8  1  0.25512110  0.49405412  0.62274768  1
  Al  Al9  1  0.35828264  0.58659470  0.32288755  1
  Al  Al10  1  0.26370715  0.03539508  0.67711245  1
  Al  Al11  1  0.85828264  0.53539508  0.77168794  1
  Al  Al12  1  0.75512110  0.13237342  0.76106698  1
  Al  Al13  1  0.87130644  0.63237342  0.37725232  1
  Si  Si14  1  0.55040846  0.76019790  0.31448415  1
  Si  Si15  1  0.05040846  0.73592432  0.79021056  1
  Si  Si16  1  0.94571376  0.26019790  0.20978944  1
  Si  Si17  1  0.44571376  0.23592432  0.68551585  1
  Si  Si18  1  0.44553170  0.82167416  0.77546765  1
  Si  Si19  1  0.04620651  0.67006405  0.22453235  1
  Si  Si20  1  0.54620651  0.32167416  0.37614246  1
  Si  Si21  1  0.94553170  0.17006405  0.62385754  1
  O  O22  1  0.42021016  0.39315265  0.26560817  1
  O  O23  1  0.12754448  0.15460199  0.73439183  1
  O  O24  1  0.41191449  0.62290402  0.21890586  1
  O  O25  1  0.34278087  0.97376669  0.82068925  1
  O  O26  1  0.62754448  0.89315265  0.97294249  1
  O  O27  1  0.84278087  0.02209162  0.36901418  1
  O  O28  1  0.45587973  0.75762881  0.59217816  1
  O  O29  1  0.93951411  0.65534510  0.27886391  1
  O  O30  1  0.87648119  0.15534510  0.71583099  1
  O  O31  1  0.37648119  0.66065020  0.72113609  1
  O  O32  1  0.16545065  0.86370157  0.40782184  1
  O  O33  1  0.38789552  0.41736417  0.74322249  1
  O  O34  1  0.90399815  0.12290402  0.21098953  1
  O  O35  1  0.35333332  0.07350851  0.43534121  1
  O  O36  1  0.63501944  0.28562663  0.80402848  1
  O  O37  1  0.88789552  0.14467303  0.97053134  1
  O  O38  1  0.65307744  0.47376669  0.63098582  1
  O  O39  1  0.67414169  0.64467303  0.25677751  1
  O  O40  1  0.98159815  0.78562663  0.65060719  1
  O  O41  1  0.66545065  0.25762881  0.30174909  1
  O  O42  1  0.95587973  0.36370157  0.69825091  1
  O  O43  1  0.85333332  0.41799211  0.27982481  1
  O  O44  1  0.13816730  0.57350851  0.72017519  1
  O  O45  1  0.92021016  0.65460199  0.02705751  1
  O  O46  1  0.43951411  0.16065020  0.28416901  1
  O  O47  1  0.15307744  0.52209162  0.17931075  1
  O  O48  1  0.17414169  0.91736417  0.02946866  1
  O  O49  1  0.91191449  0.69300863  0.78901047  1
  O  O50  1  0.40399815  0.19300863  0.78109414  1
  O  O51  1  0.63816730  0.91799211  0.56465879  1
  O  O52  1  0.13501944  0.33099096  0.34939281  1
  O  O53  1  0.48159815  0.83099096  0.19597152  1
