# generated using pymatgen
data_Tl3Hg2S3ClO12
_symmetry_space_group_name_H-M   'P 1'
_cell_length_a   9.77832437
_cell_length_b   7.91845175
_cell_length_c   9.88575394
_cell_angle_alpha   68.95989718
_cell_angle_beta   90.00000000
_cell_angle_gamma   90.00000000
_symmetry_Int_Tables_number   1
_chemical_formula_structural   Tl3Hg2S3ClO12
_chemical_formula_sum   'Tl6 Hg4 S6 Cl2 O24'
_cell_volume   714.41315288
_cell_formula_units_Z   2
loop_
 _symmetry_equiv_pos_site_id
 _symmetry_equiv_pos_as_xyz
  1  'x, y, z'
loop_
 _atom_site_type_symbol
 _atom_site_label
 _atom_site_symmetry_multiplicity
 _atom_site_fract_x
 _atom_site_fract_y
 _atom_site_fract_z
 _atom_site_occupancy
  Tl  Tl0  1  0.73817569  0.09081153  0.72881580  1
  Tl  Tl1  1  0.87514014  0.68400439  0.13995885  1
  Tl  Tl2  1  0.37514014  0.31599561  0.86004115  1
  Tl  Tl3  1  0.55665589  0.32431807  0.29923714  1
  Tl  Tl4  1  0.23817569  0.90918847  0.27118420  1
  Tl  Tl5  1  0.05665589  0.67568193  0.70076286  1
  Hg  Hg6  1  0.41928690  0.75712020  0.96286178  1
  Hg  Hg7  1  0.13681469  0.27318935  0.50554572  1
  Hg  Hg8  1  0.91928690  0.24287980  0.03713822  1
  Hg  Hg9  1  0.63681469  0.72681065  0.49445428  1
  S  S10  1  0.08766423  0.01558337  0.88978347  1
  S  S11  1  0.20134549  0.44184753  0.13688889  1
  S  S12  1  0.58766423  0.98441663  0.11021653  1
  S  S13  1  0.88575398  0.08812984  0.39003100  1
  S  S14  1  0.70134549  0.55815247  0.86311111  1
  S  S15  1  0.38575398  0.91187016  0.60996900  1
  Cl  Cl16  1  0.30168262  0.48603944  0.50918122  1
  Cl  Cl17  1  0.80168262  0.51396056  0.49081878  1
  O  O18  1  0.35032631  0.48581543  0.09390222  1
  O  O19  1  0.95362886  0.12211354  0.51658099  1
  O  O20  1  0.46137271  0.04772436  0.64597877  1
  O  O21  1  0.54051145  0.98898422  0.96159617  1
  O  O22  1  0.63070073  0.57202042  0.99095720  1
  O  O23  1  0.96137271  0.95227564  0.35402123  1
  O  O24  1  0.20381572  0.26507983  0.25654017  1
  O  O25  1  0.01038100  0.87511912  0.85859957  1
  O  O26  1  0.13070073  0.42797958  0.00904280  1
  O  O27  1  0.45362886  0.87788646  0.48341901  1
  O  O28  1  0.73563770  0.02077160  0.09915199  1
  O  O29  1  0.04051145  0.01101578  0.03840383  1
  O  O30  1  0.74572013  0.02942827  0.44144306  1
  O  O31  1  0.64324494  0.41676386  0.81849510  1
  O  O32  1  0.14324494  0.58323614  0.18150490  1
  O  O33  1  0.70381572  0.73492017  0.74345983  1
  O  O34  1  0.51038100  0.12488088  0.14140043  1
  O  O35  1  0.23563770  0.97922840  0.90084801  1
  O  O36  1  0.85032631  0.51418457  0.90609778  1
  O  O37  1  0.05981502  0.19714989  0.78355383  1
  O  O38  1  0.87882680  0.26377809  0.26629563  1
  O  O39  1  0.37882680  0.73622191  0.73370437  1
  O  O40  1  0.55981502  0.80285011  0.21644617  1
  O  O41  1  0.24572013  0.97057173  0.55855694  1
