# generated using pymatgen
data_Cs2AgI3
_symmetry_space_group_name_H-M   'P 1'
_cell_length_a   5.00041521
_cell_length_b   14.75867640
_cell_length_c   15.49226888
_cell_angle_alpha   90.00000000
_cell_angle_beta   90.00000000
_cell_angle_gamma   90.00000000
_symmetry_Int_Tables_number   1
_chemical_formula_structural   Cs2AgI3
_chemical_formula_sum   'Cs8 Ag4 I12'
_cell_volume   1143.32185136
_cell_formula_units_Z   4
loop_
 _symmetry_equiv_pos_site_id
 _symmetry_equiv_pos_as_xyz
  1  'x, y, z'
loop_
 _atom_site_type_symbol
 _atom_site_label
 _atom_site_symmetry_multiplicity
 _atom_site_fract_x
 _atom_site_fract_y
 _atom_site_fract_z
 _atom_site_occupancy
  Cs  Cs0  1  0.75000000  0.17560998  0.48247292  1
  Cs  Cs1  1  0.25000000  0.82439002  0.51752708  1
  Cs  Cs2  1  0.75000000  0.67560998  0.01752708  1
  Cs  Cs3  1  0.25000000  0.32439002  0.98247292  1
  Cs  Cs4  1  0.75000000  0.51363786  0.67554230  1
  Cs  Cs5  1  0.25000000  0.48636214  0.32445770  1
  Cs  Cs6  1  0.75000000  0.01363786  0.82445770  1
  Cs  Cs7  1  0.25000000  0.98636214  0.17554230  1
  Ag  Ag8  1  0.75000000  0.25541915  0.19454019  1
  Ag  Ag9  1  0.25000000  0.74458085  0.80545981  1
  Ag  Ag10  1  0.75000000  0.75541915  0.30545981  1
  Ag  Ag11  1  0.25000000  0.24458085  0.69454019  1
  I  I12  1  0.75000000  0.13486882  0.05056673  1
  I  I13  1  0.25000000  0.86513118  0.94943327  1
  I  I14  1  0.75000000  0.63486882  0.44943327  1
  I  I15  1  0.25000000  0.36513118  0.55056673  1
  I  I16  1  0.75000000  0.44046364  0.13919073  1
  I  I17  1  0.25000000  0.55953636  0.86080927  1
  I  I18  1  0.75000000  0.94046364  0.36080927  1
  I  I19  1  0.25000000  0.05953636  0.63919073  1
  I  I20  1  0.75000000  0.27605749  0.78717048  1
  I  I21  1  0.25000000  0.72394251  0.21282952  1
  I  I22  1  0.75000000  0.77605749  0.71282952  1
  I  I23  1  0.25000000  0.22394251  0.28717048  1
