# generated using pymatgen
data_BaNaCr2F9
_symmetry_space_group_name_H-M   'P 1'
_cell_length_a   17.36435710
_cell_length_b   5.37680431
_cell_length_c   8.93629988
_cell_angle_alpha   54.67451597
_cell_angle_beta   90.00000000
_cell_angle_gamma   90.00000000
_symmetry_Int_Tables_number   1
_chemical_formula_structural   BaNaCr2F9
_chemical_formula_sum   'Ba4 Na4 Cr8 F36'
_cell_volume   680.71797850
_cell_formula_units_Z   4
loop_
 _symmetry_equiv_pos_site_id
 _symmetry_equiv_pos_as_xyz
  1  'x, y, z'
loop_
 _atom_site_type_symbol
 _atom_site_label
 _atom_site_symmetry_multiplicity
 _atom_site_fract_x
 _atom_site_fract_y
 _atom_site_fract_z
 _atom_site_occupancy
  Ba  Ba0  1  0.71489182  0.33962015  0.93188006  1
  Ba  Ba1  1  0.21489182  0.66037985  0.56811994  1
  Ba  Ba2  1  0.28510818  0.66037985  0.06811994  1
  Ba  Ba3  1  0.78510818  0.33962015  0.43188006  1
  Na  Na4  1  0.96047336  0.56001489  0.69170362  1
  Na  Na5  1  0.46047336  0.43998511  0.80829638  1
  Na  Na6  1  0.53952664  0.56001489  0.19170362  1
  Na  Na7  1  0.03952664  0.43998511  0.30829638  1
  Cr  Cr8  1  0.57925060  0.00552272  0.72798844  1
  Cr  Cr9  1  0.12112579  0.18957602  0.09172879  1
  Cr  Cr10  1  0.87887421  0.81042398  0.90827121  1
  Cr  Cr11  1  0.37887421  0.18957602  0.59172879  1
  Cr  Cr12  1  0.92074940  0.00552272  0.22798844  1
  Cr  Cr13  1  0.42074940  0.99447728  0.27201156  1
  Cr  Cr14  1  0.62112579  0.81042398  0.40827121  1
  Cr  Cr15  1  0.07925060  0.99447728  0.77201156  1
  F  F16  1  0.93326186  0.81930225  0.09531146  1
  F  F17  1  0.43326186  0.18069775  0.40468854  1
  F  F18  1  0.06673814  0.18069775  0.90468854  1
  F  F19  1  0.56673814  0.81930225  0.59531146  1
  F  F20  1  0.79191738  0.62766425  0.05998010  1
  F  F21  1  0.29191738  0.37233575  0.44001990  1
  F  F22  1  0.20808262  0.37233575  0.94001990  1
  F  F23  1  0.70808262  0.62766425  0.55998010  1
  F  F24  1  0.53216824  0.00087951  0.25101219  1
  F  F25  1  0.03216824  0.99912049  0.24898781  1
  F  F26  1  0.46783176  0.99912049  0.74898781  1
  F  F27  1  0.96783176  0.00087951  0.75101219  1
  F  F28  1  0.66191461  0.20225665  0.29816997  1
  F  F29  1  0.16191461  0.79774335  0.20183003  1
  F  F30  1  0.33808539  0.79774335  0.70183003  1
  F  F31  1  0.83808539  0.20225665  0.79816997  1
  F  F32  1  0.57989105  0.17106088  0.86321001  1
  F  F33  1  0.07989105  0.82893912  0.63678999  1
  F  F34  1  0.42010895  0.82893912  0.13678999  1
  F  F35  1  0.92010895  0.17106088  0.36321001  1
  F  F36  1  0.07513074  0.58734582  0.00187734  1
  F  F37  1  0.57513074  0.41265418  0.49812266  1
  F  F38  1  0.92486926  0.41265418  0.99812266  1
  F  F39  1  0.42486926  0.58734582  0.50187734  1
  F  F40  1  0.68701053  0.99087293  0.71936235  1
  F  F41  1  0.18701053  0.00912707  0.78063765  1
  F  F42  1  0.31298947  0.00912707  0.28063765  1
  F  F43  1  0.81298947  0.99087293  0.21936235  1
  F  F44  1  0.08105235  0.39294747  0.55830824  1
  F  F45  1  0.58105235  0.60705253  0.94169176  1
  F  F46  1  0.91894765  0.60705253  0.44169176  1
  F  F47  1  0.41894765  0.39294747  0.05830824  1
  F  F48  1  0.83570684  0.78350691  0.72494434  1
  F  F49  1  0.33570684  0.21649309  0.77505566  1
  F  F50  1  0.16429316  0.21649309  0.27505566  1
  F  F51  1  0.66429316  0.78350691  0.22494434  1
