# generated using pymatgen
data_P4S3I2
_symmetry_space_group_name_H-M   'P 1'
_cell_length_a   7.47404959
_cell_length_b   7.51255246
_cell_length_c   20.33011345
_cell_angle_alpha   85.11554545
_cell_angle_beta   89.50465774
_cell_angle_gamma   89.66312808
_symmetry_Int_Tables_number   1
_chemical_formula_structural   P4S3I2
_chemical_formula_sum   'P16 S12 I8'
_cell_volume   1137.31623487
_cell_formula_units_Z   4
loop_
 _symmetry_equiv_pos_site_id
 _symmetry_equiv_pos_as_xyz
  1  'x, y, z'
loop_
 _atom_site_type_symbol
 _atom_site_label
 _atom_site_symmetry_multiplicity
 _atom_site_fract_x
 _atom_site_fract_y
 _atom_site_fract_z
 _atom_site_occupancy
  P  P0  1  0.60828946  0.72455019  0.45447131  1
  P  P1  1  0.39171054  0.27544981  0.54552869  1
  P  P2  1  0.02559733  0.45159485  0.39555284  1
  P  P3  1  0.97440267  0.54840515  0.60444716  1
  P  P4  1  0.57366064  0.52105843  0.38326392  1
  P  P5  1  0.42633936  0.47894157  0.61673608  1
  P  P6  1  0.94703645  0.70762230  0.34141317  1
  P  P7  1  0.05296355  0.29237770  0.65858683  1
  P  P8  1  0.28439072  0.61811159  0.95446703  1
  P  P9  1  0.71560928  0.38188841  0.04553297  1
  P  P10  1  0.56283746  0.04935669  0.89875203  1
  P  P11  1  0.43716254  0.95064331  0.10124797  1
  P  P12  1  0.50533474  0.60430261  0.88217880  1
  P  P13  1  0.49466526  0.39569739  0.11782120  1
  P  P14  1  0.32021321  0.98526568  0.84382466  1
  P  P15  1  0.67978679  0.01473432  0.15617534  1
  S  S16  1  0.86485774  0.82613522  0.42840444  1
  S  S17  1  0.13514226  0.17386478  0.57159556  1
  S  S18  1  0.77455439  0.34832967  0.42746077  1
  S  S19  1  0.22544561  0.65167033  0.57253923  1
  S  S20  1  0.70431458  0.64115181  0.29965532  1
  S  S21  1  0.29568542  0.35884819  0.70034468  1
  S  S22  1  0.18265106  0.87851056  0.93051012  1
  S  S23  1  0.81734894  0.12148944  0.06948988  1
  S  S24  1  0.66414863  0.79251647  0.92823230  1
  S  S25  1  0.33585137  0.20748353  0.07176770  1
  S  S26  1  0.40242600  0.75631480  0.79994416  1
  S  S27  1  0.59757400  0.24368520  0.20005584  1
  I  I28  1  0.39948978  0.95108817  0.40084652  1
  I  I29  1  0.60051022  0.04891183  0.59915348  1
  I  I30  1  0.09945926  0.28442968  0.29790743  1
  I  I31  1  0.90054074  0.71557032  0.70209257  1
  I  I32  1  0.07227736  0.42133813  0.90080222  1
  I  I33  1  0.92772264  0.57866187  0.09919778  1
  I  I34  1  0.75495638  0.14702802  0.80122253  1
  I  I35  1  0.24504362  0.85297198  0.19877747  1
