# generated using pymatgen
data_PrGeBO5
_symmetry_space_group_name_H-M   'P 1'
_cell_length_a   12.06619479
_cell_length_b   12.06619434
_cell_length_c   6.78230828
_cell_angle_alpha   90.00000000
_cell_angle_beta   90.00000000
_cell_angle_gamma   119.99999593
_symmetry_Int_Tables_number   1
_chemical_formula_structural   PrGeBO5
_chemical_formula_sum   'Pr9 Ge9 B9 O45'
_cell_volume   855.16284540
_cell_formula_units_Z   9
loop_
 _symmetry_equiv_pos_site_id
 _symmetry_equiv_pos_as_xyz
  1  'x, y, z'
loop_
 _atom_site_type_symbol
 _atom_site_label
 _atom_site_symmetry_multiplicity
 _atom_site_fract_x
 _atom_site_fract_y
 _atom_site_fract_z
 _atom_site_occupancy
  Pr  Pr0  1  0.52864349  0.05623181  0.66106723  1
  Pr  Pr1  1  0.94376819  0.47241268  0.99440123  1
  Pr  Pr2  1  0.86193527  0.13846257  0.33035229  1
  Pr  Pr3  1  0.27652630  0.13806473  0.99701929  1
  Pr  Pr4  1  0.19384828  0.38995676  0.65852641  1
  Pr  Pr5  1  0.52758732  0.47135651  0.32773423  1
  Pr  Pr6  1  0.19610848  0.80615172  0.32519341  1
  Pr  Pr7  1  0.61004324  0.80389152  0.99185941  1
  Pr  Pr8  1  0.86153743  0.72347370  0.66368629  1
  Ge  Ge9  1  0.19414656  0.38645141  0.15879438  1
  Ge  Ge10  1  0.61354859  0.80769515  0.49212738  1
  Ge  Ge11  1  0.52866273  0.05374885  0.16026476  1
  Ge  Ge12  1  0.52508613  0.47133727  0.82693176  1
  Ge  Ge13  1  0.94625115  0.47491387  0.49359876  1
  Ge  Ge14  1  0.85956998  0.13949375  0.83181523  1
  Ge  Ge15  1  0.27992376  0.14043002  0.49848223  1
  Ge  Ge16  1  0.86050625  0.72007624  0.16514923  1
  Ge  Ge17  1  0.19230485  0.80585344  0.82546138  1
  B  B18  1  0.02847811  0.07239047  0.63343328  1
  B  B19  1  0.69526774  0.28906897  0.36291037  1
  B  B20  1  0.92760953  0.95608664  0.96676628  1
  B  B21  1  0.59380124  0.30473226  0.02957737  1
  B  B22  1  0.26053944  0.62203434  0.95724670  1
  B  B23  1  0.37796566  0.63850511  0.29057970  1
  B  B24  1  0.04391336  0.97152189  0.30009928  1
  B  B25  1  0.36149489  0.73946056  0.62391370  1
  B  B26  1  0.71093103  0.40619876  0.69624437  1
  O  O27  1  0.07863476  0.76984040  0.64524174  1
  O  O28  1  0.74874976  0.63344620  0.34311566  1
  O  O29  1  0.35044167  0.25650377  0.31951349  1
  O  O30  1  0.64882999  0.48622084  0.66705259  1
  O  O31  1  0.17067220  0.15320338  0.66041884  1
  O  O32  1  0.88469643  0.25125024  0.00978266  1
  O  O33  1  0.99315942  0.03017791  0.43098669  1
  O  O34  1  0.65625852  0.15184086  0.32262812  1
  O  O35  1  0.32098364  0.83631301  0.66479531  1
  O  O36  1  0.22634045  0.91992222  0.00319765  1
  O  O37  1  0.32721802  0.69756592  0.42089693  1
  O  O38  1  0.69358177  0.77365955  0.66986465  1
  O  O39  1  0.50388678  0.82201977  0.65094302  1
  O  O40  1  0.51533037  0.67901636  0.33146231  1
  O  O41  1  0.84815914  0.50441766  0.65596212  1
  O  O42  1  0.18125439  0.01047433  0.34074347  1
  O  O43  1  0.49558234  0.34374148  0.98929512  1
  O  O44  1  0.03701849  0.00684058  0.09765269  1
  O  O45  1  0.96982209  0.96298151  0.76431969  1
  O  O46  1  0.51377916  0.16260914  0.00038559  1
  O  O47  1  0.66221181  0.29602602  0.56705674  1
  O  O48  1  0.56690879  0.58757315  0.00436917  1
  O  O49  1  0.82921994  0.81874561  0.00741047  1
  O  O50  1  0.74349623  0.09393790  0.65284649  1
  O  O51  1  0.36655380  0.11530357  0.67644866  1
  O  O52  1  0.30243408  0.62965210  0.75422993  1
  O  O53  1  0.37034790  0.67278198  0.08756293  1
  O  O54  1  0.84679662  0.01746882  0.99375184  1
  O  O55  1  0.55683490  0.96997775  0.98095894  1
  O  O56  1  0.98253118  0.82932780  0.32708584  1
  O  O57  1  0.23015960  0.30879335  0.97857474  1
  O  O58  1  0.98952567  0.17078006  0.67407747  1
  O  O59  1  0.63381321  0.33778819  0.23372374  1
  O  O60  1  0.02066436  0.43309121  0.67103617  1
  O  O61  1  0.16368699  0.48466963  0.99812931  1
  O  O62  1  0.41314385  0.44316510  0.64762594  1
  O  O63  1  0.70397398  0.36618679  0.90038974  1
  O  O64  1  0.03002225  0.58685615  0.31429294  1
  O  O65  1  0.41242685  0.97933564  0.33770217  1
  O  O66  1  0.69120665  0.92136524  0.31190774  1
  O  O67  1  0.08007778  0.30641823  0.33653165  1
  O  O68  1  0.90606210  0.64955833  0.98618049  1
  O  O69  1  0.83739086  0.35117001  0.33371959  1
  O  O70  1  0.31813299  0.49611322  0.31761002  1
  O  O71  1  0.17798023  0.68186701  0.98427702  1
