# generated using pymatgen
data_Sr(GaO2)2
_symmetry_space_group_name_H-M   'P 1'
_cell_length_a   8.10515145
_cell_length_b   9.05457200
_cell_length_c   10.75684972
_cell_angle_alpha   90.00000000
_cell_angle_beta   90.00000000
_cell_angle_gamma   91.38226202
_symmetry_Int_Tables_number   1
_chemical_formula_structural   Sr(GaO2)2
_chemical_formula_sum   'Sr8 Ga16 O32'
_cell_volume   789.20125324
_cell_formula_units_Z   8
loop_
 _symmetry_equiv_pos_site_id
 _symmetry_equiv_pos_as_xyz
  1  'x, y, z'
loop_
 _atom_site_type_symbol
 _atom_site_label
 _atom_site_symmetry_multiplicity
 _atom_site_fract_x
 _atom_site_fract_y
 _atom_site_fract_z
 _atom_site_occupancy
  Sr  Sr0  1  0.49343144  0.77426214  0.10778513  1
  Sr  Sr1  1  0.50656856  0.22573786  0.89221487  1
  Sr  Sr2  1  0.99343144  0.27426214  0.39221487  1
  Sr  Sr3  1  0.00447449  0.30006607  0.84662148  1
  Sr  Sr4  1  0.00656856  0.72573786  0.60778513  1
  Sr  Sr5  1  0.49552551  0.19993393  0.34662248  1
  Sr  Sr6  1  0.50447449  0.80006607  0.65337852  1
  Sr  Sr7  1  0.99552551  0.69993393  0.15337852  1
  Ga  Ga8  1  0.80797114  0.90807656  0.36403152  1
  Ga  Ga9  1  0.71914521  0.56927946  0.36220910  1
  Ga  Ga10  1  0.21914521  0.06927946  0.13779090  1
  Ga  Ga11  1  0.30797114  0.40807656  0.13596848  1
  Ga  Ga12  1  0.82812464  0.07074255  0.11262114  1
  Ga  Ga13  1  0.73604965  0.40594403  0.11448344  1
  Ga  Ga14  1  0.76395035  0.09405597  0.61448344  1
  Ga  Ga15  1  0.78085479  0.93072054  0.86220910  1
  Ga  Ga16  1  0.67187536  0.42925745  0.61262114  1
  Ga  Ga17  1  0.26395035  0.59405597  0.88551656  1
  Ga  Ga18  1  0.23604965  0.90594403  0.38551656  1
  Ga  Ga19  1  0.69202886  0.59192344  0.86403152  1
  Ga  Ga20  1  0.32812464  0.57074255  0.38737886  1
  Ga  Ga21  1  0.17187536  0.92925745  0.88737886  1
  Ga  Ga22  1  0.28085479  0.43072054  0.63779090  1
  Ga  Ga23  1  0.19202886  0.09192344  0.63596848  1
  O  O24  1  0.84951862  0.45517534  0.25817343  1
  O  O25  1  0.28912889  0.25050163  0.71915495  1
  O  O26  1  0.19168623  0.44671546  0.48107502  1
  O  O27  1  0.21087111  0.24949837  0.21915495  1
  O  O28  1  0.26359659  0.07992881  0.47411303  1
  O  O29  1  0.23640341  0.42007119  0.97411303  1
  O  O30  1  0.52027288  0.33618743  0.11761925  1
  O  O31  1  0.80831377  0.55328454  0.51892498  1
  O  O32  1  0.51979974  0.47272375  0.36540933  1
  O  O33  1  0.65048138  0.04482466  0.75817343  1
  O  O34  1  0.73640341  0.92007119  0.52588697  1
  O  O35  1  0.83017667  0.25045536  0.03341090  1
  O  O36  1  0.78912889  0.75050163  0.78084505  1
  O  O37  1  0.30831377  0.05328454  0.98107502  1
  O  O38  1  0.33017667  0.75045536  0.46658910  1
  O  O39  1  0.98020026  0.02727625  0.86540933  1
  O  O40  1  0.15048138  0.54482466  0.74182657  1
  O  O41  1  0.73187965  0.41492397  0.78237800  1
  O  O42  1  0.76812035  0.08507603  0.28237800  1
  O  O43  1  0.69168623  0.94671546  0.01892498  1
  O  O44  1  0.23187965  0.91492397  0.71762200  1
  O  O45  1  0.97972712  0.16381257  0.61761925  1
  O  O46  1  0.71087111  0.74949837  0.28084505  1
  O  O47  1  0.66982333  0.24954464  0.53341090  1
  O  O48  1  0.76359659  0.57992881  0.02588697  1
  O  O49  1  0.01979974  0.97272375  0.13459067  1
  O  O50  1  0.48020026  0.52727625  0.63459067  1
  O  O51  1  0.34951862  0.95517534  0.24182657  1
  O  O52  1  0.16982333  0.74954464  0.96658910  1
  O  O53  1  0.26812035  0.58507603  0.21762200  1
  O  O54  1  0.02027288  0.83618743  0.38238075  1
  O  O55  1  0.47972712  0.66381257  0.88238075  1
