# generated using pymatgen
data_SbO2
_symmetry_space_group_name_H-M   'P 1'
_cell_length_a   4.83777124
_cell_length_b   5.49742280
_cell_length_c   11.82896334
_cell_angle_alpha   90.00000000
_cell_angle_beta   90.00000000
_cell_angle_gamma   90.00000000
_symmetry_Int_Tables_number   1
_chemical_formula_structural   SbO2
_chemical_formula_sum   'Sb8 O16'
_cell_volume   314.59452017
_cell_formula_units_Z   8
loop_
 _symmetry_equiv_pos_site_id
 _symmetry_equiv_pos_as_xyz
  1  'x, y, z'
loop_
 _atom_site_type_symbol
 _atom_site_label
 _atom_site_symmetry_multiplicity
 _atom_site_fract_x
 _atom_site_fract_y
 _atom_site_fract_z
 _atom_site_occupancy
  Sb  Sb0  1  0.71339491  0.75000000  0.50000000  1
  Sb  Sb1  1  0.75000000  0.11702680  0.25000000  1
  Sb  Sb2  1  0.78660509  0.75000000  0.00000000  1
  Sb  Sb3  1  0.25000000  0.88297320  0.75000000  1
  Sb  Sb4  1  0.28660509  0.25000000  0.50000000  1
  Sb  Sb5  1  0.75000000  0.38297320  0.75000000  1
  Sb  Sb6  1  0.21339491  0.25000000  0.00000000  1
  Sb  Sb7  1  0.25000000  0.61702680  0.25000000  1
  O  O8  1  0.41984278  0.57996386  0.40484150  1
  O  O9  1  0.50281843  0.63808821  0.81014970  1
  O  O10  1  0.00281843  0.13808821  0.68985030  1
  O  O11  1  0.91984278  0.07996386  0.09515850  1
  O  O12  1  0.00281843  0.36191179  0.31014970  1
  O  O13  1  0.58015722  0.07996386  0.40484150  1
  O  O14  1  0.08015722  0.57996386  0.09515850  1
  O  O15  1  0.50281843  0.86191179  0.18985030  1
  O  O16  1  0.41984278  0.92003614  0.59515850  1
  O  O17  1  0.99718157  0.86191179  0.31014970  1
  O  O18  1  0.49718157  0.36191179  0.18985030  1
  O  O19  1  0.08015722  0.92003614  0.90484150  1
  O  O20  1  0.91984278  0.42003614  0.90484150  1
  O  O21  1  0.49718157  0.13808821  0.81014970  1
  O  O22  1  0.99718157  0.63808821  0.68985030  1
  O  O23  1  0.58015722  0.42003614  0.59515850  1
