# generated using pymatgen
data_K3MnO3
_symmetry_space_group_name_H-M   'P 1'
_cell_length_a   6.59468673
_cell_length_b   6.71156598
_cell_length_c   11.47597277
_cell_angle_alpha   89.99972045
_cell_angle_beta   90.00002406
_cell_angle_gamma   95.79079295
_symmetry_Int_Tables_number   1
_chemical_formula_structural   K3MnO3
_chemical_formula_sum   'K12 Mn4 O12'
_cell_volume   505.34227995
_cell_formula_units_Z   4
loop_
 _symmetry_equiv_pos_site_id
 _symmetry_equiv_pos_as_xyz
  1  'x, y, z'
loop_
 _atom_site_type_symbol
 _atom_site_label
 _atom_site_symmetry_multiplicity
 _atom_site_fract_x
 _atom_site_fract_y
 _atom_site_fract_z
 _atom_site_occupancy
  K  K0  1  0.65353578  0.85641730  0.98912382  1
  K  K1  1  0.34648709  0.64360272  0.48912742  1
  K  K2  1  0.34649587  0.14361314  0.01089550  1
  K  K3  1  0.65350724  0.35638888  0.51088579  1
  K  K4  1  0.52619971  0.50484579  0.21026901  1
  K  K5  1  0.47382765  0.99518391  0.71027634  1
  K  K6  1  0.47379702  0.49519408  0.78972887  1
  K  K7  1  0.52620546  0.00481446  0.28974384  1
  K  K8  1  0.02213004  0.57786540  0.72436946  1
  K  K9  1  0.97786657  0.92213458  0.22436967  1
  K  K10  1  0.97785497  0.42212169  0.27562047  1
  K  K11  1  0.02214031  0.07785492  0.77562698  1
  Mn  Mn12  1  0.15929859  0.16084001  0.49622241  1
  Mn  Mn13  1  0.15930617  0.66085176  0.00376593  1
  Mn  Mn14  1  0.84069218  0.33915952  0.99622183  1
  Mn  Mn15  1  0.84069972  0.83914287  0.50376474  1
  O  O16  1  0.10579455  0.40521798  0.92403609  1
  O  O17  1  0.89419915  0.09476886  0.42403532  1
  O  O18  1  0.89419955  0.59478936  0.07595681  1
  O  O19  1  0.10578666  0.90521003  0.57596379  1
  O  O20  1  0.69970259  0.21457050  0.87266016  1
  O  O21  1  0.30029256  0.28542710  0.37265898  1
  O  O22  1  0.30029120  0.78543561  0.12734019  1
  O  O23  1  0.69969678  0.71455681  0.62734167  1
  O  O24  1  0.27783428  0.80636397  0.88099025  1
  O  O25  1  0.72216953  0.69363506  0.38098952  1
  O  O26  1  0.72216453  0.19364185  0.11900828  1
  O  O27  1  0.27782722  0.30635585  0.61900685  1
