# generated using pymatgen
data_Lu2Te5O13
_symmetry_space_group_name_H-M   'P 1'
_cell_length_a   6.80944201
_cell_length_b   8.61136896
_cell_length_c   10.49144842
_cell_angle_alpha   88.08663272
_cell_angle_beta   86.58023827
_cell_angle_gamma   74.52073035
_symmetry_Int_Tables_number   1
_chemical_formula_structural   Lu2Te5O13
_chemical_formula_sum   'Lu4 Te10 O26'
_cell_volume   591.73546010
_cell_formula_units_Z   2
loop_
 _symmetry_equiv_pos_site_id
 _symmetry_equiv_pos_as_xyz
  1  'x, y, z'
loop_
 _atom_site_type_symbol
 _atom_site_label
 _atom_site_symmetry_multiplicity
 _atom_site_fract_x
 _atom_site_fract_y
 _atom_site_fract_z
 _atom_site_occupancy
  Lu  Lu0  1  0.99737288  0.25616486  0.75908083  1
  Lu  Lu1  1  0.55051584  0.53097564  0.18114965  1
  Lu  Lu2  1  0.00262712  0.74383514  0.24091917  1
  Lu  Lu3  1  0.44948416  0.46902436  0.81885035  1
  Te  Te4  1  0.87103878  0.64720287  0.89716639  1
  Te  Te5  1  0.55793019  0.09654786  0.69960769  1
  Te  Te6  1  0.12896122  0.35279713  0.10283361  1
  Te  Te7  1  0.70868978  0.12208197  0.02686876  1
  Te  Te8  1  0.44206981  0.90345214  0.30039231  1
  Te  Te9  1  0.72920465  0.60240341  0.51628158  1
  Te  Te10  1  0.84191185  0.19725465  0.36054875  1
  Te  Te11  1  0.29131022  0.87791803  0.97313124  1
  Te  Te12  1  0.15808815  0.80274535  0.63945125  1
  Te  Te13  1  0.27079535  0.39759659  0.48371842  1
  O  O14  1  0.53007264  0.32931155  -0.00183590  1
  O  O15  1  0.67892570  0.77137951  0.22162579  1
  O  O16  1  0.93281416  0.98508984  0.30438737  1
  O  O17  1  0.66408196  0.48786910  0.38239962  1
  O  O18  1  0.23006118  0.50414378  0.18379420  1
  O  O19  1  0.03907384  0.35261135  0.56678622  1
  O  O20  1  0.05683554  0.82132622  0.04097667  1
  O  O21  1  0.66129000  0.26662515  0.22895858  1
  O  O22  1  0.93668832  0.73040055  0.72248486  1
  O  O23  1  0.86767326  0.50388173  0.09725948  1
  O  O24  1  0.46992736  0.67068845  0.00183590  1
  O  O25  1  0.94316446  0.17867378  0.95902333  1
  O  O26  1  0.06718584  0.01491016  0.69561263  1
  O  O27  1  0.96092616  0.64738865  0.43321378  1
  O  O28  1  0.32107430  0.22862049  0.77837421  1
  O  O29  1  0.34863277  0.98261346  0.12177305  1
  O  O30  1  0.76993882  0.49585622  0.81620580  1
  O  O31  1  0.31587099  0.73630456  0.28789076  1
  O  O32  1  0.33591804  0.51213090  0.61760038  1
  O  O33  1  0.33871000  0.73337485  0.77104142  1
  O  O34  1  0.45726384  0.19365227  0.52047465  1
  O  O35  1  0.06331168  0.26959945  0.27751514  1
  O  O36  1  0.13232674  0.49611827  0.90274052  1
  O  O37  1  0.68412901  0.26369544  0.71210924  1
  O  O38  1  0.54273616  0.80634773  0.47952535  1
  O  O39  1  0.65136723  0.01738654  0.87822695  1
