# generated using pymatgen
data_Li10Mg7Cl24
_symmetry_space_group_name_H-M   'P 1'
_cell_length_a   7.43471665
_cell_length_b   7.43471665
_cell_length_c   36.32991626
_cell_angle_alpha   89.91049480
_cell_angle_beta   89.91049480
_cell_angle_gamma   60.25396622
_symmetry_Int_Tables_number   1
_chemical_formula_structural   Li10Mg7Cl24
_chemical_formula_sum   'Li20 Mg14 Cl48'
_cell_volume   1743.52789879
_cell_formula_units_Z   2
loop_
 _symmetry_equiv_pos_site_id
 _symmetry_equiv_pos_as_xyz
  1  'x, y, z'
loop_
 _atom_site_type_symbol
 _atom_site_label
 _atom_site_symmetry_multiplicity
 _atom_site_fract_x
 _atom_site_fract_y
 _atom_site_fract_z
 _atom_site_occupancy
  Li  Li0  1  0.65922200  0.65922200  0.91752600  1
  Li  Li1  1  0.82563800  0.82563800  0.64366200  1
  Li  Li2  1  0.00022900  0.00022900  0.74932000  1
  Li  Li3  1  0.15925700  0.15925700  0.47729800  1
  Li  Li4  1  0.16694000  0.16694000  0.66674600  1
  Li  Li5  1  0.17387600  0.17387600  0.85396300  1
  Li  Li6  1  0.33329700  0.33329700  0.58339900  1
  Li  Li7  1  0.49990600  0.49990600  0.50004400  1
  Li  Li8  1  0.49238500  0.49238500  0.31065400  1
  Li  Li9  1  0.50738200  0.50738200  0.68980000  1
  Li  Li10  1  0.66665400  0.66665400  0.41661000  1
  Li  Li11  1  0.82522800  0.82522800  0.14550400  1
  Li  Li12  1  0.83339600  0.83339600  0.33325200  1
  Li  Li13  1  0.84092600  0.84092600  0.52273000  1
  Li  Li14  1  0.00008800  0.00008800  0.25019100  1
  Li  Li15  1  0.16684900  0.16684900  0.16791800  1
  Li  Li16  1  0.17389400  0.17389400  0.35600500  1
  Li  Li17  1  0.32655600  0.32655600  0.08400700  1
  Li  Li18  1  0.50758300  0.50758300  0.18941400  1
  Li  Li19  1  0.84148400  0.84148400  0.01950900  1
  Mg  Mg20  1  0.66008700  0.17830900  0.91732000  1
  Mg  Mg21  1  0.99724800  0.50259400  0.75010500  1
  Mg  Mg22  1  0.83121400  0.83121400  0.83086200  1
  Mg  Mg23  1  0.17830900  0.66008700  0.91732000  1
  Mg  Mg24  1  0.33355200  0.83346400  0.58334600  1
  Mg  Mg25  1  0.50259400  0.99724800  0.75010500  1
  Mg  Mg26  1  0.66668300  0.16667500  0.41655600  1
  Mg  Mg27  1  0.83346400  0.33355200  0.58334600  1
  Mg  Mg28  1  0.99964100  0.49962500  0.25019300  1
  Mg  Mg29  1  0.16667500  0.66668300  0.41655600  1
  Mg  Mg30  1  0.32911700  0.84249800  0.08394600  1
  Mg  Mg31  1  0.49962500  0.99964100  0.25019300  1
  Mg  Mg32  1  0.84249800  0.32911700  0.08394600  1
  Mg  Mg33  1  0.49923800  0.49923800  0.99727000  1
  Cl  Cl34  1  0.33899500  0.33899500  0.95747500  1
  Cl  Cl35  1  0.49478800  0.49478800  0.87906000  1
  Cl  Cl36  1  0.80870800  0.33831200  0.95759900  1
  Cl  Cl37  1  0.33831200  0.80870800  0.95759900  1
  Cl  Cl38  1  0.99163300  0.52642900  0.87608600  1
  Cl  Cl39  1  0.67431800  0.67431800  0.79020100  1
  Cl  Cl40  1  0.52642900  0.99163300  0.87608600  1
  Cl  Cl41  1  0.13762700  0.67463500  0.79050600  1
  Cl  Cl42  1  0.83032400  0.83032400  0.71085600  1
  Cl  Cl43  1  0.83688600  0.83688600  0.95366400  1
  Cl  Cl44  1  0.99101800  0.99101800  0.87618500  1
  Cl  Cl45  1  0.67463500  0.13762700  0.79050600  1
  Cl  Cl46  1  0.32888300  0.85559400  0.71083700  1
  Cl  Cl47  1  0.00696800  0.00696800  0.62283800  1
  Cl  Cl48  1  0.85559400  0.32888300  0.71083700  1
  Cl  Cl49  1  0.16332200  0.16332200  0.54461900  1
  Cl  Cl50  1  0.47760300  0.00512800  0.62279800  1
  Cl  Cl51  1  0.17013200  0.17013200  0.78848500  1
  Cl  Cl52  1  0.32718400  0.32718400  0.71142000  1
  Cl  Cl53  1  0.00512800  0.47760300  0.62279800  1
  Cl  Cl54  1  0.66237300  0.18918300  0.54373500  1
  Cl  Cl55  1  0.34034000  0.34034000  0.45605800  1
  Cl  Cl56  1  0.81161800  0.33799700  0.45592000  1
  Cl  Cl57  1  0.18918300  0.66237300  0.54373500  1
  Cl  Cl58  1  0.49664800  0.49664800  0.37792700  1
  Cl  Cl59  1  0.50362700  0.50362700  0.62207400  1
  Cl  Cl60  1  0.33799700  0.81161800  0.45592000  1
  Cl  Cl61  1  0.65990100  0.65990100  0.54377500  1
  Cl  Cl62  1  0.99565900  0.52199400  0.37703800  1
  Cl  Cl63  1  0.67329500  0.67329500  0.28950200  1
  Cl  Cl64  1  0.52199400  0.99565900  0.37703800  1
  Cl  Cl65  1  0.83008900  0.83008900  0.21168000  1
  Cl  Cl66  1  0.14460000  0.67054300  0.28944300  1
  Cl  Cl67  1  0.83685400  0.83685400  0.45519900  1
  Cl  Cl68  1  0.99294000  0.99294000  0.37696200  1
  Cl  Cl69  1  0.67054300  0.14460000  0.28944300  1
  Cl  Cl70  1  0.32880300  0.85540500  0.21039700  1
  Cl  Cl71  1  0.00417900  0.00417900  0.12329300  1
  Cl  Cl72  1  0.85540500  0.32880300  0.21039700  1
  Cl  Cl73  1  0.16145500  0.16145500  0.04662700  1
  Cl  Cl74  1  0.48129400  0.00411300  0.12324000  1
  Cl  Cl75  1  0.16970900  0.16970900  0.28853800  1
  Cl  Cl76  1  0.32650300  0.32650300  0.21032200  1
  Cl  Cl77  1  0.00411300  0.48129400  0.12324000  1
  Cl  Cl78  1  0.65810400  0.19373800  0.04240300  1
  Cl  Cl79  1  0.19373800  0.65810400  0.04240300  1
  Cl  Cl80  1  0.50499100  0.50499100  0.12071300  1
  Cl  Cl81  1  0.65815600  0.65815600  0.04224000  1
