# generated using pymatgen
data_Tl2Te
_symmetry_space_group_name_H-M   'P 1'
_cell_length_a   9.23478273
_cell_length_b   9.23478273
_cell_length_c   31.82117591
_cell_angle_alpha   81.52321904
_cell_angle_beta   81.52321904
_cell_angle_gamma   59.13914331
_symmetry_Int_Tables_number   1
_chemical_formula_structural   Tl2Te
_chemical_formula_sum   'Tl44 Te22'
_cell_volume   2295.82310184
_cell_formula_units_Z   22
loop_
 _symmetry_equiv_pos_site_id
 _symmetry_equiv_pos_as_xyz
  1  'x, y, z'
loop_
 _atom_site_type_symbol
 _atom_site_label
 _atom_site_symmetry_multiplicity
 _atom_site_fract_x
 _atom_site_fract_y
 _atom_site_fract_z
 _atom_site_occupancy
  Tl  Tl0  1  0.40224071  0.20598464  0.31211640  1
  Tl  Tl1  1  0.20598464  0.40224071  0.81211640  1
  Tl  Tl2  1  0.48524866  0.68346840  0.41306689  1
  Tl  Tl3  1  0.00535808  0.83316046  0.42933751  1
  Tl  Tl4  1  0.72100312  0.19607751  0.80937520  1
  Tl  Tl5  1  0.52322268  0.05779937  0.43575310  1
  Tl  Tl6  1  0.56195263  0.71111279  0.00107314  1
  Tl  Tl7  1  0.16796952  0.04543885  0.75923196  1
  Tl  Tl8  1  0.04543885  0.16796952  0.25923196  1
  Tl  Tl9  1  0.79401536  0.59775929  0.18788360  1
  Tl  Tl10  1  0.51799442  0.03599494  0.12267202  1
  Tl  Tl11  1  0.99464192  0.16683954  0.57066249  1
  Tl  Tl12  1  0.94220063  0.47677732  0.06424690  1
  Tl  Tl13  1  0.19607751  0.72100312  0.30937520  1
  Tl  Tl14  1  0.73136435  0.25571209  0.14558494  1
  Tl  Tl15  1  0.83316046  0.00535808  0.92933751  1
  Tl  Tl16  1  0.39371795  0.30800249  0.69696541  1
  Tl  Tl17  1  0.30800249  0.39371795  0.19696541  1
  Tl  Tl18  1  0.48200558  0.96400506  0.87732798  1
  Tl  Tl19  1  0.26863565  0.74428791  0.85441506  1
  Tl  Tl20  1  0.95456115  0.83203048  0.74076804  1
  Tl  Tl21  1  0.05779937  0.52322268  0.93575310  1
  Tl  Tl22  1  0.60628205  0.69199751  0.30303459  1
  Tl  Tl23  1  0.43804737  0.28888721  0.99892686  1
  Tl  Tl24  1  0.10541129  0.15856173  0.46300278  1
  Tl  Tl25  1  0.51475134  0.31653160  0.58693311  1
  Tl  Tl26  1  0.27899688  0.80392249  0.19062480  1
  Tl  Tl27  1  0.84143827  0.89458871  0.03699722  1
  Tl  Tl28  1  0.16683954  0.99464192  0.07066249  1
  Tl  Tl29  1  0.25571209  0.73136435  0.64558494  1
  Tl  Tl30  1  0.69199751  0.60628205  0.80303459  1
  Tl  Tl31  1  0.47677732  0.94220063  0.56424690  1
  Tl  Tl32  1  0.74428791  0.26863565  0.35441506  1
  Tl  Tl33  1  0.15856173  0.10541129  0.96300278  1
  Tl  Tl34  1  0.96400506  0.48200558  0.37732798  1
  Tl  Tl35  1  0.68346840  0.48524866  0.91306689  1
  Tl  Tl36  1  0.31653160  0.51475134  0.08693311  1
  Tl  Tl37  1  0.80392249  0.27899688  0.69062480  1
  Tl  Tl38  1  0.28888721  0.43804737  0.49892686  1
  Tl  Tl39  1  0.71111279  0.56195263  0.50107314  1
  Tl  Tl40  1  0.59775929  0.79401536  0.68788360  1
  Tl  Tl41  1  0.89458871  0.84143827  0.53699722  1
  Tl  Tl42  1  0.83203048  0.95456115  0.24076804  1
  Tl  Tl43  1  0.03599494  0.51799442  0.62267202  1
  Te  Te44  1  0.77267994  0.90967660  0.35232418  1
  Te  Te45  1  0.09032340  0.22732006  0.14767582  1
  Te  Te46  1  0.98141423  0.48244769  0.72631766  1
  Te  Te47  1  0.90967660  0.77267994  0.85232418  1
  Te  Te48  1  0.22732006  0.09032340  0.64767582  1
  Te  Te49  1  0.32067526  0.45559340  0.39463713  1
  Te  Te50  1  0.39773111  0.60226889  0.75000000  1
  Te  Te51  1  0.01897002  0.18404971  0.87190987  1
  Te  Te52  1  0.21934434  0.71115766  0.98479930  1
  Te  Te53  1  0.54440660  0.67932474  0.10536287  1
  Te  Te54  1  0.71115766  0.21934434  0.48479930  1
  Te  Te55  1  0.81595029  0.98102998  0.62809013  1
  Te  Te56  1  0.60226889  0.39773111  0.25000000  1
  Te  Te57  1  0.51755231  0.01858577  0.77368234  1
  Te  Te58  1  0.45559340  0.32067526  0.89463713  1
  Te  Te59  1  0.98102998  0.81595029  0.12809013  1
  Te  Te60  1  0.78065566  0.28884234  0.01520070  1
  Te  Te61  1  0.67932474  0.54440660  0.60536287  1
  Te  Te62  1  0.18404971  0.01897002  0.37190987  1
  Te  Te63  1  0.01858577  0.51755231  0.27368234  1
  Te  Te64  1  0.28884234  0.78065566  0.51520070  1
  Te  Te65  1  0.48244769  0.98141423  0.22631766  1
