# generated using pymatgen
data_Mn(PO3)3
_symmetry_space_group_name_H-M   'P 1'
_cell_length_a   6.54660327
_cell_length_b   9.63419879
_cell_length_c   6.54167157
_cell_angle_alpha   88.95923758
_cell_angle_beta   59.97239697
_cell_angle_gamma   89.99648382
_symmetry_Int_Tables_number   1
_chemical_formula_structural   Mn(PO3)3
_chemical_formula_sum   'Mn2 P6 O18'
_cell_volume   357.13700827
_cell_formula_units_Z   2
loop_
 _symmetry_equiv_pos_site_id
 _symmetry_equiv_pos_as_xyz
  1  'x, y, z'
loop_
 _atom_site_type_symbol
 _atom_site_label
 _atom_site_symmetry_multiplicity
 _atom_site_fract_x
 _atom_site_fract_y
 _atom_site_fract_z
 _atom_site_occupancy
  Mn  Mn0  1  0.31274771  -0.00013493  0.33352538  1
  Mn  Mn1  1  0.35372145  0.49985138  0.33353934  1
  P  P2  1  0.72154288  0.73487704  0.06640773  1
  P  P3  1  0.21209125  0.23490521  0.06636073  1
  P  P4  1  0.70543116  0.24834662  0.21881655  1
  P  P5  1  0.07574220  0.74842580  0.21884000  1
  P  P6  1  0.22774273  0.76700614  0.71267022  1
  P  P7  1  0.05959596  0.26701464  0.71266699  1
  O  O8  1  0.93345259  0.23544561  0.24072135  1
  O  O9  1  0.82580716  0.73543726  0.24077410  1
  O  O10  1  0.57251733  0.85663467  0.10472349  1
  O  O11  1  0.32270723  0.35667528  0.10470253  1
  O  O12  1  0.61563266  0.59413818  0.07884273  1
  O  O13  1  0.30564304  0.09416881  0.07878250  1
  O  O14  1  0.57499447  0.11423719  0.29842491  1
  O  O15  1  0.12673050  0.61437396  0.29844005  1
  O  O16  1  0.57834078  0.37481445  0.34889963  1
  O  O17  1  0.07262487  0.87494497  0.34888136  1
  O  O18  1  0.95224399  0.74382139  0.81490252  1
  O  O19  1  0.23290591  0.24388083  0.81485571  1
  O  O20  1  0.80757105  0.27159492  0.94382790  1
  O  O21  1  0.24857984  0.77167096  0.94383078  1
  O  O22  1  0.35947746  0.64872807  0.56729730  1
  O  O23  1  0.07324215  0.14872397  0.56730144  1
  O  O24  1  0.29621603  0.91019596  0.60421618  1
  O  O25  1  0.09946159  0.41019661  0.60421858  1
