# generated using pymatgen
data_SrTeO3
_symmetry_space_group_name_H-M   'P 1'
_cell_length_a   14.38679608
_cell_length_b   14.38679608
_cell_length_c   15.28444418
_cell_angle_alpha   58.71163675
_cell_angle_beta   58.71163675
_cell_angle_gamma   23.72194348
_symmetry_Int_Tables_number   1
_chemical_formula_structural   SrTeO3
_chemical_formula_sum   'Sr12 Te12 O36'
_cell_volume   1078.70878402
_cell_formula_units_Z   12
loop_
 _symmetry_equiv_pos_site_id
 _symmetry_equiv_pos_as_xyz
  1  'x, y, z'
loop_
 _atom_site_type_symbol
 _atom_site_label
 _atom_site_symmetry_multiplicity
 _atom_site_fract_x
 _atom_site_fract_y
 _atom_site_fract_z
 _atom_site_occupancy
  Sr  Sr0  1  0.20794833  0.03789808  0.39282032  1
  Sr  Sr1  1  0.28706970  0.21937976  0.11065725  1
  Sr  Sr2  1  0.96210192  0.79205167  0.60717968  1
  Sr  Sr3  1  0.09694041  0.90305959  0.00000000  1
  Sr  Sr4  1  0.44151163  0.30497280  0.15620786  1
  Sr  Sr5  1  0.68201886  0.56460963  0.58211735  1
  Sr  Sr6  1  0.78062024  0.71293030  0.88934275  1
  Sr  Sr7  1  0.69502720  0.55848837  0.84379214  1
  Sr  Sr8  1  0.79751246  0.71462099  0.28002443  1
  Sr  Sr9  1  0.60563522  0.39436478  0.50000000  1
  Sr  Sr10  1  0.43539037  0.31798114  0.41788265  1
  Sr  Sr11  1  0.28537901  0.20248754  0.71997557  1
  Te  Te12  1  0.54915470  0.40896328  0.85069520  1
  Te  Te13  1  0.28740885  0.18840831  0.41771982  1
  Te  Te14  1  0.06250231  0.92370519  0.34905587  1
  Te  Te15  1  0.07629481  0.93749769  0.65094413  1
  Te  Te16  1  0.39346413  0.31180311  0.78282757  1
  Te  Te17  1  0.23267236  0.06424470  -0.00006559  1
  Te  Te18  1  0.81159169  0.71259115  0.58228018  1
  Te  Te19  1  0.94592706  0.82747950  0.27775520  1
  Te  Te20  1  0.59103672  0.45084530  0.14930480  1
  Te  Te21  1  0.17252050  0.05407294  0.72224480  1
  Te  Te22  1  0.68819689  0.60653587  0.21717243  1
  Te  Te23  1  0.93575530  0.76732764  0.00006559  1
  O  O24  1  0.10009387  0.09357983  0.85514245  1
  O  O25  1  0.63408977  0.02616247  0.06559461  1
  O  O26  1  0.44472525  0.91285150  0.88236307  1
  O  O27  1  0.37516481  0.45378974  0.65698215  1
  O  O28  1  0.90718009  0.21474048  0.57386365  1
  O  O29  1  0.93975511  0.64374198  0.98284816  1
  O  O30  1  0.90642017  0.89990613  0.14485755  1
  O  O31  1  0.08714850  0.55527475  0.11763693  1
  O  O32  1  0.45168354  0.88375117  0.68405178  1
  O  O33  1  0.92041909  0.99275114  0.61759862  1
  O  O34  1  0.26106769  0.64440936  0.43985616  1
  O  O35  1  0.61039430  0.00385323  0.57095509  1
  O  O36  1  0.37769790  0.52173016  0.97786379  1
  O  O37  1  0.43288195  0.45677833  0.21498572  1
  O  O38  1  0.09509080  0.53710737  0.54668511  1
  O  O39  1  0.78525952  0.09281991  0.42613635  1
  O  O40  1  0.53001179  0.85785846  0.22926331  1
  O  O41  1  0.61813356  0.03021584  0.75273901  1
  O  O42  1  0.99614677  0.38960570  0.42904491  1
  O  O43  1  0.54621026  0.62483519  0.34301785  1
  O  O44  1  0.47826984  0.62230210  0.02213621  1
  O  O45  1  0.83172116  0.63396311  0.72277451  1
  O  O46  1  0.84830862  0.11514775  0.88524140  1
  O  O47  1  0.97823304  0.34743913  0.66214805  1
  O  O48  1  0.35625802  0.06024489  0.01715184  1
  O  O49  1  0.65256087  0.02176696  0.33785195  1
  O  O50  1  0.35559064  0.73893231  0.56014384  1
  O  O51  1  0.00724886  0.07958091  0.38240138  1
  O  O52  1  0.14214154  0.46998821  0.77073669  1
  O  O53  1  0.88485225  0.15169138  0.11475860  1
  O  O54  1  0.46289263  0.90490920  0.45331489  1
  O  O55  1  0.54322167  0.56711805  0.78501428  1
  O  O56  1  0.11624883  0.54831646  0.31594822  1
  O  O57  1  0.96978416  0.38186644  0.24726099  1
  O  O58  1  0.97383753  0.36591023  0.93440539  1
  O  O59  1  0.36603689  0.16827884  0.27722549  1
