# generated using pymatgen
data_K5In(MoO4)4
_symmetry_space_group_name_H-M   'P 1'
_cell_length_a   9.47207899
_cell_length_b   9.47207899
_cell_length_c   10.48445277
_cell_angle_alpha   71.91822717
_cell_angle_beta   71.91822717
_cell_angle_gamma   79.27526651
_symmetry_Int_Tables_number   1
_chemical_formula_structural   K5In(MoO4)4
_chemical_formula_sum   'K10 In2 Mo8 O32'
_cell_volume   845.84792582
_cell_formula_units_Z   2
loop_
 _symmetry_equiv_pos_site_id
 _symmetry_equiv_pos_as_xyz
  1  'x, y, z'
loop_
 _atom_site_type_symbol
 _atom_site_label
 _atom_site_symmetry_multiplicity
 _atom_site_fract_x
 _atom_site_fract_y
 _atom_site_fract_z
 _atom_site_occupancy
  K  K0  1  0.39072282  0.60958202  0.75320174  1
  K  K1  1  0.60958202  0.39072282  0.25320174  1
  K  K2  1  0.33625524  0.07728680  0.43167049  1
  K  K3  1  0.07728680  0.33625524  0.93167049  1
  K  K4  1  0.81981809  0.62049066  0.43799765  1
  K  K5  1  0.62049066  0.81981809  0.93799765  1
  K  K6  1  0.66218546  0.92348969  0.57413184  1
  K  K7  1  0.92348969  0.66218546  0.07413184  1
  K  K8  1  0.18163569  0.38054231  0.56712102  1
  K  K9  1  0.38054231  0.18163569  0.06712102  1
  In  In10  1  0.88516919  0.11520215  0.75278663  1
  In  In11  1  0.11520215  0.88516919  0.25278663  1
  Mo  Mo12  1  0.53065642  0.26372059  0.66118551  1
  Mo  Mo13  1  0.26372059  0.53065642  0.16118551  1
  Mo  Mo14  1  0.04528357  0.77910154  0.63750760  1
  Mo  Mo15  1  0.77910154  0.04528357  0.13750760  1
  Mo  Mo16  1  0.47047032  0.73727822  0.34327718  1
  Mo  Mo17  1  0.73727822  0.47047032  0.84327718  1
  Mo  Mo18  1  0.95554475  0.22079066  0.36896562  1
  Mo  Mo19  1  0.22079066  0.95554475  0.86896562  1
  O  O20  1  0.61646561  0.42795965  0.58200778  1
  O  O21  1  0.42795965  0.61646561  0.08200778  1
  O  O22  1  0.36388178  0.29785217  0.78707086  1
  O  O23  1  0.29785217  0.36388178  0.28707086  1
  O  O24  1  0.47814005  0.21323290  0.53624491  1
  O  O25  1  0.21323290  0.47814005  0.03624491  1
  O  O26  1  0.66344591  0.12177091  0.73727451  1
  O  O27  1  0.12177091  0.66344591  0.23727451  1
  O  O28  1  0.21407487  0.84523210  0.60415649  1
  O  O29  1  0.84523210  0.21407487  0.10415649  1
  O  O30  1  0.00691693  0.80413767  0.47323072  1
  O  O31  1  0.80413767  0.00691693  0.97323072  1
  O  O32  1  0.90093403  0.88670388  0.73707010  1
  O  O33  1  0.88670388  0.90093403  0.23707010  1
  O  O34  1  0.06221797  0.58933318  0.72333708  1
  O  O35  1  0.58933318  0.06221797  0.22333708  1
  O  O36  1  0.38563471  0.57241643  0.42164319  1
  O  O37  1  0.57241643  0.38563471  0.92164319  1
  O  O38  1  0.63752768  0.70432397  0.21715324  1
  O  O39  1  0.70432397  0.63752768  0.71715324  1
  O  O40  1  0.52196296  0.78746064  0.46889591  1
  O  O41  1  0.78746064  0.52196296  0.96889591  1
  O  O42  1  0.33719702  0.87884079  0.26760866  1
  O  O43  1  0.87884079  0.33719702  0.76760866  1
  O  O44  1  0.78653232  0.15461208  0.40339361  1
  O  O45  1  0.15461208  0.78653232  0.90339361  1
  O  O46  1  0.99545577  0.19534852  0.53265209  1
  O  O47  1  0.19534852  0.99545577  0.03265209  1
  O  O48  1  0.09965967  0.11335632  0.26914386  1
  O  O49  1  0.11335632  0.09965967  0.76914386  1
  O  O50  1  0.93861273  0.41058959  0.28335072  1
  O  O51  1  0.41058959  0.93861273  0.78335072  1
