# generated using pymatgen
data_K3Sn5Cl3F10
_symmetry_space_group_name_H-M   'P 1'
_cell_length_a   9.87034570
_cell_length_b   9.87034570
_cell_length_c   20.52697469
_cell_angle_alpha   90.00000000
_cell_angle_beta   90.00000000
_cell_angle_gamma   154.92955179
_symmetry_Int_Tables_number   1
_chemical_formula_structural   K3Sn5Cl3F10
_chemical_formula_sum   'K6 Sn10 Cl6 F20'
_cell_volume   847.38591402
_cell_formula_units_Z   2
loop_
 _symmetry_equiv_pos_site_id
 _symmetry_equiv_pos_as_xyz
  1  'x, y, z'
loop_
 _atom_site_type_symbol
 _atom_site_label
 _atom_site_symmetry_multiplicity
 _atom_site_fract_x
 _atom_site_fract_y
 _atom_site_fract_z
 _atom_site_occupancy
  K  K0  1  -0.00000000  0.00000000  -0.00000000  1
  K  K1  1  0.55973126  0.44026874  0.16327915  1
  K  K2  1  0.55973126  0.44026874  0.33672085  1
  K  K3  1  0.44026874  0.55973126  0.66327915  1
  K  K4  1  0.44026874  0.55973126  0.83672085  1
  K  K5  1  -0.00000000  0.00000000  0.50000000  1
  Sn  Sn6  1  0.20360848  0.79639152  0.25000000  1
  Sn  Sn7  1  0.79639152  0.20360848  0.75000000  1
  Sn  Sn8  1  0.87127532  0.12872468  0.14985833  1
  Sn  Sn9  1  0.12872468  0.87127532  0.85014167  1
  Sn  Sn10  1  0.67191435  0.32808565  0.50028477  1
  Sn  Sn11  1  0.32808565  0.67191435  0.00028477  1
  Sn  Sn12  1  0.87127532  0.12872468  0.35014167  1
  Sn  Sn13  1  0.67191435  0.32808565  -0.00028477  1
  Sn  Sn14  1  0.12872468  0.87127532  0.64985833  1
  Sn  Sn15  1  0.32808565  0.67191435  0.49971523  1
  Cl  Cl16  1  0.82004001  0.17995999  0.88633343  1
  Cl  Cl17  1  0.57624447  0.42375453  0.75000000  1
  Cl  Cl18  1  0.42375453  0.57624447  0.25000000  1
  Cl  Cl19  1  0.17995999  0.82004001  0.11366657  1
  Cl  Cl20  1  0.17995999  0.82004001  0.38633343  1
  Cl  Cl21  1  0.82004001  0.17995999  0.61366657  1
  F  F22  1  0.85959975  0.14040025  0.03780101  1
  F  F23  1  0.97418201  0.02581799  0.12832834  1
  F  F24  1  0.62411880  0.37588120  0.60122028  1
  F  F25  1  0.90409312  0.09590688  0.75000000  1
  F  F26  1  0.14040025  0.85959975  0.96219899  1
  F  F27  1  0.97418201  0.02581799  0.37167166  1
  F  F28  1  0.02581799  0.97418201  0.87167166  1
  F  F29  1  0.02581799  0.97418201  0.62832834  1
  F  F30  1  0.32863419  0.67136581  0.75000000  1
  F  F31  1  0.42745655  0.57254345  0.53300236  1
  F  F32  1  0.37588120  0.62411880  0.10122028  1
  F  F33  1  0.67136581  0.32863419  0.25000000  1
  F  F34  1  0.57254345  0.42745655  0.46699764  1
  F  F35  1  0.37588120  0.62411880  0.39877972  1
  F  F36  1  0.14040025  0.85959975  0.53780101  1
  F  F37  1  0.57254345  0.42745655  0.03300236  1
  F  F38  1  0.62411880  0.37588120  0.89877972  1
  F  F39  1  0.85959975  0.14040025  0.46219899  1
  F  F40  1  0.09590688  0.90409312  0.25000000  1
  F  F41  1  0.42745655  0.57254345  0.96699764  1
