# generated using pymatgen
data_ZnS
_symmetry_space_group_name_H-M   'P 1'
_cell_length_a   3.80709203
_cell_length_b   3.80709227
_cell_length_c   62.29608516
_cell_angle_alpha   90.00000000
_cell_angle_beta   90.00000000
_cell_angle_gamma   119.99999785
_symmetry_Int_Tables_number   1
_chemical_formula_structural   ZnS
_chemical_formula_sum   'Zn20 S20'
_cell_volume   781.94854193
_cell_formula_units_Z   20
loop_
 _symmetry_equiv_pos_site_id
 _symmetry_equiv_pos_as_xyz
  1  'x, y, z'
loop_
 _atom_site_type_symbol
 _atom_site_label
 _atom_site_symmetry_multiplicity
 _atom_site_fract_x
 _atom_site_fract_y
 _atom_site_fract_z
 _atom_site_occupancy
  Zn  Zn0  1  0.66666700  0.33333300  0.45001830  1
  Zn  Zn1  1  0.33333300  0.66666700  0.70001455  1
  Zn  Zn2  1  0.33333300  0.66666700  0.19999428  1
  Zn  Zn3  1  -0.00000000  0.00000000  0.15001014  1
  Zn  Zn4  1  0.66666700  0.33333300  0.90001896  1
  Zn  Zn5  1  0.33333300  0.66666700  0.95003312  1
  Zn  Zn6  1  -0.00000000  -0.00000000  0.54999125  1
  Zn  Zn7  1  -0.00000000  0.00000000  0.80001165  1
  Zn  Zn8  1  0.66666700  0.33333300  0.75002089  1
  Zn  Zn9  1  0.66666700  0.33333300  0.10002452  1
  Zn  Zn10  1  0.00000000  -0.00000000  0.65003940  1
  Zn  Zn11  1  0.33333300  0.66666700  0.40002395  1
  Zn  Zn12  1  0.66666700  0.33333300  0.60000913  1
  Zn  Zn13  1  -0.00000000  -0.00000000  0.00001099  1
  Zn  Zn14  1  0.33333300  0.66666700  0.05004398  1
  Zn  Zn15  1  0.33333300  0.66666700  0.30003057  1
  Zn  Zn16  1  -0.00000000  0.00000000  0.35000624  1
  Zn  Zn17  1  0.66666700  0.33333300  0.25001494  1
  Zn  Zn18  1  0.33333300  0.66666700  0.84999740  1
  Zn  Zn19  1  0.33333300  0.66666700  0.50004608  1
  S  S20  1  0.33333300  0.66666700  0.33744808  1
  S  S21  1  0.33333300  0.66666700  0.88744008  1
  S  S22  1  0.00000000  0.00000000  0.58743297  1
  S  S23  1  0.66666700  0.33333300  0.13748429  1
  S  S24  1  0.33333300  0.66666700  0.73748351  1
  S  S25  1  0.33333300  0.66666700  0.08749108  1
  S  S26  1  0.00000000  -0.00000000  0.03751761  1
  S  S27  1  0.66666700  0.33333300  0.28752163  1
  S  S28  1  0.66666700  0.33333300  0.78748396  1
  S  S29  1  0.33333300  0.66666700  0.98744671  1
  S  S30  1  0.66666700  0.33333300  0.63752321  1
  S  S31  1  0.33333300  0.66666700  0.23743912  1
  S  S32  1  0.66666700  0.33333300  0.93752062  1
  S  S33  1  0.00000000  -0.00000000  0.38751384  1
  S  S34  1  0.66666700  0.33333300  0.48752509  1
  S  S35  1  0.33333300  0.66666700  0.43744688  1
  S  S36  1  -0.00000000  0.00000000  0.18747384  1
  S  S37  1  0.00000000  0.00000000  0.83747491  1
  S  S38  1  0.33333300  0.66666700  0.53748507  1
  S  S39  1  0.00000000  -0.00000000  0.68748615  1
