# generated using pymatgen
data_Cs6Na2Nb6H36O37
_symmetry_space_group_name_H-M   'P 1'
_cell_length_a   10.61342355
_cell_length_b   10.61342320
_cell_length_c   10.61342333
_cell_angle_alpha   73.96925462
_cell_angle_beta   73.96925516
_cell_angle_gamma   73.96925108
_symmetry_Int_Tables_number   1
_chemical_formula_structural   Cs6Na2Nb6H36O37
_chemical_formula_sum   'Cs6 Na2 Nb6 H36 O37'
_cell_volume   1078.20629251
_cell_formula_units_Z   1
loop_
 _symmetry_equiv_pos_site_id
 _symmetry_equiv_pos_as_xyz
  1  'x, y, z'
loop_
 _atom_site_type_symbol
 _atom_site_label
 _atom_site_symmetry_multiplicity
 _atom_site_fract_x
 _atom_site_fract_y
 _atom_site_fract_z
 _atom_site_occupancy
  Cs  Cs0  1  0.52843120  0.94566605  0.27244182  1
  Cs  Cs1  1  0.94566605  0.27244182  0.52843120  1
  Cs  Cs2  1  0.27244182  0.52843120  0.94566605  1
  Cs  Cs3  1  0.47156880  0.05433395  0.72755818  1
  Cs  Cs4  1  0.72755818  0.47156880  0.05433395  1
  Cs  Cs5  1  0.05433395  0.72755818  0.47156880  1
  Na  Na6  1  0.28276902  0.28276902  0.28276902  1
  Na  Na7  1  0.71723098  0.71723098  0.71723098  1
  Nb  Nb8  1  0.78502961  0.09303696  0.93919816  1
  Nb  Nb9  1  0.21497039  0.90696304  0.06080184  1
  Nb  Nb10  1  0.09303696  0.93919816  0.78502961  1
  Nb  Nb11  1  0.93919816  0.78502961  0.09303696  1
  Nb  Nb12  1  0.06080184  0.21497039  0.90696304  1
  Nb  Nb13  1  0.90696304  0.06080184  0.21497039  1
  H  H14  1  0.39478378  0.78582166  0.78783563  1
  H  H15  1  0.37593165  0.42138892  0.66793096  1
  H  H16  1  0.71227468  0.21626329  0.43697992  1
  H  H17  1  0.21417834  0.21216437  0.60521622  1
  H  H18  1  0.72586138  0.65772110  0.45494634  1
  H  H19  1  0.68487758  0.82588527  0.96482349  1
  H  H20  1  0.42138892  0.66793096  0.37593165  1
  H  H21  1  0.60521622  0.21417834  0.21216437  1
  H  H22  1  0.66793096  0.37593165  0.42138892  1
  H  H23  1  0.34227890  0.54505366  0.27413862  1
  H  H24  1  0.45494634  0.72586138  0.65772110  1
  H  H25  1  0.57861108  0.33206904  0.62406835  1
  H  H26  1  0.62406835  0.57861108  0.33206904  1
  H  H27  1  0.78783563  0.39478378  0.78582166  1
  H  H28  1  0.43697992  0.71227468  0.21626329  1
  H  H29  1  0.54505366  0.27413862  0.34227890  1
  H  H30  1  0.00779555  0.46185619  0.19816521  1
  H  H31  1  0.33206904  0.62406835  0.57861108  1
  H  H32  1  0.21626329  0.43697992  0.71227468  1
  H  H33  1  0.82588527  0.96482349  0.68487758  1
  H  H34  1  0.99220445  0.53814381  0.80183479  1
  H  H35  1  0.31512242  0.17411473  0.03517651  1
  H  H36  1  0.46185619  0.19816521  0.00779555  1
  H  H37  1  0.03517651  0.31512242  0.17411473  1
  H  H38  1  0.56302008  0.28772532  0.78373671  1
  H  H39  1  0.78373671  0.56302008  0.28772532  1
  H  H40  1  0.53814381  0.80183479  0.99220445  1
  H  H41  1  0.96482349  0.68487758  0.82588527  1
  H  H42  1  0.17411473  0.03517651  0.31512242  1
  H  H43  1  0.19816521  0.00779555  0.46185619  1
  H  H44  1  0.27413862  0.34227890  0.54505366  1
  H  H45  1  0.78582166  0.78783563  0.39478378  1
  H  H46  1  0.21216437  0.60521622  0.21417834  1
  H  H47  1  0.65772110  0.45494634  0.72586138  1
  H  H48  1  0.80183479  0.99220445  0.53814381  1
  H  H49  1  0.28772532  0.78373671  0.56302008  1
  O  O50  1  0.12744964  0.12598980  0.74738420  1
  O  O51  1  0.16590694  0.89596906  0.62005124  1
  O  O52  1  0.62932969  0.78281164  0.93430327  1
  O  O53  1  0.63587941  0.29120933  0.46704679  1
  O  O54  1  0.10403094  0.37994876  0.83409306  1
  O  O55  1  0.70879067  0.53295321  0.36412059  1
  O  O56  1  0.25261580  0.87255036  0.87401020  1
  O  O57  1  0.12598980  0.74738420  0.12744964  1
  O  O58  1  0.53295321  0.36412059  0.70879067  1
  O  O59  1  0.52004405  0.26091662  0.26472813  1
  O  O60  1  0.93430327  0.62932969  0.78281164  1
  O  O61  1  0.74738420  0.12744964  0.12598980  1
  O  O62  1  0.47995595  0.73908338  0.73527187  1
  O  O63  1  0.73908338  0.73527187  0.47995595  1
  O  O64  1  0.46704679  0.63587941  0.29120933  1
  O  O65  1  0.21718836  0.06569673  0.37067031  1
  O  O66  1  0.26472813  0.52004405  0.26091662  1
  O  O67  1  0.90073542  0.02737014  0.77398461  1
  O  O68  1  0.97262986  0.22601539  0.09926458  1
  O  O69  1  0.26091662  0.26472813  0.52004405  1
  O  O70  1  0.87255036  0.87401020  0.25261580  1
  O  O71  1  0.02737014  0.77398461  0.90073542  1
  O  O72  1  0.77398461  0.90073542  0.02737014  1
  O  O73  1  0.83409306  0.10403094  0.37994876  1
  O  O74  1  0.36412059  0.70879067  0.53295321  1
  O  O75  1  0.73527187  0.47995595  0.73908338  1
  O  O76  1  0.78281164  0.93430327  0.62932969  1
  O  O77  1  0.89596906  0.62005124  0.16590694  1
  O  O78  1  0.87401020  0.25261580  0.87255036  1
  O  O79  1  0.29120933  0.46704679  0.63587941  1
  O  O80  1  0.37994876  0.83409306  0.10403094  1
  O  O81  1  0.00000000  0.00000000  0.00000000  1
  O  O82  1  0.37067031  0.21718836  0.06569673  1
  O  O83  1  0.62005124  0.16590694  0.89596906  1
  O  O84  1  0.09926458  0.97262986  0.22601539  1
  O  O85  1  0.06569673  0.37067031  0.21718836  1
  O  O86  1  0.22601539  0.09926458  0.97262986  1
