# generated using pymatgen
data_CdI2
_symmetry_space_group_name_H-M   'P 1'
_cell_length_a   4.28316740
_cell_length_b   4.28316855
_cell_length_c   57.35720557
_cell_angle_alpha   90.00000000
_cell_angle_beta   90.00000000
_cell_angle_gamma   119.99999913
_symmetry_Int_Tables_number   1
_chemical_formula_structural   CdI2
_chemical_formula_sum   'Cd8 I16'
_cell_volume   911.27369329
_cell_formula_units_Z   8
loop_
 _symmetry_equiv_pos_site_id
 _symmetry_equiv_pos_as_xyz
  1  'x, y, z'
loop_
 _atom_site_type_symbol
 _atom_site_label
 _atom_site_symmetry_multiplicity
 _atom_site_fract_x
 _atom_site_fract_y
 _atom_site_fract_z
 _atom_site_occupancy
  Cd  Cd0  1  0.33333300  0.66666700  0.65628606  1
  Cd  Cd1  1  0.00000000  -0.00000000  0.78124266  1
  Cd  Cd2  1  0.33333300  0.66666700  0.90624390  1
  Cd  Cd3  1  0.66666700  0.33333300  0.03123929  1
  Cd  Cd4  1  0.33333300  0.66666700  0.40626639  1
  Cd  Cd5  1  0.33333300  0.66666700  0.53125766  1
  Cd  Cd6  1  0.66666700  0.33333300  0.28124033  1
  Cd  Cd7  1  0.33333300  0.66666700  0.15621240  1
  I  I8  1  0.33333300  0.66666700  0.75120417  1
  I  I9  1  -0.00000000  -0.00000000  0.62620134  1
  I  I10  1  0.66666700  0.33333300  0.18629675  1
  I  I11  1  0.00000000  -0.00000000  0.25119881  1
  I  I12  1  0.66666700  0.33333300  0.43630271  1
  I  I13  1  0.33333300  0.66666700  0.31130250  1
  I  I14  1  0.33333300  0.66666700  0.06129646  1
  I  I15  1  0.00000000  -0.00000000  0.12619424  1
  I  I16  1  0.66666700  0.33333300  0.68630759  1
  I  I17  1  0.66666700  0.33333300  0.81130667  1
  I  I18  1  0.00000000  -0.00000000  0.87619176  1
  I  I19  1  0.66666700  0.33333300  0.56130390  1
  I  I20  1  0.00000000  -0.00000000  0.37619496  1
  I  I21  1  0.66666700  0.33333300  0.93630880  1
  I  I22  1  0.00000000  -0.00000000  0.00120542  1
  I  I23  1  0.00000000  -0.00000000  0.50119422  1
