# generated using pymatgen
data_Ag2CO3
_symmetry_space_group_name_H-M   'P 1'
_cell_length_a   9.28175082
_cell_length_b   9.28175061
_cell_length_c   6.07890833
_cell_angle_alpha   90.00000000
_cell_angle_beta   90.00000000
_cell_angle_gamma   120.00000417
_symmetry_Int_Tables_number   1
_chemical_formula_structural   Ag2CO3
_chemical_formula_sum   'Ag12 C6 O18'
_cell_volume   453.54043074
_cell_formula_units_Z   6
loop_
 _symmetry_equiv_pos_site_id
 _symmetry_equiv_pos_as_xyz
  1  'x, y, z'
loop_
 _atom_site_type_symbol
 _atom_site_label
 _atom_site_symmetry_multiplicity
 _atom_site_fract_x
 _atom_site_fract_y
 _atom_site_fract_z
 _atom_site_occupancy
  Ag  Ag0  1  0.01791269  0.66867446  0.49504075  1
  Ag  Ag1  1  0.98208731  0.65076177  0.99504075  1
  Ag  Ag2  1  0.33132554  0.34923823  0.49504075  1
  Ag  Ag3  1  0.30314796  0.96914757  0.28192713  1
  Ag  Ag4  1  0.03085243  0.33400039  0.28192713  1
  Ag  Ag5  1  0.66599961  0.69685204  0.28192713  1
  Ag  Ag6  1  0.69685204  0.66599961  0.78192713  1
  Ag  Ag7  1  0.65076177  0.98208731  0.49504075  1
  Ag  Ag8  1  0.96914757  0.30314796  0.78192713  1
  Ag  Ag9  1  0.33400039  0.03085243  0.78192713  1
  Ag  Ag10  1  0.34923823  0.33132554  0.99504075  1
  Ag  Ag11  1  0.66867446  0.01791269  0.99504075  1
  C  C12  1  -0.00000000  0.00000000  0.87782375  1
  C  C13  1  0.33333300  0.66666700  0.72701404  1
  C  C14  1  0.66666700  0.33333300  0.22701404  1
  C  C15  1  -0.00000000  0.00000000  0.37782375  1
  C  C16  1  0.66666700  0.33333300  0.71301367  1
  C  C17  1  0.33333300  0.66666700  0.21301367  1
  O  O18  1  0.92185580  0.84012158  0.37732797  1
  O  O19  1  0.41875150  0.82654913  0.21346095  1
  O  O20  1  0.40779863  0.58124850  0.21346095  1
  O  O21  1  0.73065013  0.23762721  0.22865872  1
  O  O22  1  0.58124850  0.40779863  0.71346095  1
  O  O23  1  0.84012158  0.92185580  0.87732797  1
  O  O24  1  0.76237279  0.49302392  0.22865872  1
  O  O25  1  0.91826578  0.07814420  0.37732797  1
  O  O26  1  0.08173422  0.15987842  0.87732797  1
  O  O27  1  0.59220137  0.17345087  0.71346095  1
  O  O28  1  0.17345087  0.59220137  0.21346095  1
  O  O29  1  0.82654913  0.41875150  0.71346095  1
  O  O30  1  0.07814420  0.91826578  0.87732797  1
  O  O31  1  0.50697608  0.26934987  0.22865872  1
  O  O32  1  0.26934987  0.50697608  0.72865872  1
  O  O33  1  0.15987842  0.08173422  0.37732797  1
  O  O34  1  0.23762721  0.73065013  0.72865872  1
  O  O35  1  0.49302392  0.76237279  0.72865872  1
