# generated using pymatgen
data_Tl4Pd3Cl10
_symmetry_space_group_name_H-M   'P 1'
_cell_length_a   13.66442109
_cell_length_b   13.66442109
_cell_length_c   13.66442109
_cell_angle_alpha   105.95546999
_cell_angle_beta   105.95546999
_cell_angle_gamma   116.75777611
_symmetry_Int_Tables_number   1
_chemical_formula_structural   Tl4Pd3Cl10
_chemical_formula_sum   'Tl16 Pd12 Cl40'
_cell_volume   1939.93468238
_cell_formula_units_Z   4
loop_
 _symmetry_equiv_pos_site_id
 _symmetry_equiv_pos_as_xyz
  1  'x, y, z'
loop_
 _atom_site_type_symbol
 _atom_site_label
 _atom_site_symmetry_multiplicity
 _atom_site_fract_x
 _atom_site_fract_y
 _atom_site_fract_z
 _atom_site_occupancy
  Tl  Tl0  1  0.62500000  0.13274900  0.00774900  1
  Tl  Tl1  1  0.86725100  0.87500000  0.49225100  1
  Tl  Tl2  1  0.35803400  0.35803400  0.00000000  1
  Tl  Tl3  1  0.89196600  0.39196600  0.50000000  1
  Tl  Tl4  1  0.34547800  0.64878000  0.79186800  1
  Tl  Tl5  1  0.80361000  0.60691200  0.70813200  1
  Tl  Tl6  1  0.35122000  0.14308800  0.69669900  1
  Tl  Tl7  1  0.12500000  0.61725100  0.99225100  1
  Tl  Tl8  1  0.60803400  0.10803400  0.50000000  1
  Tl  Tl9  1  0.90452200  0.19639000  0.80330100  1
  Tl  Tl10  1  0.85691200  0.55361000  0.20813200  1
  Tl  Tl11  1  0.89878000  0.09547800  0.29186800  1
  Tl  Tl12  1  0.44639000  0.65452200  0.30330100  1
  Tl  Tl13  1  0.38274900  0.37500000  0.50774900  1
  Tl  Tl14  1  0.39308800  0.10122000  0.19669900  1
  Tl  Tl15  1  0.64196600  0.64196600  0.00000000  1
  Pd  Pd16  1  0.52368900  0.87500000  0.14868900  1
  Pd  Pd17  1  0.62500000  0.47631100  0.35131100  1
  Pd  Pd18  1  0.12445700  0.74463400  0.59248600  1
  Pd  Pd19  1  0.78197100  0.90214800  0.90751400  1
  Pd  Pd20  1  0.12500000  0.27368900  0.64868900  1
  Pd  Pd21  1  0.25536600  0.84785200  0.37982300  1
  Pd  Pd22  1  0.12554300  0.21802900  0.12017700  1
  Pd  Pd23  1  0.09785200  0.00536600  0.87982300  1
  Pd  Pd24  1  0.72631100  0.37500000  0.85131100  1
  Pd  Pd25  1  0.15214800  0.53197100  0.40751400  1
  Pd  Pd26  1  0.99463400  0.87445700  0.09248600  1
  Pd  Pd27  1  0.46802900  0.87554300  0.62017700  1
  Cl  Cl28  1  0.12500000  0.13220000  0.50720000  1
  Cl  Cl29  1  0.15082700  0.36206000  0.05216000  1
  Cl  Cl30  1  0.61206000  0.90082700  0.55216000  1
  Cl  Cl31  1  0.58424700  0.37500000  0.70924700  1
  Cl  Cl32  1  0.13708000  0.84446200  0.47746700  1
  Cl  Cl33  1  0.90961300  0.11699500  0.02253300  1
  Cl  Cl34  1  0.64372400  0.59472700  0.25368100  1
  Cl  Cl35  1  0.12500000  0.41575300  0.79075300  1
  Cl  Cl36  1  0.91117400  0.64113400  0.49553400  1
  Cl  Cl37  1  0.60995700  0.35627600  0.95100300  1
  Cl  Cl38  1  0.15553800  0.63300500  0.29261800  1
  Cl  Cl39  1  0.64004300  0.09104600  0.24631900  1
  Cl  Cl40  1  0.86780000  0.37500000  0.99280000  1
  Cl  Cl41  1  0.09917300  0.65133300  0.71123400  1
  Cl  Cl42  1  0.10439900  0.10886600  0.77004000  1
  Cl  Cl43  1  0.33882600  0.33435900  0.22996000  1
  Cl  Cl44  1  0.09446200  0.88708000  0.97746700  1
  Cl  Cl45  1  0.34866700  0.05990000  0.44784000  1
  Cl  Cl46  1  0.62500000  0.61780000  0.49280000  1
  Cl  Cl47  1  0.34104600  0.39004300  0.74631900  1
  Cl  Cl48  1  0.63794000  0.69010000  0.78876600  1
  Cl  Cl49  1  0.60627600  0.35995700  0.45100300  1
  Cl  Cl50  1  0.11292000  0.09038700  0.20738200  1
  Cl  Cl51  1  0.14560100  0.41564100  0.50446600  1
  Cl  Cl52  1  0.40527300  0.65895400  0.04899700  1
  Cl  Cl53  1  0.58435900  0.08882600  0.72996000  1
  Cl  Cl54  1  0.84472700  0.39372400  0.75368100  1
  Cl  Cl55  1  0.66575300  0.87500000  0.29075300  1
  Cl  Cl56  1  0.90895400  0.15527300  0.54899700  1
  Cl  Cl57  1  0.89113400  0.66117400  0.99553300  1
  Cl  Cl58  1  0.90133300  0.84917300  0.21123400  1
  Cl  Cl59  1  0.35886600  0.85439900  0.27004000  1
  Cl  Cl60  1  0.34038700  0.86292000  0.70738200  1
  Cl  Cl61  1  0.36699500  0.65961300  0.52253300  1
  Cl  Cl62  1  0.62500000  0.33424700  0.20924700  1
  Cl  Cl63  1  0.94010000  0.38794000  0.28876600  1
  Cl  Cl64  1  0.38220000  0.87500000  0.00720000  1
  Cl  Cl65  1  0.66564100  0.89560100  0.00446600  1
  Cl  Cl66  1  0.30990000  0.09866700  0.94784000  1
  Cl  Cl67  1  0.88300500  0.90553800  0.79261800  1
