# generated using pymatgen
data_Tm2Te5O13
_symmetry_space_group_name_H-M   'P 1'
_cell_length_a   6.86643481
_cell_length_b   8.61075156
_cell_length_c   10.51448879
_cell_angle_alpha   88.54407657
_cell_angle_beta   86.72438506
_cell_angle_gamma   74.71506013
_symmetry_Int_Tables_number   1
_chemical_formula_structural   Tm2Te5O13
_chemical_formula_sum   'Tm4 Te10 O26'
_cell_volume   598.66606852
_cell_formula_units_Z   2
loop_
 _symmetry_equiv_pos_site_id
 _symmetry_equiv_pos_as_xyz
  1  'x, y, z'
loop_
 _atom_site_type_symbol
 _atom_site_label
 _atom_site_symmetry_multiplicity
 _atom_site_fract_x
 _atom_site_fract_y
 _atom_site_fract_z
 _atom_site_occupancy
  Tm  Tm0  1  0.44826844  0.46989639  0.81999301  1
  Tm  Tm1  1  0.55173156  0.53010361  0.18000699  1
  Tm  Tm2  1  -0.00020427  0.25981672  0.76114320  1
  Tm  Tm3  1  0.00020427  0.74018328  0.23885680  1
  Te  Te4  1  0.27222171  0.39638475  0.48405127  1
  Te  Te5  1  0.43812904  0.90333076  0.30159918  1
  Te  Te6  1  0.29148134  0.87847627  0.97298948  1
  Te  Te7  1  0.72777829  0.60361525  0.51594873  1
  Te  Te8  1  0.84364455  0.19656308  0.36052550  1
  Te  Te9  1  0.70851866  0.12152373  0.02701052  1
  Te  Te10  1  0.15635545  0.80343692  0.63947450  1
  Te  Te11  1  0.12667541  0.35088186  0.10499270  1
  Te  Te12  1  0.56187096  0.09666924  0.69840082  1
  Te  Te13  1  0.87332459  0.64911814  0.89500730  1
  O  O14  1  0.31424061  0.73546894  0.28823812  1
  O  O15  1  0.65354803  0.01777472  0.87646843  1
  O  O16  1  0.33600882  0.51286585  0.61745602  1
  O  O17  1  0.05938596  0.81960936  0.03809743  1
  O  O18  1  0.32616381  0.22636607  0.77768020  1
  O  O19  1  0.45868545  0.19413567  0.51995900  1
  O  O20  1  0.93609669  0.98452240  0.30496856  1
  O  O21  1  0.46821178  0.67141719  -0.00012658  1
  O  O22  1  0.06390331  0.01547760  0.69503144  1
  O  O23  1  0.12712214  0.49257564  0.89808825  1
  O  O24  1  0.67383619  0.77363393  0.22231980  1
  O  O25  1  0.95746587  0.64833817  0.43380820  1
  O  O26  1  0.94061404  0.18039064  0.96190257  1
  O  O27  1  0.93626314  0.73061914  0.72178047  1
  O  O28  1  0.53178822  0.32858281  0.00012658  1
  O  O29  1  0.87287786  0.50742436  0.10191175  1
  O  O30  1  0.04253413  0.35166183  0.56619180  1
  O  O31  1  0.66399118  0.48713415  0.38254398  1
  O  O32  1  0.34645197  0.98222528  0.12353157  1
  O  O33  1  0.66753904  0.26347599  0.22777188  1
  O  O34  1  0.06373686  0.26938086  0.27821953  1
  O  O35  1  0.76669507  0.49976153  0.81567497  1
  O  O36  1  0.23330493  0.50023847  0.18432503  1
  O  O37  1  0.54131455  0.80586433  0.48004100  1
  O  O38  1  0.68575939  0.26453106  0.71176188  1
  O  O39  1  0.33246096  0.73652401  0.77222812  1
