# generated using pymatgen
data_Si2Mo4P6O25
_symmetry_space_group_name_H-M   'P 1'
_cell_length_a   14.55302722
_cell_length_b   14.55302722
_cell_length_c   7.86295957
_cell_angle_alpha   90.00000000
_cell_angle_beta   90.00000000
_cell_angle_gamma   120.00000171
_symmetry_Int_Tables_number   1
_chemical_formula_structural   Si2Mo4P6O25
_chemical_formula_sum   'Si6 Mo12 P18 O75'
_cell_volume   1442.19288919
_cell_formula_units_Z   3
loop_
 _symmetry_equiv_pos_site_id
 _symmetry_equiv_pos_as_xyz
  1  'x, y, z'
loop_
 _atom_site_type_symbol
 _atom_site_label
 _atom_site_symmetry_multiplicity
 _atom_site_fract_x
 _atom_site_fract_y
 _atom_site_fract_z
 _atom_site_occupancy
  Si  Si0  1  -0.00000000  -0.00000000  0.29864932  1
  Si  Si1  1  0.33333300  0.66666700  0.20010758  1
  Si  Si2  1  0.33333300  0.66666700  0.79771058  1
  Si  Si3  1  0.66666700  0.33333300  0.20228942  1
  Si  Si4  1  0.66666700  0.33333300  0.79989242  1
  Si  Si5  1  -0.00000000  -0.00000000  0.70135068  1
  Mo  Mo6  1  0.00080616  0.66135536  0.05134646  1
  Mo  Mo7  1  0.67312654  0.00239186  0.44251299  1
  Mo  Mo8  1  0.66135536  0.66054920  0.94865354  1
  Mo  Mo9  1  0.00239186  0.32926533  0.55748701  1
  Mo  Mo10  1  0.66054920  0.99919384  0.05134646  1
  Mo  Mo11  1  0.67073467  0.67312654  0.55748701  1
  Mo  Mo12  1  0.99919384  0.33864464  0.94865354  1
  Mo  Mo13  1  0.32926533  0.32687346  0.44251299  1
  Mo  Mo14  1  0.32687346  0.99760814  0.55748701  1
  Mo  Mo15  1  0.33945080  0.00080616  0.94865354  1
  Mo  Mo16  1  0.33864464  0.33945080  0.05134646  1
  Mo  Mo17  1  0.99760814  0.67073467  0.44251299  1
  P  P18  1  0.42704730  0.89873064  0.25474024  1
  P  P19  1  0.10126936  0.52831666  0.25474024  1
  P  P20  1  0.76719713  0.86111006  0.24923483  1
  P  P21  1  0.47168334  0.57295270  0.25474024  1
  P  P22  1  0.86111006  0.09391293  0.75076517  1
  P  P23  1  0.23280287  0.13888994  0.75076517  1
  P  P24  1  0.75968477  0.56585212  0.25210082  1
  P  P25  1  0.90608707  0.76719713  0.75076517  1
  P  P26  1  0.24031523  0.43414788  0.74789918  1
  P  P27  1  0.57295270  0.10126936  0.74525976  1
  P  P28  1  0.13888994  0.90608707  0.24923483  1
  P  P29  1  0.80616735  0.24031523  0.25210082  1
  P  P30  1  0.56585212  0.80616735  0.74789918  1
  P  P31  1  0.09391293  0.23280287  0.24923483  1
  P  P32  1  0.89873064  0.47168334  0.74525976  1
  P  P33  1  0.52831666  0.42704730  0.74525976  1
  P  P34  1  0.43414788  0.19383265  0.25210082  1
  P  P35  1  0.19383265  0.75968477  0.74789918  1
  O  O36  1  0.47642975  0.38305302  0.91505422  1
  O  O37  1  0.28086513  0.41039418  0.58874152  1
  O  O38  1  0.41114053  0.78421844  0.27238574  1
  O  O39  1  0.91473909  0.53970008  0.59286928  1
  O  O40  1  0.78421844  0.37307791  0.72761426  1
  O  O41  1  0.08526091  0.46029992  0.40713072  1
  O  O42  1  0.62692209  0.41114053  0.72761426  1
  O  O43  1  0.61694698  0.09337673  0.91505422  1
  O  O44  1  0.91281685  0.21635054  0.75690785  1
  O  O45  1  0.95788289  0.07566618  0.77493747  1
  O  O46  1  0.71913487  0.58960582  0.41125848  1
  O  O47  1  0.23869065  0.18727342  0.57856222  1
  O  O48  1  0.75433776  0.11795234  0.24107662  1
  O  O49  1  0.29392207  0.43182303  0.91069106  1
  O  O50  1  0.45114137  0.70884031  0.72462484  1
  O  O51  1  0.88221671  0.95788289  0.22506253  1
  O  O52  1  0.36361458  0.24566224  0.24107662  1
  O  O53  1  0.74230106  0.45114137  0.27537516  1
  O  O54  1  0.08718315  0.78364946  0.24309215  1
  O  O55  1  0.92433382  0.88221671  0.77493747  1
  O  O56  1  0.66666700  0.33333300  0.00109960  1
  O  O57  1  0.13790096  0.70607793  0.91069106  1
  O  O58  1  0.33333300  0.66666700  0.99890040  1
  O  O59  1  0.56817697  0.86209904  0.91069106  1
  O  O60  1  0.24566224  0.88204766  0.75892338  1
  O  O61  1  0.18727342  0.94858278  0.42143778  1
  O  O62  1  0.94858278  0.76130935  0.57856222  1
  O  O63  1  0.90662327  0.52357025  0.91505422  1
  O  O64  1  0.62496100  0.08526091  0.59286928  1
  O  O65  1  0.78908851  0.04183619  0.89917459  1
  O  O66  1  0.57832809  0.54935422  0.74304898  1
  O  O67  1  0.43182303  0.13790096  0.08930894  1
  O  O68  1  -0.00000000  -0.00000000  0.50000000  1
  O  O69  1  0.11795234  0.36361458  0.75892338  1
  O  O70  1  0.21635054  0.30353370  0.24309215  1
  O  O71  1  0.11778329  0.04211711  0.77493747  1
  O  O72  1  0.58960582  0.87047094  0.58874152  1
  O  O73  1  0.25274767  0.21091149  0.89917459  1
  O  O74  1  0.38305302  0.90662327  0.08494578  1
  O  O75  1  0.04211711  0.92433382  0.22506253  1
  O  O76  1  0.12952906  0.71913487  0.58874152  1
  O  O77  1  0.69646630  0.91281685  0.24309215  1
  O  O78  1  0.88204766  0.63638542  0.24107662  1
  O  O79  1  0.21578156  0.62692209  0.27238574  1
  O  O80  1  0.42167191  0.45064578  0.25695102  1
  O  O81  1  0.04183619  0.25274767  0.10082541  1
  O  O82  1  0.63638542  0.75433776  0.75892338  1
  O  O83  1  0.87047094  0.28086513  0.41125848  1
  O  O84  1  0.37503900  0.91473909  0.40713072  1
  O  O85  1  0.21091149  0.95816381  0.10082541  1
  O  O86  1  0.58885947  0.21578156  0.72761426  1
  O  O87  1  0.02897386  0.57832809  0.25695102  1
  O  O88  1  0.30353370  0.08718315  0.75690785  1
  O  O89  1  0.54885863  0.29115969  0.27537516  1
  O  O90  1  0.81272658  0.05141722  0.57856222  1
  O  O91  1  0.05141722  0.23869065  0.42143778  1
  O  O92  1  0.41039418  0.12952906  0.41125848  1
  O  O93  1  0.37307791  0.58885947  0.27238574  1
  O  O94  1  0.29115969  0.74230106  0.72462484  1
  O  O95  1  0.46029992  0.37503900  0.59286928  1
  O  O96  1  0.25769894  0.54885863  0.72462484  1
  O  O97  1  0.09337673  0.47642975  0.08494578  1
  O  O98  1  0.52357025  0.61694698  0.08494578  1
  O  O99  1  0.95816381  0.74725233  0.89917459  1
  O  O100  1  0.70884031  0.25769894  0.27537516  1
  O  O101  1  0.54935422  0.97102614  0.25695102  1
  O  O102  1  0.53970008  0.62496100  0.40713072  1
  O  O103  1  0.45064578  0.02897386  0.74304898  1
  O  O104  1  0.78364946  0.69646630  0.75690785  1
  O  O105  1  0.97102614  0.42167191  0.74304898  1
  O  O106  1  0.70607793  0.56817697  0.08930894  1
  O  O107  1  0.07566618  0.11778329  0.22506253  1
  O  O108  1  0.74725233  0.78908851  0.10082541  1
  O  O109  1  0.86209904  0.29392207  0.08930894  1
  O  O110  1  0.76130935  0.81272658  0.42143778  1
