# generated using pymatgen
data_Cs3Sb2Cl9
_symmetry_space_group_name_H-M   'P 1'
_cell_length_a   7.64389182
_cell_length_b   7.64389202
_cell_length_c   9.33261564
_cell_angle_alpha   90.00000000
_cell_angle_beta   90.00000000
_cell_angle_gamma   119.99999914
_symmetry_Int_Tables_number   1
_chemical_formula_structural   Cs3Sb2Cl9
_chemical_formula_sum   'Cs3 Sb2 Cl9'
_cell_volume   472.24034872
_cell_formula_units_Z   1
loop_
 _symmetry_equiv_pos_site_id
 _symmetry_equiv_pos_as_xyz
  1  'x, y, z'
loop_
 _atom_site_type_symbol
 _atom_site_label
 _atom_site_symmetry_multiplicity
 _atom_site_fract_x
 _atom_site_fract_y
 _atom_site_fract_z
 _atom_site_occupancy
  Cs  Cs0  1  0.33333300  0.66666700  0.33135892  1
  Cs  Cs1  1  0.66666700  0.33333300  0.66864108  1
  Cs  Cs2  1  -0.00000000  0.00000000  0.00000000  1
  Sb  Sb3  1  0.33333300  0.66666700  0.81422035  1
  Sb  Sb4  1  0.66666700  0.33333300  0.18577965  1
  Cl  Cl5  1  0.51239818  0.51239818  0.00000000  1
  Cl  Cl6  1  0.35130986  0.18170089  0.33470315  1
  Cl  Cl7  1  0.00000000  0.48760182  0.00000000  1
  Cl  Cl8  1  0.83039203  0.64869014  0.33470315  1
  Cl  Cl9  1  0.16960797  0.81829911  0.66529685  1
  Cl  Cl10  1  0.48760182  0.00000000  0.00000000  1
  Cl  Cl11  1  0.18170089  0.35130986  0.66529685  1
  Cl  Cl12  1  0.81829911  0.16960797  0.33470315  1
  Cl  Cl13  1  0.64869014  0.83039203  0.66529685  1
