# generated using pymatgen
data_Nd4(GeS4)3
_symmetry_space_group_name_H-M   'P 1'
_cell_length_a   11.52806243
_cell_length_b   11.52806243
_cell_length_c   11.52806335
_cell_angle_alpha   114.82449912
_cell_angle_beta   114.82449912
_cell_angle_gamma   114.82450707
_symmetry_Int_Tables_number   1
_chemical_formula_structural   Nd4(GeS4)3
_chemical_formula_sum   'Nd8 Ge6 S24'
_cell_volume   870.96693682
_cell_formula_units_Z   2
loop_
 _symmetry_equiv_pos_site_id
 _symmetry_equiv_pos_as_xyz
  1  'x, y, z'
loop_
 _atom_site_type_symbol
 _atom_site_label
 _atom_site_symmetry_multiplicity
 _atom_site_fract_x
 _atom_site_fract_y
 _atom_site_fract_z
 _atom_site_occupancy
  Nd  Nd0  1  0.93618336  0.47471268  0.71297181  1
  Nd  Nd1  1  0.21297181  0.97471268  0.43618336  1
  Nd  Nd2  1  0.99762628  0.99762628  0.99762628  1
  Nd  Nd3  1  0.43618336  0.21297181  0.97471268  1
  Nd  Nd4  1  0.47471268  0.71297181  0.93618336  1
  Nd  Nd5  1  0.71297181  0.93618336  0.47471268  1
  Nd  Nd6  1  0.97471268  0.43618336  0.21297181  1
  Nd  Nd7  1  0.49762628  0.49762628  0.49762628  1
  Ge  Ge8  1  0.64403694  0.47009729  0.85604284  1
  Ge  Ge9  1  0.85604284  0.64403694  0.47009729  1
  Ge  Ge10  1  0.14403694  0.35604284  0.97009729  1
  Ge  Ge11  1  0.47009729  0.85604284  0.64403694  1
  Ge  Ge12  1  0.35604284  0.97009729  0.14403694  1
  Ge  Ge13  1  0.97009729  0.14403694  0.35604284  1
  S  S14  1  0.29889492  0.61461663  0.58736782  1
  S  S15  1  0.62940078  0.08614289  0.35234104  1
  S  S16  1  0.68646262  0.87121533  0.68459490  1
  S  S17  1  0.81348264  0.88704059  0.28171964  1
  S  S18  1  0.85234104  0.58614289  0.12940078  1
  S  S19  1  0.08736782  0.11461663  0.79889492  1
  S  S20  1  0.58614289  0.12940078  0.85234104  1
  S  S21  1  0.08614289  0.35234104  0.62940078  1
  S  S22  1  0.88704059  0.28171964  0.81348264  1
  S  S23  1  0.79889492  0.08736782  0.11461663  1
  S  S24  1  0.12940078  0.85234104  0.58614289  1
  S  S25  1  0.35234104  0.62940078  0.08614289  1
  S  S26  1  0.87121533  0.68459490  0.68646262  1
  S  S27  1  0.58736782  0.29889492  0.61461663  1
  S  S28  1  0.18646262  0.18459490  0.37121533  1
  S  S29  1  0.11461663  0.79889492  0.08736782  1
  S  S30  1  0.68459490  0.68646262  0.87121533  1
  S  S31  1  0.61461663  0.58736782  0.29889492  1
  S  S32  1  0.38704059  0.31348264  0.78171964  1
  S  S33  1  0.78171964  0.38704059  0.31348264  1
  S  S34  1  0.31348264  0.78171964  0.38704059  1
  S  S35  1  0.28171964  0.81348264  0.88704059  1
  S  S36  1  0.37121533  0.18646262  0.18459490  1
  S  S37  1  0.18459490  0.37121533  0.18646262  1
