# generated using pymatgen
data_CsRb(MnCl3)2
_symmetry_space_group_name_H-M   'P 1'
_cell_length_a   14.46822960
_cell_length_b   14.46823639
_cell_length_c   12.00490066
_cell_angle_alpha   90.00000000
_cell_angle_beta   90.00000000
_cell_angle_gamma   120.00001506
_symmetry_Int_Tables_number   1
_chemical_formula_structural   CsRb(MnCl3)2
_chemical_formula_sum   'Cs8 Rb8 Mn16 Cl48'
_cell_volume   2176.30682620
_cell_formula_units_Z   8
loop_
 _symmetry_equiv_pos_site_id
 _symmetry_equiv_pos_as_xyz
  1  'x, y, z'
loop_
 _atom_site_type_symbol
 _atom_site_label
 _atom_site_symmetry_multiplicity
 _atom_site_fract_x
 _atom_site_fract_y
 _atom_site_fract_z
 _atom_site_occupancy
  Cs  Cs0  1  0.50000000  0.00000000  -0.00000000  1
  Cs  Cs1  1  0.66666692  0.33333296  0.75000000  1
  Cs  Cs2  1  0.00000000  0.50000000  -0.00000000  1
  Cs  Cs3  1  0.50000000  0.00000000  0.50000000  1
  Cs  Cs4  1  0.33333308  0.66666704  0.25000000  1
  Cs  Cs5  1  0.50000000  0.50000000  -0.00000000  1
  Cs  Cs6  1  0.00000000  0.50000000  0.50000000  1
  Cs  Cs7  1  0.50000000  0.50000000  0.50000000  1
  Rb  Rb8  1  0.00000000  0.00000000  -0.00000000  1
  Rb  Rb9  1  0.16613227  0.33226541  0.75000000  1
  Rb  Rb10  1  0.83386773  0.16613214  0.25000000  1
  Rb  Rb11  1  0.16613227  0.83386786  0.75000000  1
  Rb  Rb12  1  0.66773472  0.83386786  0.75000000  1
  Rb  Rb13  1  0.00000000  0.00000000  0.50000000  1
  Rb  Rb14  1  0.33226528  0.16613214  0.25000000  1
  Rb  Rb15  1  0.83386773  0.66773459  0.25000000  1
  Mn  Mn16  1  0.83424180  0.66848399  0.88238680  1
  Mn  Mn17  1  0.66848365  0.83424183  0.38238644  1
  Mn  Mn18  1  0.83424180  0.66848399  0.61761320  1
  Mn  Mn19  1  0.66848365  0.83424183  0.11761356  1
  Mn  Mn20  1  0.16575820  0.33151601  0.11761320  1
  Mn  Mn21  1  0.16575820  0.33151601  0.38238680  1
  Mn  Mn22  1  0.16575820  0.83424219  0.38238680  1
  Mn  Mn23  1  0.66666654  0.33333277  0.11753357  1
  Mn  Mn24  1  0.33151635  0.16575817  0.61761356  1
  Mn  Mn25  1  0.16575820  0.83424219  0.11761320  1
  Mn  Mn26  1  0.83424180  0.16575781  0.61761320  1
  Mn  Mn27  1  0.83424180  0.16575781  0.88238680  1
  Mn  Mn28  1  0.33151635  0.16575817  0.88238644  1
  Mn  Mn29  1  0.33333346  0.66666723  0.61753357  1
  Mn  Mn30  1  0.66666654  0.33333277  0.38246643  1
  Mn  Mn31  1  0.33333346  0.66666723  0.88246643  1
  Cl  Cl32  1  0.41239807  0.82479606  0.75000000  1
  Cl  Cl33  1  0.00000000  0.75297226  -0.00000000  1
  Cl  Cl34  1  0.67600357  0.08555140  0.75000000  1
  Cl  Cl35  1  -0.00000000  0.24702774  0.50000000  1
  Cl  Cl36  1  0.24702779  0.00000000  0.50000000  1
  Cl  Cl37  1  0.24913084  0.75086917  0.50157556  1
  Cl  Cl38  1  0.50173834  0.75086917  0.50157558  1
  Cl  Cl39  1  0.17292665  0.08646382  0.75000000  1
  Cl  Cl40  1  0.59045215  0.67600363  0.25000000  1
  Cl  Cl41  1  0.24913084  0.49826167  0.50157556  1
  Cl  Cl42  1  0.59045215  0.91444852  0.25000000  1
  Cl  Cl43  1  0.67600357  0.59045217  0.75000000  1
  Cl  Cl44  1  0.58760193  0.17520394  0.25000000  1
  Cl  Cl45  1  -0.00000000  0.24702774  -0.00000000  1
  Cl  Cl46  1  0.32399643  0.91444860  0.25000000  1
  Cl  Cl47  1  0.24702779  0.00000000  1.00000000  1
  Cl  Cl48  1  0.82479616  0.41239808  0.25000000  1
  Cl  Cl49  1  0.50173834  0.75086917  0.99842442  1
  Cl  Cl50  1  0.58760193  0.41239799  0.25000000  1
  Cl  Cl51  1  0.40954785  0.08555148  0.75000000  1
  Cl  Cl52  1  0.08555144  0.67600382  0.25000000  1
  Cl  Cl53  1  0.75086916  0.24913083  0.49842444  1
  Cl  Cl54  1  0.91353657  0.08646369  0.75000000  1
  Cl  Cl55  1  0.40954785  0.32399637  0.75000000  1
  Cl  Cl56  1  0.24702779  0.24702779  1.00000000  1
  Cl  Cl57  1  0.75297221  1.00000000  0.00000000  1
  Cl  Cl58  1  0.08646343  0.17292612  0.25000000  1
  Cl  Cl59  1  0.49826166  0.24913083  0.00157558  1
  Cl  Cl60  1  0.75297221  1.00000000  0.50000000  1
  Cl  Cl61  1  0.24702779  0.24702779  0.50000000  1
  Cl  Cl62  1  0.82707335  0.91353618  0.25000000  1
  Cl  Cl63  1  0.32399643  0.40954783  0.25000000  1
  Cl  Cl64  1  0.75297221  0.75297221  0.00000000  1
  Cl  Cl65  1  0.08646343  0.91353631  0.25000000  1
  Cl  Cl66  1  0.75086916  0.50173833  0.00157556  1
  Cl  Cl67  1  0.91444856  0.59045238  0.75000000  1
  Cl  Cl68  1  0.49826166  0.24913083  0.49842442  1
  Cl  Cl69  1  0.24913084  0.75086917  0.99842444  1
  Cl  Cl70  1  0.00000000  0.75297226  0.50000000  1
  Cl  Cl71  1  0.17520384  0.58760192  0.75000000  1
  Cl  Cl72  1  0.91353657  0.82707388  0.75000000  1
  Cl  Cl73  1  0.08555144  0.40954762  0.25000000  1
  Cl  Cl74  1  0.91444856  0.32399618  0.75000000  1
  Cl  Cl75  1  0.75086916  0.24913083  0.00157556  1
  Cl  Cl76  1  0.75086916  0.50173833  0.49842444  1
  Cl  Cl77  1  0.41239807  0.58760201  0.75000000  1
  Cl  Cl78  1  0.75297221  0.75297221  0.50000000  1
  Cl  Cl79  1  0.24913084  0.49826167  0.99842444  1
