# generated using pymatgen
data_Sn2WO5
_symmetry_space_group_name_H-M   'P 1'
_cell_length_a   13.83267167
_cell_length_b   8.01910178
_cell_length_c   10.68131962
_cell_angle_alpha   66.00282858
_cell_angle_beta   90.00000000
_cell_angle_gamma   90.00000000
_symmetry_Int_Tables_number   1
_chemical_formula_structural   Sn2WO5
_chemical_formula_sum   'Sn16 W8 O40'
_cell_volume   1082.42150801
_cell_formula_units_Z   8
loop_
 _symmetry_equiv_pos_site_id
 _symmetry_equiv_pos_as_xyz
  1  'x, y, z'
loop_
 _atom_site_type_symbol
 _atom_site_label
 _atom_site_symmetry_multiplicity
 _atom_site_fract_x
 _atom_site_fract_y
 _atom_site_fract_z
 _atom_site_occupancy
  Sn  Sn0  1  0.10267787  0.90831651  0.27247474  1
  Sn  Sn1  1  0.89732213  0.09168349  0.72752526  1
  Sn  Sn2  1  0.84708388  0.55434154  0.38710559  1
  Sn  Sn3  1  0.64979581  0.23483921  0.54131382  1
  Sn  Sn4  1  0.65291612  0.55434154  0.88710559  1
  Sn  Sn5  1  0.59922890  0.69164006  0.19951535  1
  Sn  Sn6  1  0.40077110  0.30835994  0.80048465  1
  Sn  Sn7  1  0.35020419  0.76516079  0.45868618  1
  Sn  Sn8  1  0.39732213  0.90831651  0.77247474  1
  Sn  Sn9  1  0.85020419  0.23483921  0.04131382  1
  Sn  Sn10  1  0.60267787  0.09168349  0.22752526  1
  Sn  Sn11  1  0.15291612  0.44565846  0.61289441  1
  Sn  Sn12  1  0.14979581  0.76516079  0.95868618  1
  Sn  Sn13  1  0.90077110  0.69164006  0.69951535  1
  Sn  Sn14  1  0.09922890  0.30835994  0.30048465  1
  Sn  Sn15  1  0.34708388  0.44565846  0.11289441  1
  W  W16  1  0.16924226  0.27763601  0.96626482  1
  W  W17  1  0.83075774  0.72236399  0.03373518  1
  W  W18  1  0.66924226  0.72236399  0.53373518  1
  W  W19  1  0.33075774  0.27763601  0.46626482  1
  W  W20  1  0.17408179  0.93768982  0.60513800  1
  W  W21  1  0.82591821  0.06231018  0.39486200  1
  W  W22  1  0.67408179  0.06231018  0.89486200  1
  W  W23  1  0.32591821  0.93768982  0.10513800  1
  O  O24  1  0.38482675  0.19325445  0.65339057  1
  O  O25  1  0.18201780  0.19162460  0.56452196  1
  O  O26  1  0.21844327  0.72823099  0.58166125  1
  O  O27  1  0.74237892  0.12345608  0.72087643  1
  O  O28  1  0.75762108  0.12345608  0.22087643  1
  O  O29  1  0.82117052  0.98015597  0.98464494  1
  O  O30  1  0.12047473  0.02293257  0.42074619  1
  O  O31  1  0.26085162  0.33248453  0.29578296  1
  O  O32  1  0.88482675  0.80674555  0.84660943  1
  O  O33  1  0.62047473  0.97706743  0.07925381  1
  O  O34  1  0.73914838  0.66751547  0.70421704  1
  O  O35  1  0.25762108  0.87654392  0.27912357  1
  O  O36  1  0.24237892  0.87654392  0.77912357  1
  O  O37  1  0.37952527  0.02293257  0.92074619  1
  O  O38  1  0.71844327  0.27176901  0.91833875  1
  O  O39  1  0.61517325  0.80674555  0.34660943  1
  O  O40  1  0.28549365  0.48533670  0.49237774  1
  O  O41  1  0.56427000  0.13923414  0.80583165  1
  O  O42  1  0.93573000  0.13923414  0.30583165  1
  O  O43  1  0.93918231  0.64833077  0.12119428  1
  O  O44  1  0.81798220  0.80837540  0.43547804  1
  O  O45  1  0.32117052  0.01984403  0.51535506  1
  O  O46  1  0.06427000  0.86076586  0.69416835  1
  O  O47  1  0.21450635  0.48533670  0.99237774  1
  O  O48  1  0.87952527  0.97706743  0.57925381  1
  O  O49  1  0.68201780  0.80837540  0.93547804  1
  O  O50  1  0.43918231  0.35166923  0.37880572  1
  O  O51  1  0.67882948  0.98015597  0.48464494  1
  O  O52  1  0.71450635  0.51466330  0.50762226  1
  O  O53  1  0.28155673  0.72823099  0.08166125  1
  O  O54  1  0.31798220  0.19162460  0.06452196  1
  O  O55  1  0.78549365  0.51466330  0.00762226  1
  O  O56  1  0.43573000  0.86076586  0.19416835  1
  O  O57  1  0.78155673  0.27176901  0.41833875  1
  O  O58  1  0.23914838  0.33248453  0.79578296  1
  O  O59  1  0.76085162  0.66751547  0.20421704  1
  O  O60  1  0.56081769  0.64833077  0.62119428  1
  O  O61  1  0.11517325  0.19325445  0.15339057  1
  O  O62  1  0.06081769  0.35166923  0.87880572  1
  O  O63  1  0.17882948  0.01984403  0.01535506  1
