# generated using pymatgen
data_RbSnS4
_symmetry_space_group_name_H-M   'P 1'
_cell_length_a   10.05223666
_cell_length_b   13.94639021
_cell_length_c   19.87825316
_cell_angle_alpha   90.00000000
_cell_angle_beta   90.00000000
_cell_angle_gamma   90.00000000
_symmetry_Int_Tables_number   1
_chemical_formula_structural   RbSnS4
_chemical_formula_sum   'Rb16 Sn16 S64'
_cell_volume   2786.78031536
_cell_formula_units_Z   16
loop_
 _symmetry_equiv_pos_site_id
 _symmetry_equiv_pos_as_xyz
  1  'x, y, z'
loop_
 _atom_site_type_symbol
 _atom_site_label
 _atom_site_symmetry_multiplicity
 _atom_site_fract_x
 _atom_site_fract_y
 _atom_site_fract_z
 _atom_site_occupancy
  Rb  Rb0  1  0.86028934  0.47359354  0.81205250  1
  Rb  Rb1  1  0.27166178  0.96132680  0.07135020  1
  Rb  Rb2  1  0.36028934  0.52640646  0.68794750  1
  Rb  Rb3  1  0.27166178  0.46132680  0.92864980  1
  Rb  Rb4  1  0.77166178  0.03867320  0.42864980  1
  Rb  Rb5  1  0.13971066  0.52640646  0.18794750  1
  Rb  Rb6  1  0.36028934  0.02640646  0.31205250  1
  Rb  Rb7  1  0.22833822  0.96132680  0.57135020  1
  Rb  Rb8  1  0.63971066  0.47359354  0.31205250  1
  Rb  Rb9  1  0.72833822  0.53867320  0.07135020  1
  Rb  Rb10  1  0.77166178  0.53867320  0.57135020  1
  Rb  Rb11  1  0.22833822  0.46132680  0.42864980  1
  Rb  Rb12  1  0.63971066  0.97359354  0.68794750  1
  Rb  Rb13  1  0.86028934  0.97359354  0.18794750  1
  Rb  Rb14  1  0.13971066  0.02640646  0.81205250  1
  Rb  Rb15  1  0.72833822  0.03867320  0.92864980  1
  Sn  Sn16  1  0.82524916  0.73164464  0.32605848  1
  Sn  Sn17  1  0.32524916  0.76835536  0.82605848  1
  Sn  Sn18  1  0.00000000  0.75000000  0.91732261  1
  Sn  Sn19  1  0.67475084  0.23164464  0.17394152  1
  Sn  Sn20  1  0.50000000  0.25000000  0.58267739  1
  Sn  Sn21  1  0.82524916  0.23164464  0.67394152  1
  Sn  Sn22  1  0.50000000  0.25000000  0.77070467  1
  Sn  Sn23  1  0.17475084  0.26835536  0.67394152  1
  Sn  Sn24  1  0.17475084  0.76835536  0.32605848  1
  Sn  Sn25  1  0.50000000  0.75000000  0.22929533  1
  Sn  Sn26  1  0.00000000  0.25000000  0.08267739  1
  Sn  Sn27  1  0.00000000  0.75000000  0.72929533  1
  Sn  Sn28  1  0.50000000  0.75000000  0.41732261  1
  Sn  Sn29  1  0.32524916  0.26835536  0.17394152  1
  Sn  Sn30  1  0.00000000  0.25000000  0.27070467  1
  Sn  Sn31  1  0.67475084  0.73164464  0.82605848  1
  S  S32  1  0.43655804  0.62162057  0.13982278  1
  S  S33  1  0.56456555  0.87640879  0.50881202  1
  S  S34  1  0.15547564  0.70749988  0.07892662  1
  S  S35  1  0.85824078  0.30124301  0.43783941  1
  S  S36  1  0.72226038  0.16104225  0.57652603  1
  S  S37  1  0.53606353  0.37245961  0.16927665  1
  S  S38  1  0.23234802  0.83091271  0.72262840  1
  S  S39  1  0.76765198  0.66908729  0.72262840  1
  S  S40  1  0.03606353  0.12754039  0.66927665  1
  S  S41  1  0.03606353  0.62754039  0.33072335  1
  S  S42  1  0.93543445  0.37640879  0.99118798  1
  S  S43  1  0.56344196  0.37837943  0.86017722  1
  S  S44  1  0.34452436  0.20749988  0.42107338  1
  S  S45  1  0.39889645  0.64459564  0.32356367  1
  S  S46  1  0.35824078  0.69875699  0.06216059  1
  S  S47  1  0.60110355  0.35540436  0.67643633  1
  S  S48  1  0.89889645  0.35540436  0.17643633  1
  S  S49  1  0.93655804  0.37837943  0.36017722  1
  S  S50  1  0.14175922  0.19875699  0.43783941  1
  S  S51  1  0.35824078  0.19875699  0.93783941  1
  S  S52  1  0.77773962  0.16104225  0.07652603  1
  S  S53  1  0.77773962  0.66104225  0.92347397  1
  S  S54  1  0.76765198  0.16908729  0.27737160  1
  S  S55  1  0.93655804  0.87837943  0.63982278  1
  S  S56  1  0.10110355  0.14459564  0.17643633  1
  S  S57  1  0.27773962  0.83895775  0.42347397  1
  S  S58  1  0.93543445  0.87640879  0.00881202  1
  S  S59  1  0.64175922  0.30124301  0.93783941  1
  S  S60  1  0.43655804  0.12162057  0.86017722  1
  S  S61  1  0.39889645  0.14459564  0.67643633  1
  S  S62  1  0.46393647  0.12754039  0.16927665  1
  S  S63  1  0.64175922  0.80124301  0.06216059  1
  S  S64  1  0.26765198  0.33091271  0.77737160  1
  S  S65  1  0.56344196  0.87837943  0.13982278  1
  S  S66  1  0.96393647  0.87245961  0.33072335  1
  S  S67  1  0.73234802  0.16908729  0.77737160  1
  S  S68  1  0.26765198  0.83091271  0.22262840  1
  S  S69  1  0.46393647  0.62754039  0.83072335  1
  S  S70  1  0.72226038  0.66104225  0.42347397  1
  S  S71  1  0.22226038  0.33895775  0.07652603  1
  S  S72  1  0.15547564  0.20749988  0.92107338  1
  S  S73  1  0.27773962  0.33895775  0.57652603  1
  S  S74  1  0.06456555  0.62359121  0.00881202  1
  S  S75  1  0.10110355  0.64459564  0.82356367  1
  S  S76  1  0.65547564  0.79250012  0.57892662  1
  S  S77  1  0.53606353  0.87245961  0.83072335  1
  S  S78  1  0.23234802  0.33091271  0.27737160  1
  S  S79  1  0.85824078  0.80124301  0.56216059  1
  S  S80  1  0.89889645  0.85540436  0.82356367  1
  S  S81  1  0.56456555  0.37640879  0.49118798  1
  S  S82  1  0.84452436  0.79250012  0.07892662  1
  S  S83  1  0.43543445  0.12359121  0.49118798  1
  S  S84  1  0.60110355  0.85540436  0.32356367  1
  S  S85  1  0.73234802  0.66908729  0.22262840  1
  S  S86  1  0.84452436  0.29250012  0.92107338  1
  S  S87  1  0.06344196  0.62162057  0.63982278  1
  S  S88  1  0.96393647  0.37245961  0.66927665  1
  S  S89  1  0.65547564  0.29250012  0.42107338  1
  S  S90  1  0.14175922  0.69875699  0.56216059  1
  S  S91  1  0.43543445  0.62359121  0.50881202  1
  S  S92  1  0.06344196  0.12162057  0.36017722  1
  S  S93  1  0.22226038  0.83895775  0.92347397  1
  S  S94  1  0.06456555  0.12359121  0.99118798  1
  S  S95  1  0.34452436  0.70749988  0.57892662  1
