# generated using pymatgen
data_SrBr2
_symmetry_space_group_name_H-M   'P 1'
_cell_length_a   4.73752988
_cell_length_b   7.83340755
_cell_length_c   11.39590769
_cell_angle_alpha   90.00000000
_cell_angle_beta   90.00000000
_cell_angle_gamma   90.00000000
_symmetry_Int_Tables_number   1
_chemical_formula_structural   SrBr2
_chemical_formula_sum   'Sr4 Br8'
_cell_volume   422.91355684
_cell_formula_units_Z   4
loop_
 _symmetry_equiv_pos_site_id
 _symmetry_equiv_pos_as_xyz
  1  'x, y, z'
loop_
 _atom_site_type_symbol
 _atom_site_label
 _atom_site_symmetry_multiplicity
 _atom_site_fract_x
 _atom_site_fract_y
 _atom_site_fract_z
 _atom_site_occupancy
  Sr  Sr0  1  0.25000000  0.13137381  0.83164032  1
  Sr  Sr1  1  0.75000000  0.86862619  0.16835968  1
  Sr  Sr2  1  0.25000000  0.36862619  0.33164032  1
  Sr  Sr3  1  0.75000000  0.63137381  0.66835968  1
  Br  Br4  1  0.75000000  0.62209229  0.39118384  1
  Br  Br5  1  0.25000000  0.37790771  0.60881616  1
  Br  Br6  1  0.25000000  0.62510267  0.12597413  1
  Br  Br7  1  0.25000000  0.12209229  0.10881616  1
  Br  Br8  1  0.25000000  0.87489733  0.62597413  1
  Br  Br9  1  0.75000000  0.37489733  0.87402587  1
  Br  Br10  1  0.75000000  0.87790771  0.89118384  1
  Br  Br11  1  0.75000000  0.12510267  0.37402587  1
