# generated using pymatgen
data_SmCu(MoO4)2
_symmetry_space_group_name_H-M   'P 1'
_cell_length_a   9.98258500
_cell_length_b   10.42312400
_cell_length_c   14.86584200
_cell_angle_alpha   90.00000000
_cell_angle_beta   90.00000000
_cell_angle_gamma   90.00000000
_symmetry_Int_Tables_number   1
_chemical_formula_structural   SmCu(MoO4)2
_chemical_formula_sum   'Sm8 Cu8 Mo16 O64'
_cell_volume   1546.78671692
_cell_formula_units_Z   8
loop_
 _symmetry_equiv_pos_site_id
 _symmetry_equiv_pos_as_xyz
  1  'x, y, z'
loop_
 _atom_site_type_symbol
 _atom_site_label
 _atom_site_symmetry_multiplicity
 _atom_site_fract_x
 _atom_site_fract_y
 _atom_site_fract_z
 _atom_site_occupancy
  Sm  Sm0  1  0.22291800  0.46490600  0.60393400  1
  Sm  Sm1  1  0.27708200  0.46490600  0.10393400  1
  Sm  Sm2  1  0.22291800  0.96490600  0.89606600  1
  Sm  Sm3  1  0.27708200  0.96490600  0.39606600  1
  Sm  Sm4  1  0.72291800  0.53509400  0.89606600  1
  Sm  Sm5  1  0.77708200  0.53509400  0.39606600  1
  Sm  Sm6  1  0.72291800  0.03509400  0.60393400  1
  Sm  Sm7  1  0.77708200  0.03509400  0.10393400  1
  Cu  Cu8  1  0.80722900  0.18266600  0.30524000  1
  Cu  Cu9  1  0.69277100  0.68266600  0.69476000  1
  Cu  Cu10  1  0.80722900  0.68266600  0.19476000  1
  Cu  Cu11  1  0.30722900  0.31733400  0.30524000  1
  Cu  Cu12  1  0.19277100  0.81733400  0.69476000  1
  Cu  Cu13  1  0.30722900  0.81733400  0.19476000  1
  Cu  Cu14  1  0.69277100  0.18266600  0.80524000  1
  Cu  Cu15  1  0.19277100  0.31733400  0.80524000  1
  Mo  Mo16  1  0.83016500  0.89747100  0.84702100  1
  Mo  Mo17  1  0.50086700  0.72023200  0.55773400  1
  Mo  Mo18  1  0.50086700  0.22023200  0.94226600  1
  Mo  Mo19  1  0.16983500  0.60252900  0.34702100  1
  Mo  Mo20  1  0.33016500  0.10252900  0.65297900  1
  Mo  Mo21  1  0.00086700  0.77976800  0.55773400  1
  Mo  Mo22  1  0.49913300  0.27976800  0.44226600  1
  Mo  Mo23  1  0.66983500  0.39747100  0.15297900  1
  Mo  Mo24  1  0.16983500  0.10252900  0.15297900  1
  Mo  Mo25  1  0.49913300  0.77976800  0.05773400  1
  Mo  Mo26  1  0.66983500  0.89747100  0.34702100  1
  Mo  Mo27  1  0.99913300  0.22023200  0.44226600  1
  Mo  Mo28  1  0.00086700  0.27976800  0.94226600  1
  Mo  Mo29  1  0.83016500  0.39747100  0.65297900  1
  Mo  Mo30  1  0.33016500  0.60252900  0.84702100  1
  Mo  Mo31  1  0.99913300  0.72023200  0.05773400  1
  O  O32  1  0.25532000  0.48717100  0.27295500  1
  O  O33  1  0.59980100  0.38640200  0.37540200  1
  O  O34  1  0.39187900  0.83077900  0.50249300  1
  O  O35  1  0.11211100  0.18165700  0.86853200  1
  O  O36  1  0.24468000  0.98717100  0.72704500  1
  O  O37  1  0.71171700  0.42442800  0.03834500  1
  O  O38  1  0.21171700  0.07557200  0.03834500  1
  O  O39  1  0.10812100  0.83077900  0.00249300  1
  O  O40  1  0.72556100  0.73699500  0.31783000  1
  O  O41  1  0.49311300  0.41200900  0.16570200  1
  O  O42  1  0.27443900  0.26300500  0.68217000  1
  O  O43  1  0.40624600  0.86721200  0.97567100  1
  O  O44  1  0.88788900  0.31834300  0.36853200  1
  O  O45  1  0.74468000  0.01282900  0.77295500  1
  O  O46  1  0.60812100  0.66922100  0.00249300  1
  O  O47  1  0.59980100  0.88640200  0.12459800  1
  O  O48  1  0.49311300  0.91200900  0.33429800  1
  O  O49  1  0.77443900  0.23699500  0.68217000  1
  O  O50  1  0.38788900  0.68165700  0.13146800  1
  O  O51  1  0.11211100  0.68165700  0.63146800  1
  O  O52  1  0.00688700  0.91200900  0.83429800  1
  O  O53  1  0.77443900  0.73699500  0.81783000  1
  O  O54  1  0.75532000  0.01282900  0.27295500  1
  O  O55  1  0.09980100  0.61359800  0.12459800  1
  O  O56  1  0.28828300  0.07557200  0.53834500  1
  O  O57  1  0.00688700  0.41200900  0.66570200  1
  O  O58  1  0.78828300  0.92442800  0.96165500  1
  O  O59  1  0.78828300  0.42442800  0.53834500  1
  O  O60  1  0.10812100  0.33077900  0.49750700  1
  O  O61  1  0.72556100  0.23699500  0.18217000  1
  O  O62  1  0.28828300  0.57557200  0.96165500  1
  O  O63  1  0.22556100  0.26300500  0.18217000  1
  O  O64  1  0.40624600  0.36721200  0.52432900  1
  O  O65  1  0.50688700  0.58799100  0.83429800  1
  O  O66  1  0.89187900  0.66922100  0.50249300  1
  O  O67  1  0.22556100  0.76300500  0.31783000  1
  O  O68  1  0.71171700  0.92442800  0.46165500  1
  O  O69  1  0.40019900  0.11359800  0.87540200  1
  O  O70  1  0.75532000  0.51282900  0.22704500  1
  O  O71  1  0.99311300  0.58799100  0.33429800  1
  O  O72  1  0.24468000  0.48717100  0.77295500  1
  O  O73  1  0.25532000  0.98717100  0.22704500  1
  O  O74  1  0.90624600  0.63278800  0.97567100  1
  O  O75  1  0.21171700  0.57557200  0.46165500  1
  O  O76  1  0.40019900  0.61359800  0.62459800  1
  O  O77  1  0.59375400  0.63278800  0.47567100  1
  O  O78  1  0.59375400  0.13278800  0.02432900  1
  O  O79  1  0.27443900  0.76300500  0.81783000  1
  O  O80  1  0.39187900  0.33077900  0.99750700  1
  O  O81  1  0.09375400  0.86721200  0.47567100  1
  O  O82  1  0.09980100  0.11359800  0.37540200  1
  O  O83  1  0.89187900  0.16922100  0.99750700  1
  O  O84  1  0.90624600  0.13278800  0.52432900  1
  O  O85  1  0.90019900  0.38640200  0.87540200  1
  O  O86  1  0.61211100  0.81834300  0.63146800  1
  O  O87  1  0.74468000  0.51282900  0.72704500  1
  O  O88  1  0.38788900  0.18165700  0.36853200  1
  O  O89  1  0.88788900  0.81834300  0.13146800  1
  O  O90  1  0.90019900  0.88640200  0.62459800  1
  O  O91  1  0.50688700  0.08799100  0.66570200  1
  O  O92  1  0.61211100  0.31834300  0.86853200  1
  O  O93  1  0.09375400  0.36721200  0.02432900  1
  O  O94  1  0.99311300  0.08799100  0.16570200  1
  O  O95  1  0.60812100  0.16922100  0.49750700  1
