# generated using pymatgen
data_Ca2GeO4
_symmetry_space_group_name_H-M   'P 1'
_cell_length_a   5.25043721
_cell_length_b   6.79145620
_cell_length_c   11.41128526
_cell_angle_alpha   90.00000000
_cell_angle_beta   90.00000000
_cell_angle_gamma   90.00000000
_symmetry_Int_Tables_number   1
_chemical_formula_structural   Ca2GeO4
_chemical_formula_sum   'Ca8 Ge4 O16'
_cell_volume   406.90491460
_cell_formula_units_Z   4
loop_
 _symmetry_equiv_pos_site_id
 _symmetry_equiv_pos_as_xyz
  1  'x, y, z'
loop_
 _atom_site_type_symbol
 _atom_site_label
 _atom_site_symmetry_multiplicity
 _atom_site_fract_x
 _atom_site_fract_y
 _atom_site_fract_z
 _atom_site_occupancy
  Ca  Ca0  1  0.00739857  0.75000000  0.72053293  1
  Ca  Ca1  1  0.99260143  0.25000000  0.27946707  1
  Ca  Ca2  1  0.50739857  0.25000000  0.77946707  1
  Ca  Ca3  1  0.49260143  0.75000000  0.22053293  1
  Ca  Ca4  1  0.50000000  0.50000000  0.50000000  1
  Ca  Ca5  1  -0.00000000  -0.00000000  -0.00000000  1
  Ca  Ca6  1  -0.00000000  0.50000000  -0.00000000  1
  Ca  Ca7  1  0.50000000  -0.00000000  0.50000000  1
  Ge  Ge8  1  0.43043645  0.25000000  0.09602160  1
  Ge  Ge9  1  0.93043645  0.75000000  0.40397840  1
  Ge  Ge10  1  0.56956355  0.75000000  0.90397840  1
  Ge  Ge11  1  0.06956355  0.25000000  0.59602160  1
  O  O12  1  0.78757732  0.75000000  0.54620515  1
  O  O13  1  0.78388992  0.54367778  0.33635379  1
  O  O14  1  0.71611008  0.54367778  0.83635379  1
  O  O15  1  0.73654171  0.25000000  0.59283777  1
  O  O16  1  0.71242268  0.75000000  0.04620515  1
  O  O17  1  0.28388992  0.45632222  0.16364621  1
  O  O18  1  0.21611008  0.45632222  0.66364621  1
  O  O19  1  0.26345829  0.75000000  0.40716223  1
  O  O20  1  0.78388992  0.95632222  0.33635379  1
  O  O21  1  0.23654171  0.75000000  0.90716223  1
  O  O22  1  0.21242268  0.25000000  0.45379485  1
  O  O23  1  0.71611008  0.95632222  0.83635379  1
  O  O24  1  0.21611008  0.04367778  0.66364621  1
  O  O25  1  0.28757732  0.25000000  0.95379485  1
  O  O26  1  0.28388992  0.04367778  0.16364621  1
  O  O27  1  0.76345829  0.25000000  0.09283777  1
