# generated using pymatgen
data_Sr2GeO4
_symmetry_space_group_name_H-M   'P 1'
_cell_length_a   5.87113806
_cell_length_b   9.93002453
_cell_length_c   14.29425320
_cell_angle_alpha   90.00000000
_cell_angle_beta   90.00000000
_cell_angle_gamma   90.00000000
_symmetry_Int_Tables_number   1
_chemical_formula_structural   Sr2GeO4
_chemical_formula_sum   'Sr16 Ge8 O32'
_cell_volume   833.36275128
_cell_formula_units_Z   8
loop_
 _symmetry_equiv_pos_site_id
 _symmetry_equiv_pos_as_xyz
  1  'x, y, z'
loop_
 _atom_site_type_symbol
 _atom_site_label
 _atom_site_symmetry_multiplicity
 _atom_site_fract_x
 _atom_site_fract_y
 _atom_site_fract_z
 _atom_site_occupancy
  Sr  Sr0  1  0.79062885  0.42731719  0.29737966  1
  Sr  Sr1  1  0.70937115  0.42731719  0.79737966  1
  Sr  Sr2  1  0.79673199  0.70245125  0.12112849  1
  Sr  Sr3  1  0.72562623  0.06979269  0.54422886  1
  Sr  Sr4  1  0.20326801  0.20245125  0.87887151  1
  Sr  Sr5  1  0.70326801  0.70245125  0.62112849  1
  Sr  Sr6  1  0.27437377  0.56979269  0.45577114  1
  Sr  Sr7  1  0.22907760  0.29751416  0.62866788  1
  Sr  Sr8  1  0.27092240  0.29751416  0.12866788  1
  Sr  Sr9  1  0.72907760  0.79751416  0.87133212  1
  Sr  Sr10  1  0.29062885  0.92731719  0.20262034  1
  Sr  Sr11  1  0.77437377  0.06979269  0.04422886  1
  Sr  Sr12  1  0.20937115  0.92731719  0.70262034  1
  Sr  Sr13  1  0.29673199  0.20245125  0.37887151  1
  Sr  Sr14  1  0.77092240  0.79751416  0.37133212  1
  Sr  Sr15  1  0.22562623  0.56979269  0.95577114  1
  Ge  Ge16  1  0.71995937  0.08367859  0.76435592  1
  Ge  Ge17  1  0.72833477  0.41617626  0.02113033  1
  Ge  Ge18  1  0.78004063  0.08367859  0.26435592  1
  Ge  Ge19  1  0.22833477  0.91617626  0.47886867  1
  Ge  Ge20  1  0.77166523  0.41617626  0.52113133  1
  Ge  Ge21  1  0.28004063  0.58367859  0.23564408  1
  Ge  Ge22  1  0.27166523  0.91617626  0.97886867  1
  Ge  Ge23  1  0.21995937  0.58367859  0.73564408  1
  O  O24  1  0.28644789  0.06482011  0.54326046  1
  O  O25  1  0.16788029  0.95636296  0.36293658  1
  O  O26  1  0.04529961  0.80421214  0.99500775  1
  O  O27  1  0.53317589  0.13924548  0.20365101  1
  O  O28  1  0.97833969  0.84721687  0.52988887  1
  O  O29  1  0.00805536  0.70761003  0.74782274  1
  O  O30  1  0.64537782  0.93451653  0.70204144  1
  O  O31  1  0.49194464  0.70761003  0.24782274  1
  O  O32  1  0.99194464  0.20761003  0.25217726  1
  O  O33  1  0.54529961  0.30421214  0.50499225  1
  O  O34  1  0.02166031  0.34721687  0.47011113  1
  O  O35  1  0.46682411  0.63924548  0.79634899  1
  O  O36  1  0.67843032  0.05078674  0.37690212  1
  O  O37  1  0.96682411  0.13924548  0.70365101  1
  O  O38  1  0.45470039  0.80421214  0.49500775  1
  O  O39  1  0.82156968  0.05078674  0.87690212  1
  O  O40  1  0.03317589  0.63924548  0.29634899  1
  O  O41  1  0.17843032  0.55078674  0.12309788  1
  O  O42  1  0.52166031  0.84721687  0.02988887  1
  O  O43  1  0.47833969  0.34721687  0.97011113  1
  O  O44  1  0.83211971  0.45636296  0.63706342  1
  O  O45  1  0.35462218  0.43451653  0.29795856  1
  O  O46  1  0.85462218  0.93451653  0.20204144  1
  O  O47  1  0.21355211  0.06482011  0.04326046  1
  O  O48  1  0.71355211  0.56482011  0.45673954  1
  O  O49  1  0.95470039  0.30421214  0.00499225  1
  O  O50  1  0.32156968  0.55078674  0.62309788  1
  O  O51  1  0.50805536  0.20761003  0.75217726  1
  O  O52  1  0.66788029  0.45636296  0.13706342  1
  O  O53  1  0.14537782  0.43451653  0.79795856  1
  O  O54  1  0.33211971  0.95636296  0.86293658  1
  O  O55  1  0.78644789  0.56482011  0.95673954  1
