# generated using pymatgen
data_Rb3AgSn3Se8
_symmetry_space_group_name_H-M   'P 1'
_cell_length_a   8.47842981
_cell_length_b   8.47842981
_cell_length_c   13.60746352
_cell_angle_alpha   90.00000000
_cell_angle_beta   90.00000000
_cell_angle_gamma   90.00000000
_symmetry_Int_Tables_number   1
_chemical_formula_structural   Rb3AgSn3Se8
_chemical_formula_sum   'Rb6 Ag2 Sn6 Se16'
_cell_volume   978.15580576
_cell_formula_units_Z   2
loop_
 _symmetry_equiv_pos_site_id
 _symmetry_equiv_pos_as_xyz
  1  'x, y, z'
loop_
 _atom_site_type_symbol
 _atom_site_label
 _atom_site_symmetry_multiplicity
 _atom_site_fract_x
 _atom_site_fract_y
 _atom_site_fract_z
 _atom_site_occupancy
  Rb  Rb0  1  0.00000000  -0.00000000  0.22442431  1
  Rb  Rb1  1  0.50000000  0.50000000  0.50000000  1
  Rb  Rb2  1  0.00000000  -0.00000000  0.77557569  1
  Rb  Rb3  1  0.50000000  0.50000000  0.22442431  1
  Rb  Rb4  1  0.50000000  0.50000000  0.77557569  1
  Rb  Rb5  1  0.00000000  -0.00000000  0.50000000  1
  Ag  Ag6  1  0.50000000  -0.00000000  0.50000000  1
  Ag  Ag7  1  0.00000000  0.50000000  0.50000000  1
  Sn  Sn8  1  0.00000000  0.50000000  0.74076598  1
  Sn  Sn9  1  0.50000000  -0.00000000  0.25923402  1
  Sn  Sn10  1  0.50000000  -0.00000000  0.74076598  1
  Sn  Sn11  1  0.50000000  -0.00000000  -0.00000000  1
  Sn  Sn12  1  0.00000000  0.50000000  0.25923402  1
  Sn  Sn13  1  0.00000000  0.50000000  -0.00000000  1
  Se  Se14  1  0.82775004  0.32775004  0.36157383  1
  Se  Se15  1  0.84103458  0.65896542  0.12457129  1
  Se  Se16  1  0.15896542  0.65896542  0.87542871  1
  Se  Se17  1  0.15896542  0.34103458  0.12457129  1
  Se  Se18  1  0.65896542  0.15896542  0.12457129  1
  Se  Se19  1  0.67224996  0.17224996  0.63842617  1
  Se  Se20  1  0.32775004  0.82775004  0.63842617  1
  Se  Se21  1  0.82775004  0.67224996  0.63842617  1
  Se  Se22  1  0.17224996  0.67224996  0.36157383  1
  Se  Se23  1  0.84103458  0.34103458  0.87542871  1
  Se  Se24  1  0.34103458  0.84103458  0.12457129  1
  Se  Se25  1  0.65896542  0.84103458  0.87542871  1
  Se  Se26  1  0.32775004  0.17224996  0.36157383  1
  Se  Se27  1  0.67224996  0.82775004  0.36157383  1
  Se  Se28  1  0.34103458  0.15896542  0.87542871  1
  Se  Se29  1  0.17224996  0.32775004  0.63842617  1
