# generated using pymatgen
data_RbMnBr3
_symmetry_space_group_name_H-M   'P 1'
_cell_length_a   12.99505335
_cell_length_b   12.99517330
_cell_length_c   6.53335065
_cell_angle_alpha   90.00063838
_cell_angle_beta   89.99892932
_cell_angle_gamma   119.99494390
_symmetry_Int_Tables_number   1
_chemical_formula_structural   RbMnBr3
_chemical_formula_sum   'Rb6 Mn6 Br18'
_cell_volume   955.53998785
_cell_formula_units_Z   6
loop_
 _symmetry_equiv_pos_site_id
 _symmetry_equiv_pos_as_xyz
  1  'x, y, z'
loop_
 _atom_site_type_symbol
 _atom_site_label
 _atom_site_symmetry_multiplicity
 _atom_site_fract_x
 _atom_site_fract_y
 _atom_site_fract_z
 _atom_site_occupancy
  Rb  Rb0  1  0.66628914  0.66628969  0.30972289  1
  Rb  Rb1  1  -0.00000391  0.66628517  0.80971763  1
  Rb  Rb2  1  0.66628418  -0.00000207  0.80971776  1
  Rb  Rb3  1  0.33370774  0.33370935  0.80972395  1
  Rb  Rb4  1  0.00000068  0.33371344  0.30971691  1
  Rb  Rb5  1  0.33371294  0.00000202  0.30971929  1
  Mn  Mn6  1  0.66666695  0.33333370  0.60898016  1
  Mn  Mn7  1  0.33333791  0.66666706  0.60898526  1
  Mn  Mn8  1  0.66666070  0.33332941  0.10898637  1
  Mn  Mn9  1  0.33333062  0.66666032  0.10898778  1
  Mn  Mn10  1  0.00001106  0.00001257  -0.00194408  1
  Mn  Mn11  1  -0.00001134  -0.00000822  0.49805960  1
  Br  Br12  1  0.82966861  0.33112546  0.86053323  1
  Br  Br13  1  0.83617430  0.83619683  0.74294229  1
  Br  Br14  1  0.49852937  0.82966050  0.36052063  1
  Br  Br15  1  0.17033832  0.50147215  0.86052005  1
  Br  Br16  1  0.00001650  0.83618027  0.24292398  1
  Br  Br17  1  0.50146645  0.17033601  0.86052167  1
  Br  Br18  1  0.83617995  0.00002290  0.24292907  1
  Br  Br19  1  0.49853356  0.66883072  0.86056819  1
  Br  Br20  1  0.33112875  0.82966764  0.86053223  1
  Br  Br21  1  0.17033115  0.66886998  0.36053534  1
  Br  Br22  1  -0.00001331  0.16382802  0.74292784  1
  Br  Br23  1  0.66886506  0.49853426  0.86052940  1
  Br  Br24  1  0.33116657  0.50146633  0.36056506  1
  Br  Br25  1  0.82966218  0.49852770  0.36051222  1
  Br  Br26  1  0.66886842  0.17032984  0.36053452  1
  Br  Br27  1  0.16381654  0.16381608  0.24294335  1
  Br  Br28  1  0.16381892  -0.00002129  0.74293260  1
  Br  Br29  1  0.50146400  0.33116516  0.36055979  1
