# generated using pymatgen
data_Cs4Li2(Si2O5)3
_symmetry_space_group_name_H-M   'P 1'
_cell_length_a   8.63763800
_cell_length_b   11.12878700
_cell_length_c   19.28343137
_cell_angle_alpha   89.81239829
_cell_angle_beta   90.00000000
_cell_angle_gamma   90.00000000
_symmetry_Int_Tables_number   1
_chemical_formula_structural   Cs4Li2(Si2O5)3
_chemical_formula_sum   'Cs16 Li8 Si24 O60'
_cell_volume   1853.63754636
_cell_formula_units_Z   4
loop_
 _symmetry_equiv_pos_site_id
 _symmetry_equiv_pos_as_xyz
  1  'x, y, z'
loop_
 _atom_site_type_symbol
 _atom_site_label
 _atom_site_symmetry_multiplicity
 _atom_site_fract_x
 _atom_site_fract_y
 _atom_site_fract_z
 _atom_site_occupancy
  Cs  Cs0  1  0.25000000  0.54485900  0.48595700  1
  Cs  Cs1  1  0.25000000  0.47968600  0.00756300  1
  Cs  Cs2  1  0.25000000  0.04288300  0.98094800  1
  Cs  Cs3  1  0.25000000  0.72193500  0.27937900  1
  Cs  Cs4  1  0.75000000  0.79584600  0.26721800  1
  Cs  Cs5  1  0.25000000  0.29476200  0.22341800  1
  Cs  Cs6  1  0.25000000  0.20415400  0.73278200  1
  Cs  Cs7  1  0.25000000  0.77749900  0.77249100  1
  Cs  Cs8  1  0.75000000  0.22250100  0.22750900  1
  Cs  Cs9  1  0.75000000  0.70523800  0.77658200  1
  Cs  Cs10  1  0.75000000  0.52031400  0.99243700  1
  Cs  Cs11  1  0.25000000  0.96729300  0.51848900  1
  Cs  Cs12  1  0.75000000  0.45514100  0.51404300  1
  Cs  Cs13  1  0.75000000  0.03270700  0.48151100  1
  Cs  Cs14  1  0.75000000  0.95711700  0.01905200  1
  Cs  Cs15  1  0.75000000  0.27806500  0.72062100  1
  Li  Li16  1  0.01852600  0.23760700  0.57877200  1
  Li  Li17  1  0.51247500  0.26031100  0.07198500  1
  Li  Li18  1  0.98752500  0.26031100  0.07198500  1
  Li  Li19  1  0.51852600  0.76239300  0.42122800  1
  Li  Li20  1  0.48752500  0.73968900  0.92801500  1
  Li  Li21  1  0.48147400  0.23760700  0.57877200  1
  Li  Li22  1  0.01247500  0.73968900  0.92801500  1
  Li  Li23  1  0.98147400  0.76239300  0.42122800  1
  Si  Si24  1  0.56544900  0.49471200  0.33517900  1
  Si  Si25  1  0.93990500  0.99489500  0.83461200  1
  Si  Si26  1  0.06009500  0.00510500  0.16538800  1
  Si  Si27  1  0.06544900  0.50528800  0.66482100  1
  Si  Si28  1  0.43875300  0.25609900  0.41183600  1
  Si  Si29  1  0.93455100  0.49471200  0.33517900  1
  Si  Si30  1  0.56057600  0.25006800  0.90387700  1
  Si  Si31  1  0.93942400  0.25006800  0.90387700  1
  Si  Si32  1  0.56009500  0.99489500  0.83461200  1
  Si  Si33  1  0.93875300  0.74390100  0.58816400  1
  Si  Si34  1  0.06399200  0.48492500  0.82979100  1
  Si  Si35  1  0.56399200  0.51507500  0.17020900  1
  Si  Si36  1  0.43455100  0.50528800  0.66482100  1
  Si  Si37  1  0.93600800  0.51507500  0.17020900  1
  Si  Si38  1  0.43990500  0.00510500  0.16538800  1
  Si  Si39  1  0.56124700  0.74390100  0.58816400  1
  Si  Si40  1  0.06057600  0.74993200  0.09612300  1
  Si  Si41  1  0.43942400  0.74993200  0.09612300  1
  Si  Si42  1  0.55990800  0.98285000  0.67114400  1
  Si  Si43  1  0.06124700  0.25609900  0.41183600  1
  Si  Si44  1  0.05990800  0.01715000  0.32885600  1
  Si  Si45  1  0.94009200  0.98285000  0.67114400  1
  Si  Si46  1  0.43600800  0.48492500  0.82979100  1
  Si  Si47  1  0.44009200  0.01715000  0.32885600  1
  O  O48  1  0.25000000  0.01679800  0.32531500  1
  O  O49  1  0.50526100  0.11433100  0.12100800  1
  O  O50  1  0.53112600  0.35885800  0.84607600  1
  O  O51  1  0.25000000  0.00040900  0.16866600  1
  O  O52  1  0.01902300  0.59395500  0.87874300  1
  O  O53  1  0.02562500  0.37723000  0.63332400  1
  O  O54  1  0.52562500  0.62277000  0.36667600  1
  O  O55  1  0.49473900  0.88566900  0.87899200  1
  O  O56  1  0.46333000  0.38688300  0.37226600  1
  O  O57  1  0.53667000  0.61311700  0.62773400  1
  O  O58  1  0.50552200  0.84671100  0.64575400  1
  O  O59  1  0.48097700  0.59395500  0.87874300  1
  O  O60  1  0.03667000  0.38688300  0.37226600  1
  O  O61  1  0.01775900  0.51661900  0.74805300  1
  O  O62  1  0.49947200  0.12697200  0.86327700  1
  O  O63  1  0.02672900  0.75358400  0.51613900  1
  O  O64  1  0.75000000  0.23758900  0.91111100  1
  O  O65  1  0.47718400  0.26907100  0.97622300  1
  O  O66  1  0.99447800  0.84671100  0.64575400  1
  O  O67  1  0.75000000  0.99959100  0.83133400  1
  O  O68  1  0.97327100  0.24641600  0.48386100  1
  O  O69  1  0.02281600  0.26907100  0.97622300  1
  O  O70  1  0.00909900  0.08927400  0.62569000  1
  O  O71  1  0.99473900  0.11433100  0.12100800  1
  O  O72  1  0.00552200  0.15328900  0.35424600  1
  O  O73  1  0.99947200  0.87302800  0.13672300  1
  O  O74  1  0.98097700  0.40604500  0.12125700  1
  O  O75  1  0.47437500  0.37723000  0.63332400  1
  O  O76  1  0.49800600  0.98957500  0.75289900  1
  O  O77  1  0.50052800  0.87302800  0.13672300  1
  O  O78  1  0.25000000  0.44785000  0.83067800  1
  O  O79  1  0.46887400  0.64114200  0.15392400  1
  O  O80  1  0.75000000  0.75901600  0.57888500  1
  O  O81  1  0.99090100  0.91072600  0.37431000  1
  O  O82  1  0.50199400  0.01042500  0.24710100  1
  O  O83  1  0.97437500  0.62277000  0.36667600  1
  O  O84  1  0.75000000  0.45397400  0.34174800  1
  O  O85  1  0.49447800  0.15328900  0.35424600  1
  O  O86  1  0.00199400  0.98957500  0.75289900  1
  O  O87  1  0.00052800  0.12697200  0.86327700  1
  O  O88  1  0.25000000  0.76241100  0.08888900  1
  O  O89  1  0.52672900  0.24641600  0.48386100  1
  O  O90  1  0.98224100  0.48338100  0.25194700  1
  O  O91  1  0.52281600  0.73092900  0.02377700  1
  O  O92  1  0.49090100  0.08927400  0.62569000  1
  O  O93  1  0.48224100  0.51661900  0.74805300  1
  O  O94  1  0.50909900  0.91072600  0.37431000  1
  O  O95  1  0.25000000  0.24098400  0.42111500  1
  O  O96  1  0.00526100  0.88566900  0.87899200  1
  O  O97  1  0.96333000  0.61311700  0.62773400  1
  O  O98  1  0.96887400  0.35885800  0.84607600  1
  O  O99  1  0.25000000  0.54602600  0.65825200  1
  O  O100  1  0.51902300  0.40604500  0.12125700  1
  O  O101  1  0.47327100  0.75358400  0.51613900  1
  O  O102  1  0.97718400  0.73092900  0.02377700  1
  O  O103  1  0.03112600  0.64114200  0.15392400  1
  O  O104  1  0.75000000  0.98320200  0.67468500  1
  O  O105  1  0.51775900  0.48338100  0.25194700  1
  O  O106  1  0.75000000  0.55215000  0.16932200  1
  O  O107  1  0.99800600  0.01042500  0.24710100  1
