# generated using pymatgen
data_CdI2
_symmetry_space_group_name_H-M   'P 1'
_cell_length_a   4.28818512
_cell_length_b   4.28818512
_cell_length_c   50.93379172
_cell_angle_alpha   90.00000000
_cell_angle_beta   90.00000000
_cell_angle_gamma   119.99998730
_symmetry_Int_Tables_number   1
_chemical_formula_structural   CdI2
_chemical_formula_sum   'Cd7 I14'
_cell_volume   811.11745182
_cell_formula_units_Z   7
loop_
 _symmetry_equiv_pos_site_id
 _symmetry_equiv_pos_as_xyz
  1  'x, y, z'
loop_
 _atom_site_type_symbol
 _atom_site_label
 _atom_site_symmetry_multiplicity
 _atom_site_fract_x
 _atom_site_fract_y
 _atom_site_fract_z
 _atom_site_occupancy
  Cd  Cd0  1  -0.00000000  0.00000000  0.03563882  1
  Cd  Cd1  1  0.66666700  0.33333300  0.60702306  1
  Cd  Cd2  1  0.66666700  0.33333300  0.89297830  1
  Cd  Cd3  1  0.66666700  0.33333300  0.74999161  1
  Cd  Cd4  1  0.66666700  0.33333300  0.17854634  1
  Cd  Cd5  1  0.66666700  0.33333300  0.46440232  1
  Cd  Cd6  1  0.66666700  0.33333300  0.32134793  1
  I  I7  1  0.33333300  0.66666700  0.14477172  1
  I  I8  1  -0.00000000  -0.00000000  0.21237527  1
  I  I9  1  -0.00000000  -0.00000000  0.35522673  1
  I  I10  1  0.66666700  0.33333300  0.06951981  1
  I  I11  1  -0.00000000  -0.00000000  0.92676492  1
  I  I12  1  0.33333300  0.66666700  0.43059023  1
  I  I13  1  -0.00000000  0.00000000  0.64066823  1
  I  I14  1  0.33333300  0.66666700  0.00190975  1
  I  I15  1  -0.00000000  -0.00000000  0.49816828  1
  I  I16  1  -0.00000000  -0.00000000  0.78380222  1
  I  I17  1  0.33333300  0.66666700  0.57333251  1
  I  I18  1  0.33333300  0.66666700  0.71619629  1
  I  I19  1  0.33333300  0.66666700  0.85916029  1
  I  I20  1  0.33333300  0.66666700  0.28758337  1
