# generated using pymatgen
data_B2Se2O7
_symmetry_space_group_name_H-M   'P 1'
_cell_length_a   7.54156797
_cell_length_b   7.91362621
_cell_length_c   9.06623459
_cell_angle_alpha   90.00000000
_cell_angle_beta   90.00000000
_cell_angle_gamma   90.00000000
_symmetry_Int_Tables_number   1
_chemical_formula_structural   B2Se2O7
_chemical_formula_sum   'B8 Se8 O28'
_cell_volume   541.08330606
_cell_formula_units_Z   4
loop_
 _symmetry_equiv_pos_site_id
 _symmetry_equiv_pos_as_xyz
  1  'x, y, z'
loop_
 _atom_site_type_symbol
 _atom_site_label
 _atom_site_symmetry_multiplicity
 _atom_site_fract_x
 _atom_site_fract_y
 _atom_site_fract_z
 _atom_site_occupancy
  B  B0  1  0.09747917  0.94985028  0.85253955  1
  B  B1  1  0.07161383  0.98333105  0.35637611  1
  B  B2  1  0.90252083  0.44985028  0.64746045  1
  B  B3  1  0.59747917  0.55014972  0.14746045  1
  B  B4  1  0.42838617  0.01666895  0.85637611  1
  B  B5  1  0.92838617  0.48333105  0.14362389  1
  B  B6  1  0.57161383  0.51666895  0.64362389  1
  B  B7  1  0.40252083  0.05014972  0.35253955  1
  Se  Se8  1  0.59294888  0.89484129  0.12415689  1
  Se  Se9  1  0.07488186  0.16779074  0.09750634  1
  Se  Se10  1  0.92511814  0.66779074  0.40249366  1
  Se  Se11  1  0.42511814  0.83220926  0.59750634  1
  Se  Se12  1  0.40705112  0.39484129  0.37584311  1
  Se  Se13  1  0.90705112  0.10515871  0.62415689  1
  Se  Se14  1  0.57488186  0.33220926  0.90249366  1
  Se  Se15  1  0.09294888  0.60515871  0.87584311  1
  O  O16  1  0.99492498  0.49856082  0.29928449  1
  O  O17  1  0.51194267  0.20214118  0.38858678  1
  O  O18  1  0.91226292  0.03519672  0.44599265  1
  O  O19  1  0.41708823  0.01165370  0.19102856  1
  O  O20  1  0.91708823  0.48834630  0.80897144  1
  O  O21  1  0.22297172  0.08004405  0.38861783  1
  O  O22  1  0.08773708  0.53519672  0.05400735  1
  O  O23  1  0.98805733  0.79785882  0.88858678  1
  O  O24  1  0.41226292  0.46480328  0.55400735  1
  O  O25  1  0.00748907  0.09394330  0.92855931  1
  O  O26  1  0.48805733  0.70214118  0.11141322  1
  O  O27  1  0.50748907  0.40605670  0.07144069  1
  O  O28  1  0.99251093  0.59394330  0.57144069  1
  O  O29  1  0.08291177  0.98834630  0.69102856  1
  O  O30  1  0.01194267  0.29785882  0.61141322  1
  O  O31  1  0.10579338  0.79942722  0.38083602  1
  O  O32  1  0.58773708  0.96480328  0.94599265  1
  O  O33  1  0.49251093  0.90605670  0.42855931  1
  O  O34  1  0.58291177  0.51165370  0.30897144  1
  O  O35  1  0.00507502  0.99856082  0.20071551  1
  O  O36  1  0.27702828  0.91995595  0.88861783  1
  O  O37  1  0.89420662  0.29942722  0.11916398  1
  O  O38  1  0.72297172  0.41995595  0.61138217  1
  O  O39  1  0.50507502  0.50143918  0.79928449  1
  O  O40  1  0.77702828  0.58004405  0.11138217  1
  O  O41  1  0.49492498  0.00143918  0.70071551  1
  O  O42  1  0.60579338  0.70057278  0.61916398  1
  O  O43  1  0.39420662  0.20057278  0.88083602  1
