# generated using pymatgen
data_UOF4
_symmetry_space_group_name_H-M   'P 1'
_cell_length_a   7.89937949
_cell_length_b   7.89937949
_cell_length_c   7.89937982
_cell_angle_alpha   114.59132485
_cell_angle_beta   114.59132485
_cell_angle_gamma   114.59132729
_symmetry_Int_Tables_number   1
_chemical_formula_structural   UOF4
_chemical_formula_sum   'U3 O3 F12'
_cell_volume   285.87120843
_cell_formula_units_Z   3
loop_
 _symmetry_equiv_pos_site_id
 _symmetry_equiv_pos_as_xyz
  1  'x, y, z'
loop_
 _atom_site_type_symbol
 _atom_site_label
 _atom_site_symmetry_multiplicity
 _atom_site_fract_x
 _atom_site_fract_y
 _atom_site_fract_z
 _atom_site_occupancy
  U  U0  1  0.26602148  0.85508072  0.85508072  1
  U  U1  1  0.85508072  0.26602148  0.85508072  1
  U  U2  1  0.85508072  0.85508072  0.26602148  1
  O  O3  1  0.58765745  0.17414638  0.58765745  1
  O  O4  1  0.58765745  0.58765745  0.17414638  1
  O  O5  1  0.17414638  0.58765745  0.58765745  1
  F  F6  1  0.15260011  0.95612478  0.62488967  1
  F  F7  1  0.95612478  0.62488967  0.15260011  1
  F  F8  1  0.62488967  0.15260011  0.95612478  1
  F  F9  1  0.15178924  0.15178924  0.37356616  1
  F  F10  1  0.15178924  0.37356616  0.15178924  1
  F  F11  1  0.88165381  0.65466362  0.65466362  1
  F  F12  1  0.15260011  0.62488967  0.95612478  1
  F  F13  1  0.95612478  0.15260011  0.62488967  1
  F  F14  1  0.37356616  0.15178924  0.15178924  1
  F  F15  1  0.65466362  0.88165381  0.65466362  1
  F  F16  1  0.65466362  0.65466362  0.88165381  1
  F  F17  1  0.62488967  0.95612478  0.15260011  1
