# generated using pymatgen
data_Sm3Ga5O12
_symmetry_space_group_name_H-M   'P 1'
_cell_length_a   10.77696189
_cell_length_b   10.77696207
_cell_length_c   10.77696247
_cell_angle_alpha   109.47113994
_cell_angle_beta   109.47113842
_cell_angle_gamma   109.47113405
_symmetry_Int_Tables_number   1
_chemical_formula_structural   Sm3Ga5O12
_chemical_formula_sum   'Sm12 Ga20 O48'
_cell_volume   963.53727130
_cell_formula_units_Z   4
loop_
 _symmetry_equiv_pos_site_id
 _symmetry_equiv_pos_as_xyz
  1  'x, y, z'
loop_
 _atom_site_type_symbol
 _atom_site_label
 _atom_site_symmetry_multiplicity
 _atom_site_fract_x
 _atom_site_fract_y
 _atom_site_fract_z
 _atom_site_occupancy
  Sm  Sm0  1  0.87500007  0.75000003  0.62499987  1
  Sm  Sm1  1  0.87499990  0.62500006  0.24999998  1
  Sm  Sm2  1  0.62499994  0.87500013  0.75000005  1
  Sm  Sm3  1  0.24999997  0.87499994  0.62500006  1
  Sm  Sm4  1  0.74999992  0.62499991  0.87500013  1
  Sm  Sm5  1  0.62500007  0.25000000  0.87499998  1
  Sm  Sm6  1  0.12499988  0.25000001  0.37500013  1
  Sm  Sm7  1  0.12500002  0.37499996  0.74999997  1
  Sm  Sm8  1  0.37500013  0.12499990  0.25000005  1
  Sm  Sm9  1  0.75000000  0.12500014  0.37499998  1
  Sm  Sm10  1  0.25000002  0.37500018  0.12499993  1
  Sm  Sm11  1  0.37499989  0.75000003  0.12500005  1
  Ga  Ga12  1  0.12500037  0.75000074  0.87500082  1
  Ga  Ga13  1  0.87499980  0.24999934  0.12499913  1
  Ga  Ga14  1  0.74999920  0.37499970  0.62499919  1
  Ga  Ga15  1  0.12499916  0.87499976  0.24999935  1
  Ga  Ga16  1  0.24999922  0.12499923  0.87499978  1
  Ga  Ga17  1  0.37499959  0.62499908  0.74999928  1
  Ga  Ga18  1  0.37500083  0.25000055  0.62500025  1
  Ga  Ga19  1  0.87500094  0.12500038  0.75000076  1
  Ga  Ga20  1  0.62500028  0.37500092  0.25000074  1
  Ga  Ga21  1  0.75000071  0.87500115  0.12500044  1
  Ga  Ga22  1  0.25000071  0.62500042  0.37500097  1
  Ga  Ga23  1  0.62499910  0.74999925  0.37499975  1
  Ga  Ga24  1  0.49999994  0.00000003  0.50000000  1
  Ga  Ga25  1  0.00000001  0.50000000  -0.00000001  1
  Ga  Ga26  1  0.49999996  0.50000001  0.50000002  1
  Ga  Ga27  1  0.00000000  0.00000009  0.50000009  1
  Ga  Ga28  1  -0.00000000  0.00000003  0.00000002  1
  Ga  Ga29  1  -0.00000000  0.49999994  0.49999996  1
  Ga  Ga30  1  0.49999995  0.49999997  -0.00000007  1
  Ga  Ga31  1  0.50000006  0.00000005  0.00000009  1
  O  O32  1  0.58283065  0.90478096  0.38029263  1
  O  O33  1  0.38029296  0.58283088  0.90478089  1
  O  O34  1  0.29746128  0.32194993  0.91717032  1
  O  O35  1  0.47551267  0.59521956  0.17805082  1
  O  O36  1  0.32194935  0.90478049  0.02448755  1
  O  O37  1  0.11970684  0.02448788  0.20253795  1
  O  O38  1  0.38029311  0.29746209  0.47551207  1
  O  O39  1  0.90478096  0.38029281  0.58283082  1
  O  O40  1  0.17805009  0.20253881  0.58282978  1
  O  O41  1  0.47551219  0.38029320  0.29746206  1
  O  O42  1  0.90478054  0.02448756  0.32194933  1
  O  O43  1  0.59521898  0.91716912  0.11970710  1
  O  O44  1  0.91716915  0.11970712  0.59521917  1
  O  O45  1  0.29746199  0.47551197  0.38029301  1
  O  O46  1  0.58282984  0.17805021  0.20253874  1
  O  O47  1  0.20253881  0.58282972  0.17805010  1
  O  O48  1  0.02448727  0.32194922  0.90478042  1
  O  O49  1  0.91717036  0.29746121  0.32195009  1
  O  O50  1  0.02448775  0.20253796  0.11970677  1
  O  O51  1  0.82194988  0.79746121  0.41717030  1
  O  O52  1  0.17805083  0.47551283  0.59521963  1
  O  O53  1  0.59521946  0.17805072  0.47551259  1
  O  O54  1  0.20253788  0.11970692  0.02448794  1
  O  O55  1  0.11970714  0.59521907  0.91716925  1
  O  O56  1  0.41716905  0.09521911  0.61970698  1
  O  O57  1  0.61970709  0.41716913  0.09521916  1
  O  O58  1  0.70253876  0.67805013  0.08282979  1
  O  O59  1  0.52448793  0.40477963  0.82194946  1
  O  O60  1  0.67805067  0.09521954  0.97551258  1
  O  O61  1  0.88029319  0.97551223  0.79746202  1
  O  O62  1  0.61970693  0.70253801  0.52448800  1
  O  O63  1  0.09521906  0.61970721  0.41716933  1
  O  O64  1  0.88029274  0.40478098  0.08283081  1
  O  O65  1  0.79746205  0.88029327  0.97551212  1
  O  O66  1  0.40478043  0.82194941  0.52448742  1
  O  O67  1  0.67805018  0.08282986  0.70253878  1
  O  O68  1  0.82194922  0.52448732  0.40478040  1
  O  O69  1  0.97551152  0.79746167  0.88029179  1
  O  O70  1  0.08282989  0.70253876  0.67805030  1
  O  O71  1  0.97551276  0.67805078  0.09521964  1
  O  O72  1  0.79746123  0.41717008  0.82194981  1
  O  O73  1  0.41717012  0.82194976  0.79746120  1
  O  O74  1  0.70253792  0.52448788  0.61970676  1
  O  O75  1  0.08283087  0.88029292  0.40478085  1
  O  O76  1  0.40478094  0.08283077  0.88029275  1
  O  O77  1  0.09522044  0.97551227  0.67805079  1
  O  O78  1  0.52448774  0.61970677  0.70253788  1
  O  O79  1  0.32194966  0.91717015  0.29746129  1
