# generated using pymatgen
data_Al(TeCl2)2
_symmetry_space_group_name_H-M   'P 1'
_cell_length_a   11.21872376
_cell_length_b   12.18830403
_cell_length_c   13.93071115
_cell_angle_alpha   90.00000000
_cell_angle_beta   90.00000000
_cell_angle_gamma   90.00000000
_symmetry_Int_Tables_number   1
_chemical_formula_structural   Al(TeCl2)2
_chemical_formula_sum   'Al8 Te16 Cl32'
_cell_volume   1904.84665977
_cell_formula_units_Z   8
loop_
 _symmetry_equiv_pos_site_id
 _symmetry_equiv_pos_as_xyz
  1  'x, y, z'
loop_
 _atom_site_type_symbol
 _atom_site_label
 _atom_site_symmetry_multiplicity
 _atom_site_fract_x
 _atom_site_fract_y
 _atom_site_fract_z
 _atom_site_occupancy
  Al  Al0  1  0.60294035  0.90946311  0.35733924  1
  Al  Al1  1  0.10294035  0.09053689  0.14266076  1
  Al  Al2  1  0.89705965  0.40946311  0.64266076  1
  Al  Al3  1  0.39705965  0.59053689  0.85733924  1
  Al  Al4  1  0.39705965  0.09053689  0.64266076  1
  Al  Al5  1  0.89705965  0.90946311  0.85733924  1
  Al  Al6  1  0.10294035  0.59053689  0.35733924  1
  Al  Al7  1  0.60294035  0.40946311  0.14266076  1
  Te  Te8  1  0.00784050  0.63630488  0.06714740  1
  Te  Te9  1  0.50784050  0.36369512  0.43285260  1
  Te  Te10  1  0.49215950  0.13630488  0.93285260  1
  Te  Te11  1  0.99215950  0.86369512  0.56714740  1
  Te  Te12  1  0.99215950  0.36369512  0.93285260  1
  Te  Te13  1  0.49215950  0.63630488  0.56714740  1
  Te  Te14  1  0.50784050  0.86369512  0.06714740  1
  Te  Te15  1  0.00784050  0.13630488  0.43285260  1
  Te  Te16  1  0.61683438  0.55983230  0.41550930  1
  Te  Te17  1  0.11683438  0.44016770  0.08449070  1
  Te  Te18  1  0.88316562  0.05983230  0.58449070  1
  Te  Te19  1  0.38316562  0.94016770  0.91550930  1
  Te  Te20  1  0.38316562  0.44016770  0.58449070  1
  Te  Te21  1  0.88316562  0.55983230  0.91550930  1
  Te  Te22  1  0.11683438  0.94016770  0.41550930  1
  Te  Te23  1  0.61683438  0.05983230  0.08449070  1
  Cl  Cl24  1  0.61590424  0.58043762  0.11525101  1
  Cl  Cl25  1  0.11590424  0.41956238  0.38474899  1
  Cl  Cl26  1  0.88409576  0.08043762  0.88474899  1
  Cl  Cl27  1  0.38409576  0.91956238  0.61525101  1
  Cl  Cl28  1  0.38409576  0.41956238  0.88474899  1
  Cl  Cl29  1  0.88409576  0.58043762  0.61525101  1
  Cl  Cl30  1  0.11590424  0.91956238  0.11525101  1
  Cl  Cl31  1  0.61590424  0.08043762  0.38474899  1
  Cl  Cl32  1  0.92682423  0.64636487  0.32885946  1
  Cl  Cl33  1  0.42682423  0.35363513  0.17114054  1
  Cl  Cl34  1  0.57317577  0.14636487  0.67114054  1
  Cl  Cl35  1  0.07317577  0.85363513  0.82885946  1
  Cl  Cl36  1  0.07317577  0.35363513  0.67114054  1
  Cl  Cl37  1  0.57317577  0.64636487  0.82885946  1
  Cl  Cl38  1  0.42682423  0.85363513  0.32885946  1
  Cl  Cl39  1  0.92682423  0.14636487  0.17114054  1
  Cl  Cl40  1  0.67666344  0.81724565  0.47648912  1
  Cl  Cl41  1  0.17666344  0.18275435  0.02351088  1
  Cl  Cl42  1  0.82333656  0.31724565  0.52351088  1
  Cl  Cl43  1  0.32333656  0.68275435  0.97648912  1
  Cl  Cl44  1  0.32333656  0.18275435  0.52351088  1
  Cl  Cl45  1  0.82333656  0.81724565  0.97648912  1
  Cl  Cl46  1  0.17666344  0.68275435  0.47648912  1
  Cl  Cl47  1  0.67666344  0.31724565  0.02351088  1
  Cl  Cl48  1  0.71390525  0.87140577  0.23434741  1
  Cl  Cl49  1  0.21390525  0.12859423  0.26565259  1
  Cl  Cl50  1  0.78609475  0.37140577  0.76565259  1
  Cl  Cl51  1  0.28609475  0.62859423  0.73434741  1
  Cl  Cl52  1  0.28609475  0.12859423  0.76565259  1
  Cl  Cl53  1  0.78609475  0.87140577  0.73434741  1
  Cl  Cl54  1  0.21390525  0.62859423  0.23434741  1
  Cl  Cl55  1  0.71390525  0.37140577  0.26565259  1
