# generated using pymatgen
data_La5C2I9
_symmetry_space_group_name_H-M   'P 1'
_cell_length_a   8.14824821
_cell_length_b   10.24888556
_cell_length_c   14.56663969
_cell_angle_alpha   79.45951856
_cell_angle_beta   80.61356540
_cell_angle_gamma   85.26480118
_symmetry_Int_Tables_number   1
_chemical_formula_structural   La5C2I9
_chemical_formula_sum   'La10 C4 I18'
_cell_volume   1178.18346467
_cell_formula_units_Z   2
loop_
 _symmetry_equiv_pos_site_id
 _symmetry_equiv_pos_as_xyz
  1  'x, y, z'
loop_
 _atom_site_type_symbol
 _atom_site_label
 _atom_site_symmetry_multiplicity
 _atom_site_fract_x
 _atom_site_fract_y
 _atom_site_fract_z
 _atom_site_occupancy
  La  La0  1  0.77859266  0.36426636  0.26168174  1
  La  La1  1  0.15881063  0.53114470  0.30252960  1
  La  La2  1  0.23722060  0.33932929  0.08091177  1
  La  La3  1  0.94973364  0.03645339  0.17511884  1
  La  La4  1  0.82391289  0.85377209  0.63969974  1
  La  La5  1  0.22140734  0.63573364  0.73831826  1
  La  La6  1  0.76277940  0.66067071  0.91908823  1
  La  La7  1  0.17608711  0.14622791  0.36030026  1
  La  La8  1  0.84118937  0.46885530  0.69747040  1
  La  La9  1  0.05026636  0.96354661  0.82488116  1
  C  C10  1  0.95883968  0.77579914  0.78259512  1
  C  C11  1  0.09290645  0.34588198  0.24200807  1
  C  C12  1  0.90709355  0.65411802  0.75799193  1
  C  C13  1  0.04116032  0.22420086  0.21740488  1
  I  I14  1  0.24970099  0.86101124  0.27242936  1
  I  I15  1  0.79977520  0.00670569  0.41292442  1
  I  I16  1  0.90533616  0.34995807  0.47376408  1
  I  I17  1  0.46086515  0.84595506  0.80086337  1
  I  I18  1  0.57556830  0.65045533  0.57682424  1
  I  I19  1  0.50611010  0.44557996  0.86505359  1
  I  I20  1  0.20022480  0.99329431  0.58707558  1
  I  I21  1  0.75089578  0.94085435  0.00242998  1
  I  I22  1  0.19234275  0.31766329  0.72786085  1
  I  I23  1  0.09466384  0.65004193  0.52623592  1
  I  I24  1  0.80765725  0.68233671  0.27213915  1
  I  I25  1  0.42443170  0.34954467  0.42317576  1
  I  I26  1  0.24910422  0.05914565  0.99757002  1
  I  I27  1  0.49388990  0.55442004  0.13494641  1
  I  I28  1  0.11935120  0.65743994  0.99926749  1
  I  I29  1  0.88064880  0.34256006  0.00073251  1
  I  I30  1  0.53913485  0.15404494  0.19913663  1
  I  I31  1  0.75029901  0.13898876  0.72757064  1
