# generated using pymatgen
data_Ba3GaP3
_symmetry_space_group_name_H-M   'P 1'
_cell_length_a   10.36178027
_cell_length_b   10.36178027
_cell_length_c   13.11472199
_cell_angle_alpha   90.00000000
_cell_angle_beta   90.00000000
_cell_angle_gamma   141.92936515
_symmetry_Int_Tables_number   1
_chemical_formula_structural   Ba3GaP3
_chemical_formula_sum   'Ba12 Ga4 P12'
_cell_volume   868.26888739
_cell_formula_units_Z   4
loop_
 _symmetry_equiv_pos_site_id
 _symmetry_equiv_pos_as_xyz
  1  'x, y, z'
loop_
 _atom_site_type_symbol
 _atom_site_label
 _atom_site_symmetry_multiplicity
 _atom_site_fract_x
 _atom_site_fract_y
 _atom_site_fract_z
 _atom_site_occupancy
  Ba  Ba0  1  0.82830133  0.82830133  0.34868864  1
  Ba  Ba1  1  0.32830133  0.32830133  0.15131136  1
  Ba  Ba2  1  0.67169867  0.67169867  0.84868864  1
  Ba  Ba3  1  0.17169867  0.17169867  0.65131136  1
  Ba  Ba4  1  0.48579404  0.13486734  0.87034335  1
  Ba  Ba5  1  0.63486734  0.98579404  0.62965665  1
  Ba  Ba6  1  0.01420596  0.36513266  0.37034335  1
  Ba  Ba7  1  0.86513266  0.51420596  0.12965665  1
  Ba  Ba8  1  0.51420596  0.86513266  0.12965665  1
  Ba  Ba9  1  0.36513266  0.01420596  0.37034335  1
  Ba  Ba10  1  0.98579404  0.63486734  0.62965665  1
  Ba  Ba11  1  0.13486734  0.48579404  0.87034335  1
  Ga  Ga12  1  0.08382543  0.91617457  0.00000000  1
  Ga  Ga13  1  0.41617457  0.58382543  0.50000000  1
  Ga  Ga14  1  0.91617457  0.08382543  -0.00000000  1
  Ga  Ga15  1  0.58382543  0.41617457  0.50000000  1
  P  P16  1  0.30404081  0.30404081  0.40593762  1
  P  P17  1  0.80404081  0.80404081  0.09406238  1
  P  P18  1  0.19595919  0.19595919  0.90593762  1
  P  P19  1  0.69595919  0.69595919  0.59406238  1
  P  P20  1  0.84622654  0.53388865  0.38354965  1
  P  P21  1  0.03388865  0.34622654  0.11645035  1
  P  P22  1  0.65377346  0.96611135  0.88354965  1
  P  P23  1  0.46611135  0.15377346  0.61645035  1
  P  P24  1  0.15377346  0.46611135  0.61645035  1
  P  P25  1  0.96611135  0.65377346  0.88354965  1
  P  P26  1  0.34622654  0.03388865  0.11645035  1
  P  P27  1  0.53388865  0.84622654  0.38354965  1
