# generated using pymatgen
data_PbI2
_symmetry_space_group_name_H-M   'P 1'
_cell_length_a   15.03516506
_cell_length_b   15.03516506
_cell_length_c   15.03516606
_cell_angle_alpha   17.72542128
_cell_angle_beta   17.72542128
_cell_angle_gamma   17.72541773
_symmetry_Int_Tables_number   1
_chemical_formula_structural   PbI2
_chemical_formula_sum   'Pb2 I4'
_cell_volume   275.01280845
_cell_formula_units_Z   2
loop_
 _symmetry_equiv_pos_site_id
 _symmetry_equiv_pos_as_xyz
  1  'x, y, z'
loop_
 _atom_site_type_symbol
 _atom_site_label
 _atom_site_symmetry_multiplicity
 _atom_site_fract_x
 _atom_site_fract_y
 _atom_site_fract_z
 _atom_site_occupancy
  Pb  Pb0  1  0.41695335  0.41695335  0.41695335  1
  Pb  Pb1  1  0.58304665  0.58304665  0.58304665  1
  I  I2  1  0.87450457  0.87450457  0.87450457  1
  I  I3  1  0.12549543  0.12549543  0.12549543  1
  I  I4  1  0.70844191  0.70844191  0.70844191  1
  I  I5  1  0.29155809  0.29155809  0.29155809  1
