# generated using pymatgen
data_Pr(AlBr4)3
_symmetry_space_group_name_H-M   'P 1'
_cell_length_a   10.61042192
_cell_length_b   10.61011511
_cell_length_c   18.61485616
_cell_angle_alpha   90.02119352
_cell_angle_beta   89.97837151
_cell_angle_gamma   120.00005254
_symmetry_Int_Tables_number   1
_chemical_formula_structural   Pr(AlBr4)3
_chemical_formula_sum   'Pr3 Al9 Br36'
_cell_volume   1814.85860687
_cell_formula_units_Z   3
loop_
 _symmetry_equiv_pos_site_id
 _symmetry_equiv_pos_as_xyz
  1  'x, y, z'
loop_
 _atom_site_type_symbol
 _atom_site_label
 _atom_site_symmetry_multiplicity
 _atom_site_fract_x
 _atom_site_fract_y
 _atom_site_fract_z
 _atom_site_occupancy
  Pr  Pr0  1  0.26743852  0.26741801  0.00000104  1
  Pr  Pr1  1  -0.00012939  0.73270005  0.66655454  1
  Pr  Pr2  1  0.73270786  -0.00019293  0.33345197  1
  Al  Al3  1  0.36520255  0.66718539  0.05534614  1
  Al  Al4  1  0.63437118  0.30106363  0.27762380  1
  Al  Al5  1  0.30110839  0.63443416  0.72239264  1
  Al  Al6  1  0.69822955  0.33343212  0.61053373  1
  Al  Al7  1  0.09798973  0.99991220  0.83319795  1
  Al  Al8  1  -0.00009153  0.09800202  0.16682293  1
  Al  Al9  1  0.66718972  0.36516157  0.94463054  1
  Al  Al10  1  0.33327695  0.69817987  0.38945352  1
  Al  Al11  1  0.90297789  0.90291338  0.50000713  1
  Br  Br12  1  0.49338238  0.41182681  0.88670079  1
  Br  Br13  1  0.79846873  0.76594419  0.39770180  1
  Br  Br14  1  0.14130525  0.71693724  0.35169705  1
  Br  Br15  1  0.47664065  0.70821949  0.29003773  1
  Br  Br16  1  0.22105563  0.71521040  0.12530725  1
  Br  Br17  1  0.28586977  0.50629250  0.45946874  1
  Br  Br18  1  0.03168116  0.23514389  0.26901719  1
  Br  Br19  1  0.96743209  0.20188112  0.06432879  1
  Br  Br20  1  0.29136808  0.76789981  0.62293421  1
  Br  Br21  1  0.87505962  0.80371181  0.80332698  1
  Br  Br22  1  0.77859289  0.49299264  0.20759073  1
  Br  Br23  1  0.23515147  0.03165278  0.73102482  1
  Br  Br24  1  0.92843880  0.12524456  0.47011826  1
  Br  Br25  1  0.23131413  0.52352438  0.95614656  1
  Br  Br26  1  0.50728149  0.91905122  0.44701944  1
  Br  Br27  1  0.08056238  0.58798835  0.78010660  1
  Br  Br28  1  0.58807313  0.08055126  0.21986928  1
  Br  Br29  1  0.12528485  0.92839027  0.52990624  1
  Br  Br30  1  0.49294641  0.77874798  0.79243480  1
  Br  Br31  1  0.80367207  0.87504910  0.19667202  1
  Br  Br32  1  0.07259981  0.19694863  0.86310650  1
  Br  Br33  1  0.28126786  0.42321570  0.68441095  1
  Br  Br34  1  0.71524945  0.22097393  0.87471528  1
  Br  Br35  1  0.19686181  0.07243617  0.13688033  1
  Br  Br36  1  0.50652917  0.28642461  0.54048952  1
  Br  Br37  1  0.91905375  0.50745091  0.55293152  1
  Br  Br38  1  0.76599083  0.79835841  0.60231768  1
  Br  Br39  1  0.76790578  0.29134386  0.37707260  1
  Br  Br40  1  0.57662885  0.85857462  0.01772054  1
  Br  Br41  1  0.85847879  0.57655603  0.98230644  1
  Br  Br42  1  0.42304056  0.28094819  0.31564303  1
  Br  Br43  1  0.71698940  0.14134960  0.64814973  1
  Br  Br44  1  0.41179223  0.49337884  0.11327916  1
  Br  Br45  1  0.20199720  0.96752083  0.93566705  1
  Br  Br46  1  0.70821835  0.47667643  0.71004108  1
  Br  Br47  1  0.52354079  0.23137196  0.04384139  1
