# generated using pymatgen
data_SeBr
_symmetry_space_group_name_H-M   'P 1'
_cell_length_a   4.29132578
_cell_length_b   4.29132486
_cell_length_c   14.77089558
_cell_angle_alpha   90.00000000
_cell_angle_beta   90.00000000
_cell_angle_gamma   104.53836578
_symmetry_Int_Tables_number   1
_chemical_formula_structural   SeBr
_chemical_formula_sum   'Se4 Br4'
_cell_volume   263.30310781
_cell_formula_units_Z   4
loop_
 _symmetry_equiv_pos_site_id
 _symmetry_equiv_pos_as_xyz
  1  'x, y, z'
loop_
 _atom_site_type_symbol
 _atom_site_label
 _atom_site_symmetry_multiplicity
 _atom_site_fract_x
 _atom_site_fract_y
 _atom_site_fract_z
 _atom_site_occupancy
  Se  Se0  1  0.68746825  0.93665841  0.55004450  1
  Se  Se1  1  0.43665841  0.18746825  0.05004450  1
  Se  Se2  1  0.18746825  0.43665841  0.94995550  1
  Se  Se3  1  0.93665841  0.68746825  0.44995550  1
  Br  Br4  1  0.94187972  0.05919162  0.83488009  1
  Br  Br5  1  0.44187972  0.55919162  0.66511991  1
  Br  Br6  1  0.05919162  0.94187972  0.16511991  1
  Br  Br7  1  0.55919162  0.44187972  0.33488009  1
