# generated using pymatgen
data_V2ZnO6
_symmetry_space_group_name_H-M   'P 1'
_cell_length_a   4.94790215
_cell_length_b   4.94790215
_cell_length_c   6.57367608
_cell_angle_alpha   69.53397399
_cell_angle_beta   69.53397399
_cell_angle_gamma   41.41412717
_symmetry_Int_Tables_number   1
_chemical_formula_structural   V2ZnO6
_chemical_formula_sum   'V2 Zn1 O6'
_cell_volume   98.74081222
_cell_formula_units_Z   1
loop_
 _symmetry_equiv_pos_site_id
 _symmetry_equiv_pos_as_xyz
  1  'x, y, z'
loop_
 _atom_site_type_symbol
 _atom_site_label
 _atom_site_symmetry_multiplicity
 _atom_site_fract_x
 _atom_site_fract_y
 _atom_site_fract_z
 _atom_site_occupancy
  V  V0  1  0.81062628  0.81062628  0.65280172  1
  V  V1  1  0.18937372  0.18937372  0.34719828  1
  Zn  Zn2  1  -0.00000000  -0.00000000  0.00000000  1
  O  O3  1  0.97063413  0.97063413  0.71898130  1
  O  O4  1  0.02936587  0.02936587  0.28101870  1
  O  O5  1  0.65658080  0.65658080  0.89039152  1
  O  O6  1  0.34341920  0.34341920  0.10960848  1
  O  O7  1  0.69185216  0.69185216  0.43546515  1
  O  O8  1  0.30814784  0.30814784  0.56453485  1
