# generated using pymatgen
data_Rb2Sb4S7
_symmetry_space_group_name_H-M   'P 1'
_cell_length_a   7.80225400
_cell_length_b   9.63214190
_cell_length_c   11.53630329
_cell_angle_alpha   99.71864473
_cell_angle_beta   85.43619578
_cell_angle_gamma   102.88700987
_symmetry_Int_Tables_number   1
_chemical_formula_structural   Rb2Sb4S7
_chemical_formula_sum   'Rb4 Sb8 S14'
_cell_volume   832.22118338
_cell_formula_units_Z   2
loop_
 _symmetry_equiv_pos_site_id
 _symmetry_equiv_pos_as_xyz
  1  'x, y, z'
loop_
 _atom_site_type_symbol
 _atom_site_label
 _atom_site_symmetry_multiplicity
 _atom_site_fract_x
 _atom_site_fract_y
 _atom_site_fract_z
 _atom_site_occupancy
  Rb  Rb0  1  0.26668858  0.33070541  0.11209824  1
  Rb  Rb1  1  0.42318961  0.73423713  0.55897919  1
  Rb  Rb2  1  0.57681039  0.26576287  0.44102081  1
  Rb  Rb3  1  0.73331142  0.66929459  0.88790176  1
  Sb  Sb4  1  0.02791396  0.94438377  0.34101224  1
  Sb  Sb5  1  0.16273823  0.43567745  0.81551812  1
  Sb  Sb6  1  0.72911950  0.13746929  0.04718758  1
  Sb  Sb7  1  0.50186273  0.18784230  0.76875149  1
  Sb  Sb8  1  0.27088050  0.86253071  0.95281242  1
  Sb  Sb9  1  0.97208604  0.05561623  0.65898776  1
  Sb  Sb10  1  0.83726177  0.56432255  0.18448188  1
  Sb  Sb11  1  0.49813727  0.81215770  0.23124851  1
  S  S12  1  0.79969521  0.87227066  0.15488135  1
  S  S13  1  0.64325477  0.32827297  0.95098501  1
  S  S14  1  0.44940239  0.43414871  0.71335892  1
  S  S15  1  0.22183156  0.01201698  0.52915846  1
  S  S16  1  0.02218365  0.68805703  0.35166422  1
  S  S17  1  0.35674523  0.67172703  0.04901499  1
  S  S18  1  0.45231880  0.06716037  0.15679833  1
  S  S19  1  0.97781635  0.31194297  0.64833578  1
  S  S20  1  0.54768120  0.93283963  0.84320167  1
  S  S21  1  0.86489366  0.32400091  0.22262654  1
  S  S22  1  0.13510634  0.67599909  0.77737346  1
  S  S23  1  0.77816844  0.98798302  0.47084154  1
  S  S24  1  0.55059761  0.56585129  0.28664108  1
  S  S25  1  0.20030479  0.12772934  0.84511865  1
