# generated using pymatgen
data_Bi2B8O15
_symmetry_space_group_name_H-M   'P 1'
_cell_length_a   22.19585830
_cell_length_b   4.31144573
_cell_length_c   6.46988909
_cell_angle_alpha   74.79295843
_cell_angle_beta   90.00000000
_cell_angle_gamma   90.00000000
_symmetry_Int_Tables_number   1
_chemical_formula_structural   Bi2B8O15
_chemical_formula_sum   'Bi4 B16 O30'
_cell_volume   597.46426520
_cell_formula_units_Z   2
loop_
 _symmetry_equiv_pos_site_id
 _symmetry_equiv_pos_as_xyz
  1  'x, y, z'
loop_
 _atom_site_type_symbol
 _atom_site_label
 _atom_site_symmetry_multiplicity
 _atom_site_fract_x
 _atom_site_fract_y
 _atom_site_fract_z
 _atom_site_occupancy
  Bi  Bi0  1  0.35439949  0.82297100  0.33154476  1
  Bi  Bi1  1  0.85439949  0.17702900  0.66845524  1
  Bi  Bi2  1  0.21602360  0.60606583  0.10775925  1
  Bi  Bi3  1  0.71602360  0.39393417  0.89224075  1
  B  B4  1  0.01100558  0.43763641  0.43108219  1
  B  B5  1  0.51100558  0.56236359  0.56891781  1
  B  B6  1  0.03750196  0.46184862  0.78217246  1
  B  B7  1  0.53750196  0.53815138  0.21782754  1
  B  B8  1  0.10287222  0.69592051  0.48745557  1
  B  B9  1  0.60287222  0.30407949  0.51254443  1
  B  B10  1  0.21313835  0.86615761  0.51659482  1
  B  B11  1  0.71313835  0.13384239  0.48340518  1
  B  B12  1  0.21453850  0.28572819  0.73515279  1
  B  B13  1  0.71453850  0.71427181  0.26484721  1
  B  B14  1  0.85482092  0.43736924  0.08248580  1
  B  B15  1  0.35482092  0.56263076  0.91751420  1
  B  B16  1  0.85247218  0.85761498  0.29946396  1
  B  B17  1  0.35247218  0.14238502  0.70053604  1
  B  B18  1  0.96791978  0.38992873  0.08861123  1
  B  B19  1  0.46791978  0.61007127  0.91138877  1
  O  O20  1  0.00110615  0.34105528  0.64901591  1
  O  O21  1  0.50110615  0.65894472  0.35098409  1
  O  O22  1  0.06041615  0.61952946  0.35096301  1
  O  O23  1  0.56041615  0.38047054  0.64903699  1
  O  O24  1  0.08900504  0.62857622  0.70405983  1
  O  O25  1  0.58900504  0.37142378  0.29594017  1
  O  O26  1  0.15487072  0.82900117  0.40545916  1
  O  O27  1  0.65487072  0.17099883  0.59454084  1
  O  O28  1  0.21468080  0.18312470  0.55346287  1
  O  O29  1  0.71468080  0.81687530  0.44653713  1
  O  O30  1  0.25774334  0.83952150  0.35533862  1
  O  O31  1  0.75774334  0.16047850  0.64466138  1
  O  O32  1  0.20994933  0.10696989  0.94099960  1
  O  O33  1  0.70994933  0.89303011  0.05900040  1
  O  O34  1  0.21874708  0.61358297  0.71802413  1
  O  O35  1  0.71874708  0.38641703  0.28197587  1
  O  O36  1  0.84701865  0.18431856  0.28337507  1
  O  O37  1  0.34701865  0.81568144  0.71662493  1
  O  O38  1  0.85955234  0.68027118  0.50509696  1
  O  O39  1  0.35955234  0.31972882  0.49490304  1
  O  O40  1  0.81252294  0.40900342  0.91599960  1
  O  O41  1  0.31252294  0.59099658  0.08400040  1
  O  O42  1  0.85078629  0.75397340  0.11898237  1
  O  O43  1  0.35078629  0.24602660  0.88101763  1
  O  O44  1  0.91531249  0.40394999  0.98426698  1
  O  O45  1  0.41531249  0.59605001  0.01573302  1
  O  O46  1  0.96863724  0.34801033  0.30803828  1
  O  O47  1  0.46863724  0.65198967  0.69196172  1
  O  O48  1  0.02313988  0.41899457  0.99006300  1
  O  O49  1  0.52313988  0.58100543  0.00993700  1
