# generated using pymatgen
data_SbTe(ClF2)3
_symmetry_space_group_name_H-M   'P 1'
_cell_length_a   6.45774551
_cell_length_b   8.43854243
_cell_length_c   16.78995347
_cell_angle_alpha   90.00000000
_cell_angle_beta   90.00000000
_cell_angle_gamma   90.00000000
_symmetry_Int_Tables_number   1
_chemical_formula_structural   SbTe(ClF2)3
_chemical_formula_sum   'Sb4 Te4 Cl12 F24'
_cell_volume   914.95104420
_cell_formula_units_Z   4
loop_
 _symmetry_equiv_pos_site_id
 _symmetry_equiv_pos_as_xyz
  1  'x, y, z'
loop_
 _atom_site_type_symbol
 _atom_site_label
 _atom_site_symmetry_multiplicity
 _atom_site_fract_x
 _atom_site_fract_y
 _atom_site_fract_z
 _atom_site_occupancy
  Sb  Sb0  1  0.85414229  0.25000000  0.57397832  1
  Sb  Sb1  1  0.35414229  0.75000000  0.92602168  1
  Sb  Sb2  1  0.14585771  0.75000000  0.42602168  1
  Sb  Sb3  1  0.64585771  0.25000000  0.07397832  1
  Te  Te4  1  0.13527948  0.25000000  0.90019101  1
  Te  Te5  1  0.63527948  0.75000000  0.59980899  1
  Te  Te6  1  0.86472052  0.75000000  0.09980899  1
  Te  Te7  1  0.36472052  0.25000000  0.40019101  1
  Cl  Cl8  1  0.59062716  0.44695413  0.36319808  1
  Cl  Cl9  1  0.40937284  0.94695413  0.63680192  1
  Cl  Cl10  1  0.59062716  0.05304587  0.36319808  1
  Cl  Cl11  1  0.09062716  0.94695413  0.13680192  1
  Cl  Cl12  1  0.67130948  0.75000000  0.21417914  1
  Cl  Cl13  1  0.90937284  0.44695413  0.86319808  1
  Cl  Cl14  1  0.82869052  0.75000000  0.71417914  1
  Cl  Cl15  1  0.90937284  0.05304587  0.86319808  1
  Cl  Cl16  1  0.09062716  0.55304587  0.13680192  1
  Cl  Cl17  1  0.40937284  0.55304587  0.63680192  1
  Cl  Cl18  1  0.32869052  0.25000000  0.78582086  1
  Cl  Cl19  1  0.17130948  0.25000000  0.28582086  1
  F  F20  1  0.57707001  0.25000000  0.53228086  1
  F  F21  1  0.75151093  0.25000000  0.67862101  1
  F  F22  1  0.24848907  0.75000000  0.32137899  1
  F  F23  1  0.94710348  0.25000000  0.46718893  1
  F  F24  1  0.55289652  0.25000000  0.96718893  1
  F  F25  1  0.74848907  0.25000000  0.17862101  1
  F  F26  1  0.63144207  0.75000000  0.89141670  1
  F  F27  1  0.34725803  0.52372390  0.92753521  1
  F  F28  1  0.25151093  0.75000000  0.82137899  1
  F  F29  1  0.15274197  0.52372390  0.42753521  1
  F  F30  1  0.36855793  0.25000000  0.10858330  1
  F  F31  1  0.05289652  0.75000000  0.53281107  1
  F  F32  1  0.86855793  0.75000000  0.39141670  1
  F  F33  1  0.07707001  0.75000000  0.96771914  1
  F  F34  1  0.84725803  0.47627610  0.57246479  1
  F  F35  1  0.44710348  0.75000000  0.03281107  1
  F  F36  1  0.84725803  0.02372390  0.57246479  1
  F  F37  1  0.65274197  0.02372390  0.07246479  1
  F  F38  1  0.92292999  0.25000000  0.03228086  1
  F  F39  1  0.34725803  0.97627610  0.92753521  1
  F  F40  1  0.65274197  0.47627610  0.07246479  1
  F  F41  1  0.15274197  0.97627610  0.42753521  1
  F  F42  1  0.13144207  0.25000000  0.60858330  1
  F  F43  1  0.42292999  0.75000000  0.46771914  1
