# generated using pymatgen
data_Sm3Si2S8Br
_symmetry_space_group_name_H-M   'P 1'
_cell_length_a   8.71406821
_cell_length_b   8.71406821
_cell_length_c   10.85587008
_cell_angle_alpha   82.45494462
_cell_angle_beta   82.45494462
_cell_angle_gamma   51.88202524
_symmetry_Int_Tables_number   1
_chemical_formula_structural   Sm3Si2S8Br
_chemical_formula_sum   'Sm6 Si4 S16 Br2'
_cell_volume   641.59156253
_cell_formula_units_Z   2
loop_
 _symmetry_equiv_pos_site_id
 _symmetry_equiv_pos_as_xyz
  1  'x, y, z'
loop_
 _atom_site_type_symbol
 _atom_site_label
 _atom_site_symmetry_multiplicity
 _atom_site_fract_x
 _atom_site_fract_y
 _atom_site_fract_z
 _atom_site_occupancy
  Sm  Sm0  1  0.67885162  0.92543313  0.68296246  1
  Sm  Sm1  1  0.38164523  0.61835477  0.75000000  1
  Sm  Sm2  1  0.61835477  0.38164523  0.25000000  1
  Sm  Sm3  1  0.32114838  0.07456687  0.31703754  1
  Sm  Sm4  1  0.92543313  0.67885162  0.18296246  1
  Sm  Sm5  1  0.07456687  0.32114838  0.81703754  1
  Si  Si6  1  0.69412546  0.62367980  0.47280527  1
  Si  Si7  1  0.37632020  0.30587454  0.02719473  1
  Si  Si8  1  0.62367980  0.69412546  0.97280527  1
  Si  Si9  1  0.30587454  0.37632020  0.52719473  1
  S  S10  1  0.59505854  0.27134939  0.54232814  1
  S  S11  1  0.25817134  0.44878279  0.33568072  1
  S  S12  1  0.28523213  0.14742999  0.58603695  1
  S  S13  1  0.14742999  0.28523213  0.08603695  1
  S  S14  1  0.39268058  0.89554077  0.85688459  1
  S  S15  1  0.85257001  0.71476787  0.91396305  1
  S  S16  1  0.44878279  0.25817134  0.83568072  1
  S  S17  1  0.89554077  0.39268058  0.35688459  1
  S  S18  1  0.55121721  0.74182866  0.16431928  1
  S  S19  1  0.72865061  0.40494146  0.95767186  1
  S  S20  1  0.74182866  0.55121721  0.66431928  1
  S  S21  1  0.71476787  0.85257001  0.41396305  1
  S  S22  1  0.10445923  0.60731942  0.64311541  1
  S  S23  1  0.40494146  0.72865061  0.45767186  1
  S  S24  1  0.27134939  0.59505854  0.04232814  1
  S  S25  1  0.60731942  0.10445923  0.14311541  1
  Br  Br26  1  0.99188692  0.00811308  0.75000000  1
  Br  Br27  1  0.00811308  0.99188692  0.25000000  1
