# generated using pymatgen
data_K2ZrS4
_symmetry_space_group_name_H-M   'P 1'
_cell_length_a   6.76702227
_cell_length_b   9.50905622
_cell_length_c   23.12615585
_cell_angle_alpha   90.00000000
_cell_angle_beta   90.00000000
_cell_angle_gamma   90.00000000
_symmetry_Int_Tables_number   1
_chemical_formula_structural   K2ZrS4
_chemical_formula_sum   'K16 Zr8 S32'
_cell_volume   1488.12176580
_cell_formula_units_Z   8
loop_
 _symmetry_equiv_pos_site_id
 _symmetry_equiv_pos_as_xyz
  1  'x, y, z'
loop_
 _atom_site_type_symbol
 _atom_site_label
 _atom_site_symmetry_multiplicity
 _atom_site_fract_x
 _atom_site_fract_y
 _atom_site_fract_z
 _atom_site_occupancy
  K  K0  1  0.06599432  0.06910039  0.19852918  1
  K  K1  1  0.56599432  0.43089961  0.19852918  1
  K  K2  1  0.20329513  0.85808462  0.96833363  1
  K  K3  1  0.20329513  0.35808462  0.53166637  1
  K  K4  1  0.79670487  0.64191538  0.46833363  1
  K  K5  1  0.56599432  0.93089961  0.30147082  1
  K  K6  1  0.43400568  0.06910039  0.69852918  1
  K  K7  1  0.43400568  0.56910039  0.80147082  1
  K  K8  1  0.70329513  0.14191538  0.53166637  1
  K  K9  1  0.93400568  0.43089961  0.69852918  1
  K  K10  1  0.93400568  0.93089961  0.80147082  1
  K  K11  1  0.06599432  0.56910039  0.30147082  1
  K  K12  1  0.29670487  0.35808462  0.03166637  1
  K  K13  1  0.70329513  0.64191538  0.96833363  1
  K  K14  1  0.29670487  0.85808462  0.46833363  1
  K  K15  1  0.79670487  0.14191538  0.03166637  1
  Zr  Zr16  1  0.55346316  0.82943907  0.13149928  1
  Zr  Zr17  1  0.44653684  0.17056093  0.86850072  1
  Zr  Zr18  1  0.05346316  0.67056093  0.13149928  1
  Zr  Zr19  1  0.94653684  0.32943907  0.86850072  1
  Zr  Zr20  1  0.44653684  0.67056093  0.63149928  1
  Zr  Zr21  1  0.94653684  0.82943907  0.63149928  1
  Zr  Zr22  1  0.55346316  0.32943907  0.36850072  1
  Zr  Zr23  1  0.05346316  0.17056093  0.36850072  1
  S  S24  1  0.42774287  0.90874446  0.83903487  1
  S  S25  1  0.42774287  0.40874446  0.66096513  1
  S  S26  1  0.86540377  0.33281888  0.43429750  1
  S  S27  1  0.61226197  0.94720828  0.91042891  1
  S  S28  1  0.70937490  0.23118975  0.79497738  1
  S  S29  1  0.88773803  0.94720828  0.41042891  1
  S  S30  1  0.88773803  0.44720828  0.08957109  1
  S  S31  1  0.20937490  0.76881025  0.70502262  1
  S  S32  1  0.70937490  0.73118975  0.70502262  1
  S  S33  1  0.86540377  0.83281888  0.06570250  1
  S  S34  1  0.92774287  0.09125554  0.66096513  1
  S  S35  1  0.38773803  0.05279172  0.08957109  1
  S  S36  1  0.57225713  0.09125554  0.16096513  1
  S  S37  1  0.13459623  0.66718112  0.56570250  1
  S  S38  1  0.20937490  0.26881025  0.79497738  1
  S  S39  1  0.79062510  0.23118975  0.29497738  1
  S  S40  1  0.07225713  0.90874446  0.33903487  1
  S  S41  1  0.11226197  0.55279172  0.91042891  1
  S  S42  1  0.36540377  0.66718112  0.06570250  1
  S  S43  1  0.63459623  0.33281888  0.93429750  1
  S  S44  1  0.61226197  0.44720828  0.58957109  1
  S  S45  1  0.38773803  0.55279172  0.41042891  1
  S  S46  1  0.36540377  0.16718112  0.43429750  1
  S  S47  1  0.79062510  0.73118975  0.20502262  1
  S  S48  1  0.92774287  0.59125554  0.83903487  1
  S  S49  1  0.29062510  0.76881025  0.20502262  1
  S  S50  1  0.57225713  0.59125554  0.33903487  1
  S  S51  1  0.29062510  0.26881025  0.29497738  1
  S  S52  1  0.07225713  0.40874446  0.16096513  1
  S  S53  1  0.63459623  0.83281888  0.56570250  1
  S  S54  1  0.13459623  0.16718112  0.93429750  1
  S  S55  1  0.11226197  0.05279172  0.58957109  1
