# generated using pymatgen
data_ZnS
_symmetry_space_group_name_H-M   'P 1'
_cell_length_a   3.80800408
_cell_length_b   3.80800486
_cell_length_c   56.04510797
_cell_angle_alpha   90.00000000
_cell_angle_beta   90.00000000
_cell_angle_gamma   120.00000206
_symmetry_Int_Tables_number   1
_chemical_formula_structural   ZnS
_chemical_formula_sum   'Zn18 S18'
_cell_volume   703.82263896
_cell_formula_units_Z   18
loop_
 _symmetry_equiv_pos_site_id
 _symmetry_equiv_pos_as_xyz
  1  'x, y, z'
loop_
 _atom_site_type_symbol
 _atom_site_label
 _atom_site_symmetry_multiplicity
 _atom_site_fract_x
 _atom_site_fract_y
 _atom_site_fract_z
 _atom_site_occupancy
  Zn  Zn0  1  -0.00000000  0.00000000  0.16667559  1
  Zn  Zn1  1  0.33333300  0.66666700  0.22223347  1
  Zn  Zn2  1  0.33333300  0.66666700  0.72221655  1
  Zn  Zn3  1  0.66666700  0.33333300  0.27776595  1
  Zn  Zn4  1  0.66666700  0.33333300  0.77778574  1
  Zn  Zn5  1  0.33333300  0.66666700  0.55560589  1
  Zn  Zn6  1  0.00000000  0.00000000  0.66667763  1
  Zn  Zn7  1  0.33333300  0.66666700  0.05557597  1
  Zn  Zn8  1  0.66666700  0.33333300  0.61112656  1
  Zn  Zn9  1  0.66666700  0.33333300  0.11112126  1
  Zn  Zn10  1  0.33333300  0.66666700  0.44444006  1
  Zn  Zn11  1  0.66666700  0.33333300  0.38894099  1
  Zn  Zn12  1  0.66666700  0.33333300  0.94445671  1
  Zn  Zn13  1  0.00000000  0.00000000  0.33334012  1
  Zn  Zn14  1  0.33333300  0.66666700  0.83338422  1
  Zn  Zn15  1  -0.00000000  0.00000000  0.00004525  1
  Zn  Zn16  1  0.00000000  0.00000000  0.88888722  1
  Zn  Zn17  1  -0.00000000  -0.00000000  0.50001049  1
  S  S18  1  0.66666700  0.33333300  0.98613613  1
  S  S19  1  -0.00000000  0.00000000  0.04166560  1
  S  S20  1  0.66666700  0.33333300  0.15275947  1
  S  S21  1  0.33333300  0.66666700  0.09721205  1
  S  S22  1  0.33333300  0.66666700  0.76382847  1
  S  S23  1  -0.00000000  0.00000000  0.54169834  1
  S  S24  1  -0.00000000  0.00000000  0.70831731  1
  S  S25  1  0.66666700  0.33333300  0.81947039  1
  S  S26  1  -0.00000000  0.00000000  0.37503073  1
  S  S27  1  0.66666700  0.33333300  0.31937837  1
  S  S28  1  0.00000000  0.00000000  0.93048932  1
  S  S29  1  0.33333300  0.66666700  0.59722150  1
  S  S30  1  0.66666700  0.33333300  0.65276351  1
  S  S31  1  0.33333300  0.66666700  0.26386794  1
  S  S32  1  0.66666700  0.33333300  0.43055345  1
  S  S33  1  -0.00000000  0.00000000  0.20831876  1
  S  S34  1  0.33333300  0.66666700  0.87499149  1
  S  S35  1  0.33333300  0.66666700  0.48605353  1
