# generated using pymatgen
data_Te2PdBr6
_symmetry_space_group_name_H-M   'P 1'
_cell_length_a   9.32595900
_cell_length_b   17.11217800
_cell_length_c   19.60106936
_cell_angle_alpha   64.89518485
_cell_angle_beta   90.00000000
_cell_angle_gamma   90.00000000
_symmetry_Int_Tables_number   1
_chemical_formula_structural   Te2PdBr6
_chemical_formula_sum   'Te16 Pd8 Br48'
_cell_volume   2832.58472020
_cell_formula_units_Z   8
loop_
 _symmetry_equiv_pos_site_id
 _symmetry_equiv_pos_as_xyz
  1  'x, y, z'
loop_
 _atom_site_type_symbol
 _atom_site_label
 _atom_site_symmetry_multiplicity
 _atom_site_fract_x
 _atom_site_fract_y
 _atom_site_fract_z
 _atom_site_occupancy
  Te  Te0  1  0.65344000  0.12261800  0.35926400  1
  Te  Te1  1  0.71012200  0.11086000  0.54977800  1
  Te  Te2  1  0.21012200  0.38914000  0.95022200  1
  Te  Te3  1  0.28987800  0.88914000  0.45022200  1
  Te  Te4  1  0.78987800  0.61086000  0.04977800  1
  Te  Te5  1  0.13741800  0.51301500  0.35564400  1
  Te  Te6  1  0.15344000  0.37738200  0.14073600  1
  Te  Te7  1  0.22127300  0.34598700  0.54649600  1
  Te  Te8  1  0.34656000  0.87738200  0.64073600  1
  Te  Te9  1  0.77872700  0.65401300  0.45350400  1
  Te  Te10  1  0.84656000  0.62261800  0.85926400  1
  Te  Te11  1  0.86258200  0.48698500  0.64435600  1
  Te  Te12  1  0.27872700  0.84598700  0.04649600  1
  Te  Te13  1  0.72127300  0.15401300  0.95350400  1
  Te  Te14  1  0.63741800  0.98698500  0.14435600  1
  Te  Te15  1  0.36258200  0.01301500  0.85564400  1
  Pd  Pd16  1  0.83579200  0.50360900  0.99360800  1
  Pd  Pd17  1  0.16342300  0.50661000  0.48761900  1
  Pd  Pd18  1  0.33657700  0.00661000  0.98761900  1
  Pd  Pd19  1  0.16420800  0.49639100  0.00639200  1
  Pd  Pd20  1  0.66342300  0.99339000  0.01238100  1
  Pd  Pd21  1  0.33579200  0.99639100  0.50639200  1
  Pd  Pd22  1  0.66420800  0.00360900  0.49360800  1
  Pd  Pd23  1  0.83657700  0.49339000  0.51238100  1
  Br  Br24  1  0.51544200  0.64334600  0.49130300  1
  Br  Br25  1  0.66462700  0.14501600  0.12643600  1
  Br  Br26  1  0.10557700  0.66444800  0.39855500  1
  Br  Br27  1  0.82073500  0.76514000  0.87362800  1
  Br  Br28  1  0.12120400  0.57215100  0.09351600  1
  Br  Br29  1  0.89442300  0.33555200  0.60144500  1
  Br  Br30  1  0.39585800  0.55418700  0.30955000  1
  Br  Br31  1  0.33537300  0.85498400  0.87356400  1
  Br  Br32  1  0.17926500  0.23486000  0.12637200  1
  Br  Br33  1  0.17546800  0.53163100  0.60470900  1
  Br  Br34  1  0.67926500  0.26514000  0.37362800  1
  Br  Br35  1  0.87879600  0.42784900  0.90648400  1
  Br  Br36  1  0.74228500  0.03229300  0.69127800  1
  Br  Br37  1  0.41775700  0.37922400  0.17802400  1
  Br  Br38  1  0.10414200  0.05418700  0.80955000  1
  Br  Br39  1  0.33667900  0.13236300  0.38646700  1
  Br  Br40  1  0.77645400  0.20343600  0.81521500  1
  Br  Br41  1  0.32073500  0.73486000  0.62637200  1
  Br  Br42  1  0.83667900  0.36763700  0.11353300  1
  Br  Br43  1  0.32453200  0.03163100  0.10470900  1
  Br  Br44  1  0.16462700  0.35498400  0.37356400  1
  Br  Br45  1  0.48455800  0.35665400  0.50869700  1
  Br  Br46  1  0.27645400  0.29656400  0.68478500  1
  Br  Br47  1  0.60414200  0.44581300  0.69045000  1
  Br  Br48  1  0.75771500  0.53229300  0.19127800  1
  Br  Br49  1  0.66332100  0.86763700  0.61353300  1
  Br  Br50  1  0.97857500  0.13116900  0.52399200  1
  Br  Br51  1  0.82453200  0.46836900  0.39529100  1
  Br  Br52  1  0.89585800  0.94581300  0.19045000  1
  Br  Br53  1  0.52142500  0.63116900  0.02399200  1
  Br  Br54  1  0.37879600  0.07215100  0.59351600  1
  Br  Br55  1  0.72354600  0.70343600  0.31521500  1
  Br  Br56  1  0.22354600  0.79656400  0.18478500  1
  Br  Br57  1  0.83537300  0.64501600  0.62643600  1
  Br  Br58  1  0.47857500  0.36883100  0.97600800  1
  Br  Br59  1  0.08224300  0.87922400  0.67802400  1
  Br  Br60  1  0.91775700  0.12077600  0.32197600  1
  Br  Br61  1  0.24228500  0.46770700  0.80872200  1
  Br  Br62  1  0.60557700  0.83555200  0.10144500  1
  Br  Br63  1  0.16332100  0.63236300  0.88646700  1
  Br  Br64  1  0.62120400  0.92784900  0.40648400  1
  Br  Br65  1  0.67546800  0.96836900  0.89529100  1
  Br  Br66  1  0.25771500  0.96770700  0.30872200  1
  Br  Br67  1  0.01544200  0.85665400  0.00869700  1
  Br  Br68  1  0.39442300  0.16444800  0.89855500  1
  Br  Br69  1  0.58224300  0.62077600  0.82197600  1
  Br  Br70  1  0.02142500  0.86883100  0.47600800  1
  Br  Br71  1  0.98455800  0.14334600  0.99130300  1
