# generated using pymatgen
data_CdI2
_symmetry_space_group_name_H-M   'P 1'
_cell_length_a   4.28777326
_cell_length_b   4.28777247
_cell_length_c   71.65407091
_cell_angle_alpha   90.00000000
_cell_angle_beta   90.00000000
_cell_angle_gamma   119.99999810
_symmetry_Int_Tables_number   1
_chemical_formula_structural   CdI2
_chemical_formula_sum   'Cd10 I20'
_cell_volume   1140.86708925
_cell_formula_units_Z   10
loop_
 _symmetry_equiv_pos_site_id
 _symmetry_equiv_pos_as_xyz
  1  'x, y, z'
loop_
 _atom_site_type_symbol
 _atom_site_label
 _atom_site_symmetry_multiplicity
 _atom_site_fract_x
 _atom_site_fract_y
 _atom_site_fract_z
 _atom_site_occupancy
  Cd  Cd0  1  0.66666700  0.33333300  0.22463374  1
  Cd  Cd1  1  -0.00000000  0.00000000  0.72531069  1
  Cd  Cd2  1  -0.00000000  0.00000000  0.92531684  1
  Cd  Cd3  1  0.66666700  0.33333300  0.62516325  1
  Cd  Cd4  1  -0.00000000  0.00000000  0.32464788  1
  Cd  Cd5  1  -0.00000000  0.00000000  0.52465192  1
  Cd  Cd6  1  0.66666700  0.33333300  0.42464289  1
  Cd  Cd7  1  -0.00000000  0.00000000  0.12504987  1
  Cd  Cd8  1  -0.00000000  0.00000000  0.82541507  1
  Cd  Cd9  1  0.66666700  0.33333300  0.02530850  1
  I  I10  1  -0.00000000  -0.00000000  0.20060844  1
  I  I11  1  0.33333300  0.66666700  0.44864176  1
  I  I12  1  0.33333300  0.66666700  0.34865039  1
  I  I13  1  0.66666700  0.33333300  0.80138309  1
  I  I14  1  0.66666700  0.33333300  0.90135592  1
  I  I15  1  0.33333300  0.66666700  0.94924369  1
  I  I16  1  0.00000000  -0.00000000  0.60105330  1
  I  I17  1  0.66666700  0.33333300  0.70135407  1
  I  I18  1  -0.00000000  0.00000000  0.40060937  1
  I  I19  1  0.66666700  0.33333300  0.10103380  1
  I  I20  1  0.33333300  0.66666700  0.04922786  1
  I  I21  1  0.66666700  0.33333300  0.30060749  1
  I  I22  1  -0.00000000  0.00000000  0.00135572  1
  I  I23  1  0.33333300  0.66666700  0.54865012  1
  I  I24  1  0.33333300  0.66666700  0.14898814  1
  I  I25  1  0.33333300  0.66666700  0.24863022  1
  I  I26  1  0.66666700  0.33333300  0.50060842  1
  I  I27  1  0.33333300  0.66666700  0.84943736  1
  I  I28  1  0.33333300  0.66666700  0.64919374  1
  I  I29  1  0.33333300  0.66666700  0.74922747  1
