# generated using pymatgen
data_Pr3S3N
_symmetry_space_group_name_H-M   'P 1'
_cell_length_a   4.07289006
_cell_length_b   12.31056847
_cell_length_c   13.23033682
_cell_angle_alpha   90.00000000
_cell_angle_beta   90.00000000
_cell_angle_gamma   90.00000000
_symmetry_Int_Tables_number   1
_chemical_formula_structural   Pr3S3N
_chemical_formula_sum   'Pr12 S12 N4'
_cell_volume   663.36368957
_cell_formula_units_Z   4
loop_
 _symmetry_equiv_pos_site_id
 _symmetry_equiv_pos_as_xyz
  1  'x, y, z'
loop_
 _atom_site_type_symbol
 _atom_site_label
 _atom_site_symmetry_multiplicity
 _atom_site_fract_x
 _atom_site_fract_y
 _atom_site_fract_z
 _atom_site_occupancy
  Pr  Pr0  1  0.25000000  0.08413910  0.37256044  1
  Pr  Pr1  1  0.25000000  0.04044484  0.85072788  1
  Pr  Pr2  1  0.75000000  0.95955516  0.14927212  1
  Pr  Pr3  1  0.25000000  0.72263353  0.36681499  1
  Pr  Pr4  1  0.25000000  0.58413910  0.12743956  1
  Pr  Pr5  1  0.75000000  0.77736647  0.86681499  1
  Pr  Pr6  1  0.25000000  0.54044484  0.64927212  1
  Pr  Pr7  1  0.75000000  0.45955516  0.35072788  1
  Pr  Pr8  1  0.75000000  0.41586090  0.87256044  1
  Pr  Pr9  1  0.25000000  0.22263353  0.13318501  1
  Pr  Pr10  1  0.75000000  0.27736647  0.63318501  1
  Pr  Pr11  1  0.75000000  0.91586090  0.62743956  1
  S  S12  1  0.25000000  0.86028591  0.99662377  1
  S  S13  1  0.75000000  0.63971409  0.49662377  1
  S  S14  1  0.25000000  0.36028591  0.50337623  1
  S  S15  1  0.75000000  0.73063980  0.19827080  1
  S  S16  1  0.75000000  0.41928155  0.10704973  1
  S  S17  1  0.75000000  0.13971409  0.00337623  1
  S  S18  1  0.75000000  0.91928155  0.39295027  1
  S  S19  1  0.25000000  0.26936020  0.80172920  1
  S  S20  1  0.75000000  0.23063980  0.30172920  1
  S  S21  1  0.25000000  0.76936020  0.69827080  1
  S  S22  1  0.25000000  0.58071845  0.89295027  1
  S  S23  1  0.25000000  0.08071845  0.60704973  1
  N  N24  1  0.25000000  0.04693379  0.20190535  1
  N  N25  1  0.25000000  0.54693379  0.29809465  1
  N  N26  1  0.75000000  0.95306621  0.79809465  1
  N  N27  1  0.75000000  0.45306621  0.70190535  1
