# generated using pymatgen
data_Ba(CuS)2
_symmetry_space_group_name_H-M   'P 1'
_cell_length_a   4.03982642
_cell_length_b   9.24482989
_cell_length_c   10.38927510
_cell_angle_alpha   90.00000000
_cell_angle_beta   90.00000000
_cell_angle_gamma   90.00000000
_symmetry_Int_Tables_number   1
_chemical_formula_structural   Ba(CuS)2
_chemical_formula_sum   'Ba4 Cu8 S8'
_cell_volume   388.01353531
_cell_formula_units_Z   4
loop_
 _symmetry_equiv_pos_site_id
 _symmetry_equiv_pos_as_xyz
  1  'x, y, z'
loop_
 _atom_site_type_symbol
 _atom_site_label
 _atom_site_symmetry_multiplicity
 _atom_site_fract_x
 _atom_site_fract_y
 _atom_site_fract_z
 _atom_site_occupancy
  Ba  Ba0  1  0.75000000  0.26030115  0.67585169  1
  Ba  Ba1  1  0.25000000  0.73969885  0.32414831  1
  Ba  Ba2  1  0.75000000  0.76030115  0.82414831  1
  Ba  Ba3  1  0.25000000  0.23969885  0.17585169  1
  Cu  Cu4  1  0.25000000  0.08392632  0.45757902  1
  Cu  Cu5  1  0.75000000  0.91607368  0.54242098  1
  Cu  Cu6  1  0.25000000  0.58392632  0.04242098  1
  Cu  Cu7  1  0.75000000  0.41607368  0.95757902  1
  Cu  Cu8  1  0.25000000  0.55602064  0.61405175  1
  Cu  Cu9  1  0.75000000  0.44397936  0.38594825  1
  Cu  Cu10  1  0.25000000  0.05602064  0.88594825  1
  Cu  Cu11  1  0.75000000  0.94397936  0.11405175  1
  S  S12  1  0.75000000  0.15571701  0.95839189  1
  S  S13  1  0.25000000  0.84428299  0.04160811  1
  S  S14  1  0.75000000  0.65571701  0.54160811  1
  S  S15  1  0.25000000  0.34428299  0.45839189  1
  S  S16  1  0.25000000  0.98090613  0.66623574  1
  S  S17  1  0.75000000  0.01909387  0.33376426  1
  S  S18  1  0.25000000  0.48090613  0.83376426  1
  S  S19  1  0.75000000  0.51909387  0.16623574  1
