# generated using pymatgen
data_C
_symmetry_space_group_name_H-M   'P 1'
_cell_length_a   4.19454202
_cell_length_b   4.19454180
_cell_length_c   4.19454197
_cell_angle_alpha   109.47122626
_cell_angle_beta   109.47122522
_cell_angle_gamma   109.47121702
_symmetry_Int_Tables_number   1
_chemical_formula_structural   C
_chemical_formula_sum   C8
_cell_volume   56.81090330
_cell_formula_units_Z   8
loop_
 _symmetry_equiv_pos_site_id
 _symmetry_equiv_pos_as_xyz
  1  'x, y, z'
loop_
 _atom_site_type_symbol
 _atom_site_label
 _atom_site_symmetry_multiplicity
 _atom_site_fract_x
 _atom_site_fract_y
 _atom_site_fract_z
 _atom_site_occupancy
  C  C0  1  -0.00000000  0.32530696  -0.00000000  1
  C  C1  1  0.67469304  0.67469304  0.67469304  1
  C  C2  1  -0.00000000  -0.00000000  0.32530696  1
  C  C3  1  0.32530696  0.00000000  -0.00000000  1
  C  C4  1  0.00000000  0.00000000  0.67469304  1
  C  C5  1  0.32530696  0.32530696  0.32530696  1
  C  C6  1  0.00000000  0.67469304  0.00000000  1
  C  C7  1  0.67469304  -0.00000000  0.00000000  1
