# generated using pymatgen
data_SrGeO3
_symmetry_space_group_name_H-M   'P 1'
_cell_length_a   8.65213930
_cell_length_b   9.94357572
_cell_length_c   11.16756590
_cell_angle_alpha   73.90493086
_cell_angle_beta   89.93632227
_cell_angle_gamma   77.98048307
_symmetry_Int_Tables_number   1
_chemical_formula_structural   SrGeO3
_chemical_formula_sum   'Sr12 Ge12 O36'
_cell_volume   901.24352955
_cell_formula_units_Z   12
loop_
 _symmetry_equiv_pos_site_id
 _symmetry_equiv_pos_as_xyz
  1  'x, y, z'
loop_
 _atom_site_type_symbol
 _atom_site_label
 _atom_site_symmetry_multiplicity
 _atom_site_fract_x
 _atom_site_fract_y
 _atom_site_fract_z
 _atom_site_occupancy
  Sr  Sr0  1  0.60057537  0.64905006  0.51606155  1
  Sr  Sr1  1  0.74884321  0.00211870  0.50893504  1
  Sr  Sr2  1  0.91574296  0.35101790  0.33737035  1
  Sr  Sr3  1  0.92441951  0.34245859  0.98523819  1
  Sr  Sr4  1  0.56719771  0.64790130  0.15604268  1
  Sr  Sr5  1  0.39942463  0.35094994  0.48393845  1
  Sr  Sr6  1  0.25181857  0.00205090  0.98882879  1
  Sr  Sr7  1  0.43280229  0.35209870  0.84395732  1
  Sr  Sr8  1  0.25115679  0.99788130  0.49106496  1
  Sr  Sr9  1  0.08425704  0.64898210  0.66262965  1
  Sr  Sr10  1  0.74818143  0.99794910  0.01117121  1
  Sr  Sr11  1  0.07558049  0.65754141  0.01476181  1
  Ge  Ge12  1  0.24541544  0.70517998  0.28953980  1
  Ge  Ge13  1  0.89897610  0.70383728  0.35908889  1
  Ge  Ge14  1  0.74070778  0.70240933  0.86162913  1
  Ge  Ge15  1  0.75458456  0.29482002  0.71046020  1
  Ge  Ge16  1  0.10102490  0.29616272  0.64091211  1
  Ge  Ge17  1  0.60658792  0.29178124  0.21609843  1
  Ge  Ge18  1  0.50348276  0.99481475  0.75094126  1
  Ge  Ge19  1  0.39341208  0.70821876  0.78390157  1
  Ge  Ge20  1  0.25929222  0.29759067  0.13837087  1
  Ge  Ge21  1  0.00342154  0.99383049  0.25115153  1
  Ge  Ge22  1  0.99657846  0.00616951  0.74884847  1
  Ge  Ge23  1  0.49651724  0.00518525  0.24905874  1
  O  O24  1  0.41010257  0.39189925  0.15652068  1
  O  O25  1  0.25619274  0.74053883  0.12906910  1
  O  O26  1  0.73193767  0.39794606  0.14021580  1
  O  O27  1  0.22834484  0.39779391  0.67035807  1
  O  O28  1  0.26806233  0.60205394  0.85978420  1
  O  O29  1  0.81458789  0.12861898  0.67396224  1
  O  O30  1  0.04529177  0.91268437  0.64106096  1
  O  O31  1  0.68522626  0.86769653  0.74038564  1
  O  O32  1  0.09783591  0.60587868  0.35365482  1
  O  O33  1  0.00532486  0.08476521  0.09635343  1
  O  O34  1  0.99467514  0.91523479  0.90364657  1
  O  O35  1  0.45788909  0.08554241  0.59633677  1
  O  O36  1  0.57723761  0.39687994  0.63470524  1
  O  O37  1  0.31477374  0.13230347  0.25961436  1
  O  O38  1  0.75079278  0.73921391  0.00402237  1
  O  O39  1  0.18541211  0.87138102  0.32603776  1
  O  O40  1  0.07966829  0.40404829  0.15508501  1
  O  O41  1  0.37659312  0.87261275  0.82286300  1
  O  O42  1  0.63211109  0.26312763  0.37576490  1
  O  O43  1  0.95470823  0.08731563  0.35893904  1
  O  O44  1  0.92033171  0.59595171  0.84491499  1
  O  O45  1  0.24920722  0.26078609  0.99597763  1
  O  O46  1  0.11674598  0.13230896  0.76182306  1
  O  O47  1  0.86625415  0.74010848  0.50129748  1
  O  O48  1  0.62340688  0.12738725  0.17713700  1
  O  O49  1  0.49638755  0.91329753  0.13965206  1
  O  O50  1  0.90216409  0.39412132  0.64634518  1
  O  O51  1  0.77165516  0.60220609  0.32964193  1
  O  O52  1  0.13374585  0.25989152  0.49870252  1
  O  O53  1  0.36788891  0.73687237  0.62423510  1
  O  O54  1  0.42276239  0.60312006  0.36529476  1
  O  O55  1  0.54211091  0.91445759  0.40366323  1
  O  O56  1  0.58989743  0.60810075  0.84347932  1
  O  O57  1  0.74380726  0.25946117  0.87093090  1
  O  O58  1  0.50361245  0.08670247  0.86034794  1
  O  O59  1  0.88325402  0.86769104  0.23817694  1
