# generated using pymatgen
data_Li6Br3N
_symmetry_space_group_name_H-M   'P 1'
_cell_length_a   13.85012043
_cell_length_b   13.85001117
_cell_length_c   13.85024856
_cell_angle_alpha   131.51011630
_cell_angle_beta   131.11005428
_cell_angle_gamma   71.32241573
_symmetry_Int_Tables_number   1
_chemical_formula_structural   Li6Br3N
_chemical_formula_sum   'Li48 Br24 N8'
_cell_volume   1467.24669495
_cell_formula_units_Z   8
loop_
 _symmetry_equiv_pos_site_id
 _symmetry_equiv_pos_as_xyz
  1  'x, y, z'
loop_
 _atom_site_type_symbol
 _atom_site_label
 _atom_site_symmetry_multiplicity
 _atom_site_fract_x
 _atom_site_fract_y
 _atom_site_fract_z
 _atom_site_occupancy
  Li  Li0  1  0.33619811  0.37583038  0.82779978  1
  Li  Li1  1  0.54928666  0.01126909  0.17355982  1
  Li  Li2  1  0.42338347  0.64214642  0.99433938  1
  Li  Li3  1  0.16375544  0.99159291  0.03959003  1
  Li  Li4  1  0.04932048  0.87577806  0.53809576  1
  Li  Li5  1  0.51502330  0.54562042  0.67488090  1
  Li  Li6  1  0.87885788  0.33379305  0.32064779  1
  Li  Li7  1  0.48686551  0.44179427  0.82068591  1
  Li  Li8  1  0.87074612  0.04562181  0.53059448  1
  Li  Li9  1  0.64781424  0.14214043  0.71878044  1
  Li  Li10  1  0.51313512  0.55820588  0.17931527  1
  Li  Li11  1  0.45071517  0.98872932  0.82642996  1
  Li  Li12  1  0.63870178  0.91512756  0.99298985  1
  Li  Li13  1  0.01314544  0.83381091  0.95494706  1
  Li  Li14  1  0.07657555  0.07094736  0.21871547  1
  Li  Li15  1  0.66231509  0.62428657  0.67358608  1
  Li  Li16  1  0.95201623  0.49159977  0.32785436  1
  Li  Li17  1  0.48497762  0.45438074  0.32511836  1
  Li  Li18  1  0.12114345  0.66620757  0.67935422  1
  Li  Li19  1  0.83624978  0.00840947  0.96041565  1
  Li  Li20  1  0.66379641  0.62417048  0.17219684  1
  Li  Li21  1  0.42212202  0.64570598  0.50699609  1
  Li  Li22  1  0.07787307  0.58488062  0.22358736  1
  Li  Li23  1  0.86127682  0.85426582  0.27640146  1
  Li  Li24  1  0.37073750  0.84013725  0.82513375  1
  Li  Li25  1  0.01495497  0.34009474  0.96934794  1
  Li  Li26  1  0.36129748  0.08487471  0.00701087  1
  Li  Li27  1  0.54800024  0.87582495  0.53960814  1
  Li  Li28  1  0.12925603  0.95437923  0.46940575  1
  Li  Li29  1  0.85220897  0.57094826  0.49434973  1
  Li  Li30  1  0.14778892  0.42905481  0.50564802  1
  Li  Li31  1  0.33768253  0.37570475  0.32640656  1
  Li  Li32  1  0.95067883  0.12421983  0.46190534  1
  Li  Li33  1  0.62926691  0.15986289  0.17487434  1
  Li  Li34  1  0.98504514  0.65990297  0.03065124  1
  Li  Li35  1  0.92212602  0.41512148  0.77641446  1
  Li  Li36  1  0.04797947  0.50840258  0.67214246  1
  Li  Li37  1  0.57661149  0.35785375  0.00565689  1
  Li  Li38  1  0.98685345  0.16618941  0.04505142  1
  Li  Li39  1  0.35218654  0.85785286  0.28122278  1
  Li  Li40  1  0.92342926  0.92905353  0.78129083  1
  Li  Li41  1  0.83769899  0.51129991  0.96202127  1
  Li  Li42  1  0.45200111  0.12417473  0.46039471  1
  Li  Li43  1  0.57787765  0.35429682  0.49300634  1
  Li  Li44  1  0.62108529  0.94177799  0.45489767  1
  Li  Li45  1  0.13872315  0.14573659  0.72360086  1
  Li  Li46  1  0.16230167  0.48869903  0.03797754  1
  Li  Li47  1  0.37891146  0.05822183  0.54509946  1
  Br  Br48  1  0.25000884  0.77956679  0.52958218  1
  Br  Br49  1  0.63596274  0.38593876  0.25003115  1
  Br  Br50  1  0.38297398  0.64199720  0.27971961  1
  Br  Br51  1  0.72983378  0.75000549  0.47983494  1
  Br  Br52  1  0.86226872  0.10324881  0.22024220  1
  Br  Br53  1  0.88705235  0.63704624  0.25001696  1
  Br  Br54  1  0.24999895  0.27955186  0.02955602  1
  Br  Br55  1  0.88297506  0.60323847  0.74096718  1
  Br  Br56  1  0.27016741  0.25000172  0.52017068  1
  Br  Br57  1  0.13773513  0.89675488  0.77976222  1
  Br  Br58  1  0.38702995  0.13704791  0.24999030  1
  Br  Br59  1  0.77015746  0.25000131  0.02016680  1
  Br  Br60  1  0.75000530  0.72045728  0.97045106  1
  Br  Br61  1  0.13594161  0.88595852  0.25000640  1
  Br  Br62  1  0.86405928  0.11404505  0.74999441  1
  Br  Br63  1  0.11293762  0.36295779  0.74998229  1
  Br  Br64  1  0.22984427  0.75000644  0.97983478  1
  Br  Br65  1  0.63770115  0.85794256  0.24091135  1
  Br  Br66  1  0.36229922  0.14202391  0.75905745  1
  Br  Br67  1  0.74999072  0.22043634  0.47042466  1
  Br  Br68  1  0.36403849  0.61405948  0.74996966  1
  Br  Br69  1  0.61297711  0.86294862  0.75000925  1
  Br  Br70  1  0.61702324  0.35800372  0.72027774  1
  Br  Br71  1  0.11702572  0.39674998  0.25903072  1
  N  N72  1  0.00000069  0.50000077  0.00000169  1
  N  N73  1  -0.00000019  0.00000295  0.00000186  1
  N  N74  1  0.49999916  0.49999979  0.00000139  1
  N  N75  1  -0.00000033  0.00000121  0.50000047  1
  N  N76  1  0.00000162  0.50000287  0.50000305  1
  N  N77  1  0.49999784  -0.00000020  0.49999966  1
  N  N78  1  0.50000082  -0.00000019  -0.00000195  1
  N  N79  1  0.49999947  0.49999989  0.50000012  1
