# generated using pymatgen
data_K3Ga3As4
_symmetry_space_group_name_H-M   'P 1'
_cell_length_a   6.64162013
_cell_length_b   10.70019296
_cell_length_c   15.01276886
_cell_angle_alpha   90.00000000
_cell_angle_beta   90.00000000
_cell_angle_gamma   90.00000000
_symmetry_Int_Tables_number   1
_chemical_formula_structural   K3Ga3As4
_chemical_formula_sum   'K12 Ga12 As16'
_cell_volume   1066.90669405
_cell_formula_units_Z   4
loop_
 _symmetry_equiv_pos_site_id
 _symmetry_equiv_pos_as_xyz
  1  'x, y, z'
loop_
 _atom_site_type_symbol
 _atom_site_label
 _atom_site_symmetry_multiplicity
 _atom_site_fract_x
 _atom_site_fract_y
 _atom_site_fract_z
 _atom_site_occupancy
  K  K0  1  0.06082501  0.37970650  0.59443097  1
  K  K1  1  0.06082501  0.12029350  0.90556903  1
  K  K2  1  0.56082501  0.87970650  0.90556903  1
  K  K3  1  0.75000000  0.07989771  0.50000000  1
  K  K4  1  0.93917499  0.87970650  0.09443097  1
  K  K5  1  0.56082501  0.62029350  0.59443097  1
  K  K6  1  0.93917499  0.62029350  0.40556903  1
  K  K7  1  0.25000000  0.57989771  0.00000000  1
  K  K8  1  0.75000000  0.42010229  0.00000000  1
  K  K9  1  0.43917499  0.37970650  0.40556903  1
  K  K10  1  0.43917499  0.12029350  0.09443097  1
  K  K11  1  0.25000000  0.92010229  0.50000000  1
  Ga  Ga12  1  0.40162040  0.11101618  0.71650839  1
  Ga  Ga13  1  0.90162040  0.61101618  0.78349161  1
  Ga  Ga14  1  0.09837960  0.38898382  0.21650839  1
  Ga  Ga15  1  0.40162040  0.38898382  0.78349161  1
  Ga  Ga16  1  0.30822728  0.75000000  0.75000000  1
  Ga  Ga17  1  0.80822728  0.25000000  0.75000000  1
  Ga  Ga18  1  0.59837960  0.88898382  0.28349161  1
  Ga  Ga19  1  0.90162040  0.88898382  0.71650839  1
  Ga  Ga20  1  0.19177272  0.75000000  0.25000000  1
  Ga  Ga21  1  0.69177272  0.25000000  0.25000000  1
  Ga  Ga22  1  0.59837960  0.61101618  0.21650839  1
  Ga  Ga23  1  0.09837960  0.11101618  0.28349161  1
  As  As24  1  0.04026977  0.09487744  0.67646358  1
  As  As25  1  0.04058057  0.80598225  0.86267752  1
  As  As26  1  0.45941943  0.80598225  0.13732248  1
  As  As27  1  0.45973023  0.40512256  0.17646358  1
  As  As28  1  0.54026977  0.59487744  0.82353642  1
  As  As29  1  0.54026977  0.90512256  0.67646358  1
  As  As30  1  0.04058057  0.69401775  0.63732248  1
  As  As31  1  0.04026977  0.40512256  0.82353642  1
  As  As32  1  0.95941943  0.19401775  0.13732248  1
  As  As33  1  0.54058057  0.19401775  0.86267752  1
  As  As34  1  0.95973023  0.90512256  0.32353642  1
  As  As35  1  0.45973023  0.09487744  0.32353642  1
  As  As36  1  0.95941943  0.30598225  0.36267752  1
  As  As37  1  0.54058057  0.30598225  0.63732248  1
  As  As38  1  0.45941943  0.69401775  0.36267752  1
  As  As39  1  0.95973023  0.59487744  0.17646358  1
