# generated using pymatgen
data_RbPSe3
_symmetry_space_group_name_H-M   'P 1'
_cell_length_a   7.47413548
_cell_length_b   7.47387480
_cell_length_c   19.36625941
_cell_angle_alpha   89.99932197
_cell_angle_beta   90.00194187
_cell_angle_gamma   119.99734518
_symmetry_Int_Tables_number   1
_chemical_formula_structural   RbPSe3
_chemical_formula_sum   'Rb6 P6 Se18'
_cell_volume   936.90331963
_cell_formula_units_Z   6
loop_
 _symmetry_equiv_pos_site_id
 _symmetry_equiv_pos_as_xyz
  1  'x, y, z'
loop_
 _atom_site_type_symbol
 _atom_site_label
 _atom_site_symmetry_multiplicity
 _atom_site_fract_x
 _atom_site_fract_y
 _atom_site_fract_z
 _atom_site_occupancy
  Rb  Rb0  1  0.58151806  0.26738883  0.24828353  1
  Rb  Rb1  1  0.31413840  0.73258659  0.41842272  1
  Rb  Rb2  1  0.41848000  0.68585911  0.08504604  1
  Rb  Rb3  1  0.73260151  0.31413718  0.58161538  1
  Rb  Rb4  1  0.68584807  0.41844825  0.91491325  1
  Rb  Rb5  1  0.26738801  0.58152113  0.75172191  1
  P  P6  1  0.92432652  0.89650187  0.71937104  1
  P  P7  1  0.10346070  0.02778744  0.05268825  1
  P  P8  1  0.02783097  0.10353784  0.94727636  1
  P  P9  1  0.07569519  0.97220905  0.61396292  1
  P  P10  1  0.89651532  0.92432120  0.28064106  1
  P  P11  1  0.97215934  0.07569346  0.38605244  1
  Se  Se12  1  0.30002392  0.25675670  0.39308730  1
  Se  Se13  1  0.69996353  0.95676868  0.94025697  1
  Se  Se14  1  0.84064685  0.75845687  0.44659038  1
  Se  Se15  1  0.15936208  0.91782083  0.88674353  1
  Se  Se16  1  0.22001593  0.79449783  0.59175392  1
  Se  Se17  1  0.08218140  0.24160335  0.22007869  1
  Se  Se18  1  0.95670197  0.69994133  0.05971830  1
  Se  Se19  1  0.24162595  0.08218051  0.77991079  1
  Se  Se20  1  0.79437342  0.21993064  0.40827342  1
  Se  Se21  1  0.78003371  0.57445270  0.74157602  1
  Se  Se22  1  0.04327740  0.74323409  0.27362124  1
  Se  Se23  1  0.42548883  0.20546560  0.07489440  1
  Se  Se24  1  0.20562383  0.42556838  0.92506013  1
  Se  Se25  1  0.25678848  0.30005647  0.60695521  1
  Se  Se26  1  0.57450341  0.78001630  0.25842838  1
  Se  Se27  1  0.91782749  0.15945695  0.11324731  1
  Se  Se28  1  0.75841864  0.84058437  0.55342023  1
  Se  Se29  1  0.74318005  0.04321645  0.72638989  1
