# generated using pymatgen
data_ZnS
_symmetry_space_group_name_H-M   'P 1'
_cell_length_a   3.80944974
_cell_length_b   3.80944990
_cell_length_c   80.94860619
_cell_angle_alpha   90.00000000
_cell_angle_beta   90.00000000
_cell_angle_gamma   120.00001631
_symmetry_Int_Tables_number   1
_chemical_formula_structural   ZnS
_chemical_formula_sum   'Zn26 S26'
_cell_volume   1017.33608658
_cell_formula_units_Z   26
loop_
 _symmetry_equiv_pos_site_id
 _symmetry_equiv_pos_as_xyz
  1  'x, y, z'
loop_
 _atom_site_type_symbol
 _atom_site_label
 _atom_site_symmetry_multiplicity
 _atom_site_fract_x
 _atom_site_fract_y
 _atom_site_fract_z
 _atom_site_occupancy
  Zn  Zn0  1  0.66666700  0.33333300  0.69243801  1
  Zn  Zn1  1  0.00000000  -0.00000000  0.11510883  1
  Zn  Zn2  1  0.66666700  0.33333300  0.46174445  1
  Zn  Zn3  1  0.33333300  0.66666700  0.76921106  1
  Zn  Zn4  1  0.33333300  0.66666700  0.65403631  1
  Zn  Zn5  1  0.00000000  -0.00000000  0.23072828  1
  Zn  Zn6  1  0.66666700  0.33333300  0.96136389  1
  Zn  Zn7  1  0.33333300  0.66666700  0.88449718  1
  Zn  Zn8  1  0.33333300  0.66666700  0.03826712  1
  Zn  Zn9  1  0.66666700  0.33333300  0.19221888  1
  Zn  Zn10  1  -0.00000000  0.00000000  0.80770554  1
  Zn  Zn11  1  0.00000000  -0.00000000  0.73075736  1
  Zn  Zn12  1  0.66666700  0.33333300  0.07666394  1
  Zn  Zn13  1  0.33333300  0.66666700  0.42318865  1
  Zn  Zn14  1  0.66666700  0.33333300  0.84613725  1
  Zn  Zn15  1  0.00000000  -0.00000000  0.57721159  1
  Zn  Zn16  1  0.33333300  0.66666700  0.53871155  1
  Zn  Zn17  1  0.00000000  -0.00000000  0.99985321  1
  Zn  Zn18  1  0.33333300  0.66666700  0.30772059  1
  Zn  Zn19  1  0.33333300  0.66666700  0.15362663  1
  Zn  Zn20  1  0.66666700  0.33333300  0.26923945  1
  Zn  Zn21  1  0.00000000  -0.00000000  0.92289920  1
  Zn  Zn22  1  0.66666700  0.33333300  0.61559490  1
  Zn  Zn23  1  -0.00000000  -0.00000000  0.50023572  1
  Zn  Zn24  1  0.66666700  0.33333300  0.38473234  1
  Zn  Zn25  1  -0.00000000  0.00000000  0.34624725  1
  S  S26  1  0.00000000  -0.00000000  0.02867763  1
  S  S27  1  0.00000000  -0.00000000  0.75957131  1
  S  S28  1  0.33333300  0.66666700  0.68286751  1
  S  S29  1  0.33333300  0.66666700  0.33657432  1
  S  S30  1  0.66666700  0.33333300  0.22106494  1
  S  S31  1  0.33333300  0.66666700  0.79807747  1
  S  S32  1  0.66666700  0.33333300  0.72120851  1
  S  S33  1  0.00000000  -0.00000000  0.60601858  1
  S  S34  1  0.33333300  0.66666700  0.06708317  1
  S  S35  1  0.33333300  0.66666700  0.91331269  1
  S  S36  1  0.33333300  0.66666700  0.45208683  1
  S  S37  1  0.66666700  0.33333300  0.10547773  1
  S  S38  1  0.66666700  0.33333300  0.87493784  1
  S  S39  1  0.66666700  0.33333300  0.29807245  1
  S  S40  1  0.00000000  -0.00000000  0.95170696  1
  S  S41  1  0.66666700  0.33333300  0.49060221  1
  S  S42  1  0.66666700  0.33333300  0.99022430  1
  S  S43  1  0.33333300  0.66666700  0.18252129  1
  S  S44  1  0.00000000  -0.00000000  0.83652080  1
  S  S45  1  0.00000000  -0.00000000  0.25961640  1
  S  S46  1  0.66666700  0.33333300  0.41355015  1
  S  S47  1  0.00000000  -0.00000000  0.14396451  1
  S  S48  1  0.00000000  -0.00000000  0.52906013  1
  S  S49  1  0.33333300  0.66666700  0.56757168  1
  S  S50  1  0.00000000  -0.00000000  0.37508428  1
  S  S51  1  0.66666700  0.33333300  0.64440613  1
