# generated using pymatgen
data_BaMnF4
_symmetry_space_group_name_H-M   'P 1'
_cell_length_a   4.25782978
_cell_length_b   5.98010435
_cell_length_c   7.79142403
_cell_angle_alpha   90.00000000
_cell_angle_beta   105.85704973
_cell_angle_gamma   90.00000000
_symmetry_Int_Tables_number   1
_chemical_formula_structural   BaMnF4
_chemical_formula_sum   'Ba2 Mn2 F8'
_cell_volume   190.83796390
_cell_formula_units_Z   2
loop_
 _symmetry_equiv_pos_site_id
 _symmetry_equiv_pos_as_xyz
  1  'x, y, z'
loop_
 _atom_site_type_symbol
 _atom_site_label
 _atom_site_symmetry_multiplicity
 _atom_site_fract_x
 _atom_site_fract_y
 _atom_site_fract_z
 _atom_site_occupancy
  Ba  Ba0  1  0.84622194  0.95032751  0.69244388  1
  Ba  Ba1  1  0.15377806  0.45032751  0.30755612  1
  Mn  Mn2  1  0.41465157  0.49639257  0.82930514  1
  Mn  Mn3  1  0.58534843  0.99639257  0.17069486  1
  F  F4  1  0.92219964  0.51639339  0.84439829  1
  F  F5  1  0.07780036  0.01639339  0.15560171  1
  F  F6  1  0.46311838  0.83866868  0.92623975  1
  F  F7  1  0.53688162  0.33866868  0.07376025  1
  F  F8  1  0.70130031  0.19582672  0.40260063  1
  F  F9  1  0.29869969  0.69582672  0.59739937  1
  F  F10  1  0.66855673  0.72199213  0.33711247  1
  F  F11  1  0.33144327  0.22199213  0.66288753  1
