# generated using pymatgen
data_NaZnPO4
_symmetry_space_group_name_H-M   'P 1'
_cell_length_a   5.17909895
_cell_length_b   7.32443222
_cell_length_c   9.91510517
_cell_angle_alpha   89.99996978
_cell_angle_beta   89.99987630
_cell_angle_gamma   90.40256132
_symmetry_Int_Tables_number   1
_chemical_formula_structural   NaZnPO4
_chemical_formula_sum   'Na4 Zn4 P4 O16'
_cell_volume   376.10991211
_cell_formula_units_Z   4
loop_
 _symmetry_equiv_pos_site_id
 _symmetry_equiv_pos_as_xyz
  1  'x, y, z'
loop_
 _atom_site_type_symbol
 _atom_site_label
 _atom_site_symmetry_multiplicity
 _atom_site_fract_x
 _atom_site_fract_y
 _atom_site_fract_z
 _atom_site_occupancy
  Na  Na0  1  0.21521344  0.51512937  0.11720495  1
  Na  Na1  1  0.71519307  0.01513311  0.38279874  1
  Na  Na2  1  0.28481853  0.98486526  0.61720514  1
  Na  Na3  1  0.78480443  0.48486765  0.88279194  1
  Zn  Zn4  1  0.20415180  0.00574672  0.16965116  1
  Zn  Zn5  1  0.70415243  0.50574688  0.33034894  1
  Zn  Zn6  1  0.79584173  0.99425054  0.83034496  1
  Zn  Zn7  1  0.29584114  0.49425043  0.66965493  1
  P  P8  1  0.20003401  0.27955205  0.40241323  1
  P  P9  1  0.29996169  0.22044741  0.90241344  1
  P  P10  1  0.70003542  0.77955231  0.09758694  1
  P  P11  1  0.79996251  0.72044781  0.59758620  1
  O  O12  1  0.90950979  0.29623467  0.37478956  1
  O  O13  1  0.28169102  0.08585146  0.35620211  1
  O  O14  1  0.65613963  0.56993544  0.67393470  1
  O  O15  1  0.59048388  0.20376382  0.87478688  1
  O  O16  1  0.09048444  0.70376435  0.62521258  1
  O  O17  1  0.84385525  0.93006318  0.17393767  1
  O  O18  1  0.25883179  0.28501875  0.55368970  1
  O  O19  1  0.40951092  0.79623519  0.12521102  1
  O  O20  1  0.78169311  0.58585145  0.14379776  1
  O  O21  1  0.21830667  0.41415001  0.85620537  1
  O  O22  1  0.75883068  0.78501866  0.94631002  1
  O  O23  1  0.15613991  0.06993516  0.82606464  1
  O  O24  1  0.74117427  0.71498771  0.44630871  1
  O  O25  1  0.71830787  0.91415024  0.64379458  1
  O  O26  1  0.24117529  0.21498754  0.05369130  1
  O  O27  1  0.34385528  0.43006287  0.32606282  1
