# generated using pymatgen
data_Nd2W2O9
_symmetry_space_group_name_H-M   'P 1'
_cell_length_a   9.88499478
_cell_length_b   7.67107860
_cell_length_c   9.26472467
_cell_angle_alpha   72.54995830
_cell_angle_beta   90.00000000
_cell_angle_gamma   90.00000000
_symmetry_Int_Tables_number   1
_chemical_formula_structural   Nd2W2O9
_chemical_formula_sum   'Nd8 W8 O36'
_cell_volume   670.19951804
_cell_formula_units_Z   4
loop_
 _symmetry_equiv_pos_site_id
 _symmetry_equiv_pos_as_xyz
  1  'x, y, z'
loop_
 _atom_site_type_symbol
 _atom_site_label
 _atom_site_symmetry_multiplicity
 _atom_site_fract_x
 _atom_site_fract_y
 _atom_site_fract_z
 _atom_site_occupancy
  Nd  Nd0  1  0.45332916  0.28322310  0.42714611  1
  Nd  Nd1  1  0.04667084  0.28322310  0.92714611  1
  Nd  Nd2  1  0.55325275  0.77248962  0.15325931  1
  Nd  Nd3  1  0.05325275  0.22751038  0.34674069  1
  Nd  Nd4  1  0.94674725  0.77248962  0.65325931  1
  Nd  Nd5  1  0.44674725  0.22751038  0.84674069  1
  Nd  Nd6  1  0.95332916  0.71677690  0.07285389  1
  Nd  Nd7  1  0.54667084  0.71677690  0.57285389  1
  W  W8  1  0.24820696  0.92966451  0.73798995  1
  W  W9  1  0.72634046  0.42461983  0.96404412  1
  W  W10  1  0.75179304  0.07033549  0.26201005  1
  W  W11  1  0.77365954  0.42461983  0.46404412  1
  W  W12  1  0.25179304  0.92966451  0.23798995  1
  W  W13  1  0.74820696  0.07033549  0.76201005  1
  W  W14  1  0.27365954  0.57538017  0.03595588  1
  W  W15  1  0.22634046  0.57538017  0.53595588  1
  O  O16  1  0.59054621  0.95213271  0.34237569  1
  O  O17  1  0.63464393  0.26271293  0.64055410  1
  O  O18  1  0.13464393  0.73728707  0.85944590  1
  O  O19  1  0.70895502  0.58842769  0.07206538  1
  O  O20  1  0.39469787  0.44642645  0.60739167  1
  O  O21  1  0.29104498  0.41157231  0.92793462  1
  O  O22  1  0.61991728  0.98858013  0.90478610  1
  O  O23  1  0.62212272  0.22805903  0.07774322  1
  O  O24  1  0.21795876  0.10033300  0.83874994  1
  O  O25  1  0.28204124  0.10033300  0.33874994  1
  O  O26  1  0.60530213  0.55357355  0.39260833  1
  O  O27  1  0.10530213  0.44642645  0.10739167  1
  O  O28  1  0.87787728  0.22805903  0.57774322  1
  O  O29  1  0.09054621  0.04786729  0.15762431  1
  O  O30  1  0.40945379  0.04786729  0.65762431  1
  O  O31  1  0.12212272  0.77194097  0.42225678  1
  O  O32  1  0.40384110  0.49442758  0.17706856  1
  O  O33  1  0.37787728  0.77194097  0.92225678  1
  O  O34  1  0.09615890  0.49442758  0.67706856  1
  O  O35  1  0.59615890  0.50557242  0.82293144  1
  O  O36  1  0.11991728  0.01141987  0.59521390  1
  O  O37  1  0.90945379  0.95213271  0.84237569  1
  O  O38  1  0.68860024  0.25817177  0.36026745  1
  O  O39  1  0.20895502  0.41157231  0.42793462  1
  O  O40  1  0.86535607  0.26271293  0.14055410  1
  O  O41  1  0.36535607  0.73728707  0.35944590  1
  O  O42  1  0.31139976  0.74182823  0.63973255  1
  O  O43  1  0.90384110  0.50557242  0.32293144  1
  O  O44  1  0.81139976  0.25817177  0.86026745  1
  O  O45  1  0.89469787  0.55357355  0.89260833  1
  O  O46  1  0.79104498  0.58842769  0.57206538  1
  O  O47  1  0.88008272  0.98858013  0.40478610  1
  O  O48  1  0.71795876  0.89966700  0.66125006  1
  O  O49  1  0.38008272  0.01141987  0.09521390  1
  O  O50  1  0.78204124  0.89966700  0.16125006  1
  O  O51  1  0.18860024  0.74182823  0.13973255  1
