# generated using pymatgen
data_ZnS
_symmetry_space_group_name_H-M   'P 1'
_cell_length_a   3.80699226
_cell_length_b   3.80699262
_cell_length_c   74.76293535
_cell_angle_alpha   90.00000000
_cell_angle_beta   90.00000000
_cell_angle_gamma   119.99999691
_symmetry_Int_Tables_number   1
_chemical_formula_structural   ZnS
_chemical_formula_sum   'Zn24 S24'
_cell_volume   938.38491544
_cell_formula_units_Z   24
loop_
 _symmetry_equiv_pos_site_id
 _symmetry_equiv_pos_as_xyz
  1  'x, y, z'
loop_
 _atom_site_type_symbol
 _atom_site_label
 _atom_site_symmetry_multiplicity
 _atom_site_fract_x
 _atom_site_fract_y
 _atom_site_fract_z
 _atom_site_occupancy
  Zn  Zn0  1  0.00000000  0.00000000  0.91666914  1
  Zn  Zn1  1  0.66666700  0.33333300  0.83337293  1
  Zn  Zn2  1  0.66666700  0.33333300  0.33335783  1
  Zn  Zn3  1  0.00000000  0.00000000  0.29169877  1
  Zn  Zn4  1  -0.00000000  -0.00000000  0.54168864  1
  Zn  Zn5  1  0.66666700  0.33333300  0.08334963  1
  Zn  Zn6  1  0.33333300  0.66666700  0.45837780  1
  Zn  Zn7  1  0.00000000  0.00000000  0.79168612  1
  Zn  Zn8  1  0.66666700  0.33333300  0.58337414  1
  Zn  Zn9  1  0.33333300  0.66666700  0.25005298  1
  Zn  Zn10  1  0.66666700  0.33333300  0.20835007  1
  Zn  Zn11  1  0.66666700  0.33333300  0.75000409  1
  Zn  Zn12  1  0.00000000  -0.00000000  0.66668753  1
  Zn  Zn13  1  0.33333300  0.66666700  0.04168739  1
  Zn  Zn14  1  -0.00000000  0.00000000  0.12501710  1
  Zn  Zn15  1  0.33333300  0.66666700  0.16667078  1
  Zn  Zn16  1  0.66666700  0.33333300  0.95834601  1
  Zn  Zn17  1  0.33333300  0.66666700  0.37501039  1
  Zn  Zn18  1  0.00000000  -0.00000000  0.41669337  1
  Zn  Zn19  1  0.33333300  0.66666700  0.62500656  1
  Zn  Zn20  1  0.33333300  0.66666700  0.70837288  1
  Zn  Zn21  1  -0.00000000  -0.00000000  0.00003866  1
  Zn  Zn22  1  0.66666700  0.33333300  0.50000860  1
  Zn  Zn23  1  0.33333300  0.66666700  0.87501764  1
  S  S24  1  0.33333300  0.66666700  0.65619495  1
  S  S25  1  0.33333300  0.66666700  0.19785551  1
  S  S26  1  0.66666700  0.33333300  0.53119522  1
  S  S27  1  0.66666700  0.33333300  0.78119410  1
  S  S28  1  0.33333300  0.66666700  0.90622303  1
  S  S29  1  0.33333300  0.66666700  0.40619835  1
  S  S30  1  0.00000000  0.00000000  0.69792661  1
  S  S31  1  0.66666700  0.33333300  0.86456243  1
  S  S32  1  0.66666700  0.33333300  0.23959020  1
  S  S33  1  0.33333300  0.66666700  0.73955904  1
  S  S34  1  0.66666700  0.33333300  0.11455825  1
  S  S35  1  0.33333300  0.66666700  0.28123800  1
  S  S36  1  0.66666700  0.33333300  0.61455996  1
  S  S37  1  0.66666700  0.33333300  0.98958928  1
  S  S38  1  0.66666700  0.33333300  0.36455669  1
  S  S39  1  0.00000000  0.00000000  0.32289797  1
  S  S40  1  0.33333300  0.66666700  0.07289602  1
  S  S41  1  0.33333300  0.66666700  0.48956147  1
  S  S42  1  0.00000000  -0.00000000  0.15622468  1
  S  S43  1  0.00000000  0.00000000  0.82292661  1
  S  S44  1  -0.00000000  0.00000000  0.57292693  1
  S  S45  1  0.00000000  0.00000000  0.44793094  1
  S  S46  1  0.00000000  -0.00000000  0.94785405  1
  S  S47  1  0.00000000  -0.00000000  0.03123664  1
