# generated using pymatgen
data_Na2Si2O5
_symmetry_space_group_name_H-M   'P 1'
_cell_length_a   4.80171345
_cell_length_b   8.11936861
_cell_length_c   11.83171003
_cell_angle_alpha   90.00000000
_cell_angle_beta   90.00000000
_cell_angle_gamma   90.00000000
_symmetry_Int_Tables_number   1
_chemical_formula_structural   Na2Si2O5
_chemical_formula_sum   'Na8 Si8 O20'
_cell_volume   461.28147641
_cell_formula_units_Z   4
loop_
 _symmetry_equiv_pos_site_id
 _symmetry_equiv_pos_as_xyz
  1  'x, y, z'
loop_
 _atom_site_type_symbol
 _atom_site_label
 _atom_site_symmetry_multiplicity
 _atom_site_fract_x
 _atom_site_fract_y
 _atom_site_fract_z
 _atom_site_occupancy
  Na  Na0  1  0.57126732  0.43472382  0.27326929  1
  Na  Na1  1  0.09848516  0.68942634  0.19198511  1
  Na  Na2  1  0.07126732  0.06527618  0.77326929  1
  Na  Na3  1  0.09848516  0.18942634  0.30801489  1
  Na  Na4  1  0.07126732  0.56527618  0.72673071  1
  Na  Na5  1  0.57126732  0.93472382  0.22673071  1
  Na  Na6  1  0.59848516  0.81057366  0.69198511  1
  Na  Na7  1  0.59848516  0.31057366  0.80801489  1
  Si  Si8  1  0.52246497  0.94755762  0.93150373  1
  Si  Si9  1  0.02246497  0.55244238  0.43150373  1
  Si  Si10  1  0.52246497  0.44755762  0.56849627  1
  Si  Si11  1  0.64207540  0.10855069  0.47458081  1
  Si  Si12  1  0.14207540  0.39144931  0.97458081  1
  Si  Si13  1  0.14207540  0.89144931  0.52541919  1
  Si  Si14  1  0.02246497  0.05244238  0.06849627  1
  Si  Si15  1  0.64207540  0.60855069  0.02541919  1
  O  O16  1  0.19006829  0.97143050  0.96124119  1
  O  O17  1  0.97304787  0.05773605  0.48608759  1
  O  O18  1  0.57905068  0.66582244  0.15106410  1
  O  O19  1  0.07905068  0.83417756  0.65106410  1
  O  O20  1  0.07905068  0.33417756  0.84893590  1
  O  O21  1  0.58804732  0.02900875  0.81310231  1
  O  O22  1  0.08409400  0.25100383  0.07161607  1
  O  O23  1  0.69006829  0.52856950  0.46124119  1
  O  O24  1  0.47304787  0.44226395  0.98608759  1
  O  O25  1  0.08804732  0.47099125  0.31310231  1
  O  O26  1  0.58409400  0.74899617  0.92838393  1
  O  O27  1  0.97304787  0.55773605  0.01391241  1
  O  O28  1  0.69006829  0.02856950  0.03875881  1
  O  O29  1  0.08409400  0.75100383  0.42838393  1
  O  O30  1  0.47304787  0.94226395  0.51391241  1
  O  O31  1  0.58804732  0.52900875  0.68689769  1
  O  O32  1  0.58409400  0.24899617  0.57161607  1
  O  O33  1  0.08804732  0.97099125  0.18689769  1
  O  O34  1  0.57905068  0.16582244  0.34893590  1
  O  O35  1  0.19006829  0.47143050  0.53875881  1
