# generated using pymatgen
data_CdI2
_symmetry_space_group_name_H-M   'P 1'
_cell_length_a   4.28793268
_cell_length_b   4.28793268
_cell_length_c   87.36332144
_cell_angle_alpha   90.00000000
_cell_angle_beta   90.00000000
_cell_angle_gamma   120.00001544
_symmetry_Int_Tables_number   1
_chemical_formula_structural   CdI2
_chemical_formula_sum   'Cd12 I24'
_cell_volume   1391.09124707
_cell_formula_units_Z   12
loop_
 _symmetry_equiv_pos_site_id
 _symmetry_equiv_pos_as_xyz
  1  'x, y, z'
loop_
 _atom_site_type_symbol
 _atom_site_label
 _atom_site_symmetry_multiplicity
 _atom_site_fract_x
 _atom_site_fract_y
 _atom_site_fract_z
 _atom_site_occupancy
  Cd  Cd0  1  0.33333300  0.66666700  0.68762641  1
  Cd  Cd1  1  0.66666700  0.33333300  0.02104277  1
  Cd  Cd2  1  0.66666700  0.33333300  0.77066521  1
  Cd  Cd3  1  0.33333300  0.66666700  0.27066709  1
  Cd  Cd4  1  0.33333300  0.66666700  0.60400525  1
  Cd  Cd5  1  0.33333300  0.66666700  0.35436777  1
  Cd  Cd6  1  0.33333300  0.66666700  0.10399843  1
  Cd  Cd7  1  0.33333300  0.66666700  0.85429089  1
  Cd  Cd8  1  0.33333300  0.66666700  0.93733711  1
  Cd  Cd9  1  0.33333300  0.66666700  0.43732850  1
  Cd  Cd10  1  0.33333300  0.66666700  0.52104592  1
  Cd  Cd11  1  0.33333300  0.66666700  0.18768180  1
  I  I12  1  -0.00000000  -0.00000000  0.16798480  1
  I  I13  1  0.66666700  0.33333300  0.70730611  1
  I  I14  1  0.33333300  0.66666700  0.79032715  1
  I  I15  1  0.66666700  0.33333300  0.45699154  1
  I  I16  1  0.00000000  0.00000000  0.41765772  1
  I  I17  1  0.66666700  0.33333300  0.12366125  1
  I  I18  1  0.00000000  0.00000000  0.25100832  1
  I  I19  1  0.00000000  0.00000000  0.58433992  1
  I  I20  1  0.00000000  -0.00000000  0.66791511  1
  I  I21  1  0.66666700  0.33333300  0.62366033  1
  I  I22  1  0.66666700  0.33333300  0.20735804  1
  I  I23  1  0.66666700  0.33333300  0.87395005  1
  I  I24  1  0.00000000  0.00000000  0.91767279  1
  I  I25  1  -0.00000000  -0.00000000  0.83460933  1
  I  I26  1  0.33333300  0.66666700  0.04073114  1
  I  I27  1  -0.00000000  -0.00000000  0.50132819  1
  I  I28  1  0.00000000  0.00000000  0.08433930  1
  I  I29  1  0.66666700  0.33333300  0.95699363  1
  I  I30  1  -0.00000000  -0.00000000  0.33466192  1
  I  I31  1  0.66666700  0.33333300  0.29032844  1
  I  I32  1  0.00000000  0.00000000  0.75100750  1
  I  I33  1  0.66666700  0.33333300  0.54073180  1
  I  I34  1  0.66666700  0.33333300  0.37404466  1
  I  I35  1  -0.00000000  -0.00000000  0.00133378  1
