# generated using pymatgen
data_Rb4Zr3Se14
_symmetry_space_group_name_H-M   'P 1'
_cell_length_a   12.20058499
_cell_length_b   12.20042832
_cell_length_c   14.25362646
_cell_angle_alpha   70.36866844
_cell_angle_beta   70.37097507
_cell_angle_gamma   41.75604810
_symmetry_Int_Tables_number   1
_chemical_formula_structural   Rb4Zr3Se14
_chemical_formula_sum   'Rb8 Zr6 Se28'
_cell_volume   1318.46530454
_cell_formula_units_Z   2
loop_
 _symmetry_equiv_pos_site_id
 _symmetry_equiv_pos_as_xyz
  1  'x, y, z'
loop_
 _atom_site_type_symbol
 _atom_site_label
 _atom_site_symmetry_multiplicity
 _atom_site_fract_x
 _atom_site_fract_y
 _atom_site_fract_z
 _atom_site_occupancy
  Rb  Rb0  1  0.02027358  0.37830621  0.89392370  1
  Rb  Rb1  1  0.62169835  0.97973078  0.60607712  1
  Rb  Rb2  1  0.97973672  0.62168790  0.10607461  1
  Rb  Rb3  1  0.37830253  0.02027301  0.39392102  1
  Rb  Rb4  1  0.18266087  0.68187751  0.64971076  1
  Rb  Rb5  1  0.31813462  0.81732730  0.85028820  1
  Rb  Rb6  1  0.81734572  0.31812629  0.35028542  1
  Rb  Rb7  1  0.68186424  0.18267246  0.14971510  1
  Zr  Zr8  1  0.92243951  0.41330560  0.58618262  1
  Zr  Zr9  1  0.58672970  0.07753063  0.91382133  1
  Zr  Zr10  1  0.07754298  0.58671381  0.41382850  1
  Zr  Zr11  1  0.41327388  0.92246286  0.08616814  1
  Zr  Zr12  1  0.76076541  0.23923860  0.75000352  1
  Zr  Zr13  1  0.23924734  0.76074907  0.24999207  1
  Se  Se14  1  0.88028874  0.19734718  0.90292450  1
  Se  Se15  1  0.80261751  0.11976458  0.59708692  1
  Se  Se16  1  0.11970355  0.80264128  0.09708275  1
  Se  Se17  1  0.19735856  0.88027261  0.40290368  1
  Se  Se18  1  0.65496216  0.47569954  0.57729945  1
  Se  Se19  1  0.52434863  0.34498902  0.92271604  1
  Se  Se20  1  0.34504980  0.52429756  0.42270242  1
  Se  Se21  1  0.47567547  0.65497435  0.07728261  1
  Se  Se22  1  0.07384105  0.09108435  0.63203713  1
  Se  Se23  1  0.90895071  0.92612921  0.86796831  1
  Se  Se24  1  0.92615627  0.90893212  0.36795379  1
  Se  Se25  1  0.09105056  0.07387435  0.13202544  1
  Se  Se26  1  0.74596808  0.45355031  0.78776006  1
  Se  Se27  1  0.54643731  0.25402553  0.71226377  1
  Se  Se28  1  0.25402790  0.54642517  0.21226361  1
  Se  Se29  1  0.45355746  0.74599337  0.28773128  1
  Se  Se30  1  0.99272422  0.56924659  0.60567298  1
  Se  Se31  1  0.43076422  0.00726865  0.89431735  1
  Se  Se32  1  0.00727682  0.43074015  0.39434313  1
  Se  Se33  1  0.56924861  0.99271909  0.10566408  1
  Se  Se34  1  0.84782511  0.80148344  0.83006781  1
  Se  Se35  1  0.19848176  0.15220982  0.66992789  1
  Se  Se36  1  0.15218912  0.19850566  0.16993222  1
  Se  Se37  1  0.80149872  0.84780650  0.33006666  1
  Se  Se38  1  0.29835767  0.40853829  0.89315511  1
  Se  Se39  1  0.59141321  0.70169604  0.60684942  1
  Se  Se40  1  0.70164759  0.59146285  0.10685121  1
  Se  Se41  1  0.40856172  0.29831934  0.39315929  1
