# generated using pymatgen
data_CsAsF4
_symmetry_space_group_name_H-M   'P 1'
_cell_length_a   4.75925138
_cell_length_b   6.59627834
_cell_length_c   8.43724757
_cell_angle_alpha   111.50635376
_cell_angle_beta   90.00000000
_cell_angle_gamma   90.00000000
_symmetry_Int_Tables_number   1
_chemical_formula_structural   CsAsF4
_chemical_formula_sum   'Cs2 As2 F8'
_cell_volume   246.43213421
_cell_formula_units_Z   2
loop_
 _symmetry_equiv_pos_site_id
 _symmetry_equiv_pos_as_xyz
  1  'x, y, z'
loop_
 _atom_site_type_symbol
 _atom_site_label
 _atom_site_symmetry_multiplicity
 _atom_site_fract_x
 _atom_site_fract_y
 _atom_site_fract_z
 _atom_site_occupancy
  Cs  Cs0  1  0.69831141  0.09966688  0.78339295  1
  Cs  Cs1  1  0.19831141  0.90033312  0.21660705  1
  As  As2  1  0.19095344  0.54142968  0.68917934  1
  As  As3  1  0.69095344  0.45857032  0.31082066  1
  F  F4  1  0.20378583  0.84316656  0.83634576  1
  F  F5  1  0.70378583  0.15683344  0.16365424  1
  F  F6  1  0.56157115  0.54543195  0.71630349  1
  F  F7  1  0.06157115  0.45456805  0.28369651  1
  F  F8  1  0.72380419  0.76938796  0.41479086  1
  F  F9  1  0.22380419  0.23061204  0.58520914  1
  F  F10  1  0.61877399  0.50883603  0.12331128  1
  F  F11  1  0.11877399  0.49116397  0.87668872  1
