# generated using pymatgen
data_PbS
_symmetry_space_group_name_H-M   'P 1'
_cell_length_a   4.22010620
_cell_length_b   4.22010620
_cell_length_c   22.30558771
_cell_angle_alpha   86.18752377
_cell_angle_beta   86.18752377
_cell_angle_gamma   90.04768116
_symmetry_Int_Tables_number   1
_chemical_formula_structural   PbS
_chemical_formula_sum   'Pb2 S2'
_cell_volume   395.48505679
_cell_formula_units_Z   2
loop_
 _symmetry_equiv_pos_site_id
 _symmetry_equiv_pos_as_xyz
  1  'x, y, z'
loop_
 _atom_site_type_symbol
 _atom_site_label
 _atom_site_symmetry_multiplicity
 _atom_site_fract_x
 _atom_site_fract_y
 _atom_site_fract_z
 _atom_site_occupancy
  Pb  Pb0  1  0.26743928  0.27788327  0.93569844  1
  Pb  Pb1  1  0.72211673  0.73256072  0.06430156  1
  S  S2  1  0.75405432  0.78421033  0.94437296  1
  S  S3  1  0.21578967  0.24594568  0.05562704  1
