# generated using pymatgen
data_Fe(SbO3)2
_symmetry_space_group_name_H-M   'P 1'
_cell_length_a   4.68125106
_cell_length_b   9.36241506
_cell_length_c   9.40562073
_cell_angle_alpha   90.00000000
_cell_angle_beta   90.00000000
_cell_angle_gamma   90.00000000
_symmetry_Int_Tables_number   1
_chemical_formula_structural   Fe(SbO3)2
_chemical_formula_sum   'Fe4 Sb8 O24'
_cell_volume   412.22780930
_cell_formula_units_Z   4
loop_
 _symmetry_equiv_pos_site_id
 _symmetry_equiv_pos_as_xyz
  1  'x, y, z'
loop_
 _atom_site_type_symbol
 _atom_site_label
 _atom_site_symmetry_multiplicity
 _atom_site_fract_x
 _atom_site_fract_y
 _atom_site_fract_z
 _atom_site_occupancy
  Fe  Fe0  1  0.99984887  0.50014039  -0.00000000  1
  Fe  Fe1  1  0.49984887  0.74985961  0.50000000  1
  Fe  Fe2  1  0.99984887  0.00014039  -0.00000000  1
  Fe  Fe3  1  0.49984887  0.24985961  0.50000000  1
  Sb  Sb4  1  -0.00001814  0.99995952  0.33240937  1
  Sb  Sb5  1  -0.00001814  0.49995952  0.33240937  1
  Sb  Sb6  1  0.49998186  0.25004048  0.83240937  1
  Sb  Sb7  1  0.49998186  0.75004048  0.83240937  1
  Sb  Sb8  1  0.49998186  0.25004048  0.16759063  1
  Sb  Sb9  1  0.49998186  0.75004048  0.16759063  1
  Sb  Sb10  1  -0.00001814  0.99995952  0.66759063  1
  Sb  Sb11  1  -0.00001814  0.49995952  0.66759063  1
  O  O12  1  0.30961528  0.15480036  -0.00000000  1
  O  O13  1  0.30961528  0.65480036  -0.00000000  1
  O  O14  1  0.19050329  0.40472254  0.50000000  1
  O  O15  1  0.19050329  0.90472254  0.50000000  1
  O  O16  1  0.80961528  0.09519964  0.50000000  1
  O  O17  1  0.80961528  0.59519964  0.50000000  1
  O  O18  1  0.69050329  0.34527746  -0.00000000  1
  O  O19  1  0.69050329  0.84527746  -0.00000000  1
  O  O20  1  0.30247892  0.15117065  0.32850118  1
  O  O21  1  0.30247892  0.65117065  0.32850118  1
  O  O22  1  0.19755650  0.40124880  0.82856349  1
  O  O23  1  0.19755650  0.90124880  0.82856349  1
  O  O24  1  0.80247892  0.09882935  0.82850118  1
  O  O25  1  0.80247892  0.59882935  0.82850118  1
  O  O26  1  0.80247892  0.09882935  0.17149882  1
  O  O27  1  0.80247892  0.59882935  0.17149882  1
  O  O28  1  0.19755650  0.40124880  0.17143651  1
  O  O29  1  0.19755650  0.90124880  0.17143651  1
  O  O30  1  0.69755650  0.34875120  0.32856349  1
  O  O31  1  0.69755650  0.84875120  0.32856349  1
  O  O32  1  0.30247892  0.15117065  0.67149882  1
  O  O33  1  0.30247892  0.65117065  0.67149882  1
  O  O34  1  0.69755650  0.34875120  0.67143651  1
  O  O35  1  0.69755650  0.84875120  0.67143651  1
