# generated using pymatgen
data_SrV3O7
_symmetry_space_group_name_H-M   'P 1'
_cell_length_a   5.26375888
_cell_length_b   5.36113202
_cell_length_c   10.52209752
_cell_angle_alpha   89.99932601
_cell_angle_beta   89.99991736
_cell_angle_gamma   89.99983910
_symmetry_Int_Tables_number   1
_chemical_formula_structural   SrV3O7
_chemical_formula_sum   'Sr2 V6 O14'
_cell_volume   296.93050142
_cell_formula_units_Z   2
loop_
 _symmetry_equiv_pos_site_id
 _symmetry_equiv_pos_as_xyz
  1  'x, y, z'
loop_
 _atom_site_type_symbol
 _atom_site_label
 _atom_site_symmetry_multiplicity
 _atom_site_fract_x
 _atom_site_fract_y
 _atom_site_fract_z
 _atom_site_occupancy
  Sr  Sr0  1  0.24999858  0.14285588  0.24999962  1
  Sr  Sr1  1  0.74999183  0.85714825  0.75000052  1
  V  V2  1  0.74999753  0.59338530  0.24999729  1
  V  V3  1  0.74999772  0.37800306  0.98400381  1
  V  V4  1  0.74999990  0.37801020  0.51599578  1
  V  V5  1  0.24999529  0.40661183  0.75000252  1
  V  V6  1  0.24999787  0.62198428  0.01599619  1
  V  V7  1  0.24999989  0.62198312  0.48400322  1
  O  O8  1  0.75000332  0.89990852  0.24999532  1
  O  O9  1  0.25000459  0.10009428  0.75000484  1
  O  O10  1  0.25000462  0.91998076  0.04665976  1
  O  O11  1  0.75000675  0.08002702  0.95334204  1
  O  O12  1  0.75000762  0.08003877  0.54665980  1
  O  O13  1  0.25000751  0.91997974  0.45334115  1
  O  O14  1  0.51324785  0.46385744  0.12085222  1
  O  O15  1  0.01324451  0.53613985  0.87914827  1
  O  O16  1  0.48674760  0.53613646  0.62085337  1
  O  O17  1  0.98675123  0.46386442  0.37914645  1
  O  O18  1  0.48674655  0.53613281  0.87914681  1
  O  O19  1  0.98674967  0.46385897  0.12085154  1
  O  O20  1  0.51325122  0.46386125  0.37914735  1
  O  O21  1  0.01324833  0.53613981  0.62085213  1
