# generated using pymatgen
data_K2(ReSe2)3
_symmetry_space_group_name_H-M   'P 1'
_cell_length_a   10.04218985
_cell_length_b   10.04218985
_cell_length_c   12.41291725
_cell_angle_alpha   88.71508725
_cell_angle_beta   88.71508725
_cell_angle_gamma   60.82083962
_symmetry_Int_Tables_number   1
_chemical_formula_structural   K2(ReSe2)3
_chemical_formula_sum   'K8 Re12 Se24'
_cell_volume   1092.56574672
_cell_formula_units_Z   4
loop_
 _symmetry_equiv_pos_site_id
 _symmetry_equiv_pos_as_xyz
  1  'x, y, z'
loop_
 _atom_site_type_symbol
 _atom_site_label
 _atom_site_symmetry_multiplicity
 _atom_site_fract_x
 _atom_site_fract_y
 _atom_site_fract_z
 _atom_site_occupancy
  K  K0  1  0.60314911  0.39685089  0.75000000  1
  K  K1  1  0.39685089  0.60314911  0.25000000  1
  K  K2  1  0.21729296  0.78270704  0.75000000  1
  K  K3  1  0.78270704  0.21729296  0.25000000  1
  K  K4  1  0.12337993  0.64812560  0.01739382  1
  K  K5  1  0.35187440  0.87662007  0.48260618  1
  K  K6  1  0.87662007  0.35187440  0.98260618  1
  K  K7  1  0.64812560  0.12337993  0.51739382  1
  Re  Re8  1  0.00342180  0.31545450  0.52586581  1
  Re  Re9  1  0.68454550  0.99657820  0.97413419  1
  Re  Re10  1  0.99657820  0.68454550  0.47413419  1
  Re  Re11  1  0.31545450  0.00342180  0.02586581  1
  Re  Re12  1  0.11268579  0.47035136  0.62551590  1
  Re  Re13  1  0.52964864  0.88731421  0.87448410  1
  Re  Re14  1  0.88731421  0.52964864  0.37448410  1
  Re  Re15  1  0.47035136  0.11268579  0.12551590  1
  Re  Re16  1  0.81845642  0.60052440  0.58127557  1
  Re  Re17  1  0.39947560  0.18154358  0.91872443  1
  Re  Re18  1  0.18154358  0.39947560  0.41872443  1
  Re  Re19  1  0.60052440  0.81845642  0.08127557  1
  Se  Se20  1  0.07181069  0.25267305  0.33018480  1
  Se  Se21  1  0.74732695  0.92818931  0.16981520  1
  Se  Se22  1  0.92818931  0.74732695  0.66981520  1
  Se  Se23  1  0.25267305  0.07181069  0.83018480  1
  Se  Se24  1  0.80000480  0.71408377  0.93097958  1
  Se  Se25  1  0.28591623  0.19999520  0.56902042  1
  Se  Se26  1  0.19999520  0.28591623  0.06902042  1
  Se  Se27  1  0.71408377  0.80000480  0.43097958  1
  Se  Se28  1  0.06050895  0.61097899  0.27839591  1
  Se  Se29  1  0.38902101  0.93949105  0.22160409  1
  Se  Se30  1  0.93949105  0.38902101  0.72160409  1
  Se  Se31  1  0.61097899  0.06050895  0.77839591  1
  Se  Se32  1  0.28185159  0.55263608  0.51882099  1
  Se  Se33  1  0.44736392  0.71814841  0.98117901  1
  Se  Se34  1  0.71814841  0.44736392  0.48117901  1
  Se  Se35  1  0.55263608  0.28185159  0.01882099  1
  Se  Se36  1  0.06699700  0.99646261  0.08136223  1
  Se  Se37  1  0.00353739  0.93300300  0.41863777  1
  Se  Se38  1  0.93300300  0.00353739  0.91863777  1
  Se  Se39  1  0.99646261  0.06699700  0.58136223  1
  Se  Se40  1  0.26473158  0.43940275  0.80440625  1
  Se  Se41  1  0.56059725  0.73526842  0.69559375  1
  Se  Se42  1  0.73526842  0.56059725  0.19559375  1
  Se  Se43  1  0.43940275  0.26473158  0.30440625  1
