# generated using pymatgen
data_TeO2
_symmetry_space_group_name_H-M   'P 1'
_cell_length_a   4.74093415
_cell_length_b   4.90657941
_cell_length_c   7.67309729
_cell_angle_alpha   90.00000000
_cell_angle_beta   90.00000000
_cell_angle_gamma   90.00000000
_symmetry_Int_Tables_number   1
_chemical_formula_structural   TeO2
_chemical_formula_sum   'Te4 O8'
_cell_volume   178.48982346
_cell_formula_units_Z   4
loop_
 _symmetry_equiv_pos_site_id
 _symmetry_equiv_pos_as_xyz
  1  'x, y, z'
loop_
 _atom_site_type_symbol
 _atom_site_label
 _atom_site_symmetry_multiplicity
 _atom_site_fract_x
 _atom_site_fract_y
 _atom_site_fract_z
 _atom_site_occupancy
  Te  Te0  1  0.72205435  0.52829751  0.37650171  1
  Te  Te1  1  0.27794565  0.02829751  0.12349829  1
  Te  Te2  1  0.22205435  0.97170249  0.62349829  1
  Te  Te3  1  0.77794565  0.47170249  0.87650171  1
  O  O4  1  0.52624308  0.12973742  0.94291209  1
  O  O5  1  0.02624308  0.37026258  0.05708791  1
  O  O6  1  0.39892172  0.24681946  0.31109755  1
  O  O7  1  0.47375692  0.62973742  0.55708791  1
  O  O8  1  0.97375692  0.87026258  0.44291209  1
  O  O9  1  0.10107828  0.75318054  0.81109755  1
  O  O10  1  0.60107828  0.74681946  0.18890245  1
  O  O11  1  0.89892172  0.25318054  0.68890245  1
