# generated using pymatgen
data_Sn5(PO5)2
_symmetry_space_group_name_H-M   'P 1'
_cell_length_a   7.17069622
_cell_length_b   7.20119573
_cell_length_c   12.91842998
_cell_angle_alpha   87.99968882
_cell_angle_beta   85.96215396
_cell_angle_gamma   61.70489598
_symmetry_Int_Tables_number   1
_chemical_formula_structural   Sn5(PO5)2
_chemical_formula_sum   'Sn10 P4 O20'
_cell_volume   585.91393036
_cell_formula_units_Z   2
loop_
 _symmetry_equiv_pos_site_id
 _symmetry_equiv_pos_as_xyz
  1  'x, y, z'
loop_
 _atom_site_type_symbol
 _atom_site_label
 _atom_site_symmetry_multiplicity
 _atom_site_fract_x
 _atom_site_fract_y
 _atom_site_fract_z
 _atom_site_occupancy
  Sn  Sn0  1  0.99228132  0.69700841  0.16472464  1
  Sn  Sn1  1  0.43923025  0.77965707  0.14324748  1
  Sn  Sn2  1  0.67019081  0.31173232  0.37657818  1
  Sn  Sn3  1  0.00771868  0.30299159  0.83527536  1
  Sn  Sn4  1  0.93453671  0.23805446  0.12962925  1
  Sn  Sn5  1  0.56076975  0.22034293  0.85675252  1
  Sn  Sn6  1  0.19743532  0.19646943  0.37902764  1
  Sn  Sn7  1  0.32980919  0.68826768  0.62342182  1
  Sn  Sn8  1  0.06546329  0.76194554  0.87037075  1
  Sn  Sn9  1  0.80256468  0.80353057  0.62097236  1
  P  P10  1  0.94027209  0.19608924  0.60511791  1
  P  P11  1  0.05972791  0.80391076  0.39488209  1
  P  P12  1  0.47250645  0.24025969  0.12238656  1
  P  P13  1  0.52749355  0.75974031  0.87761344  1
  O  O14  1  0.08057646  0.70888463  0.50634809  1
  O  O15  1  0.10890084  0.91182819  0.14838357  1
  O  O16  1  0.68700946  0.52455119  0.88730572  1
  O  O17  1  0.31299054  0.47544881  0.11269428  1
  O  O18  1  0.22239123  0.88436742  0.37693058  1
  O  O19  1  0.77760877  0.11563258  0.62306942  1
  O  O20  1  0.10563539  0.62810066  0.31715857  1
  O  O21  1  0.35296408  0.78728825  0.80478260  1
  O  O22  1  0.64703592  0.21271175  0.19521740  1
  O  O23  1  0.17025909  0.02274892  0.61304717  1
  O  O24  1  0.58696882  0.14957792  0.01755100  1
  O  O25  1  0.35399391  0.11998264  0.16665056  1
  O  O26  1  0.82974091  0.97725108  0.38695283  1
  O  O27  1  0.93526831  0.29721557  0.28680336  1
  O  O28  1  0.64600609  0.88001736  0.83334944  1
  O  O29  1  0.06473169  0.70278443  0.71319664  1
  O  O30  1  0.89436461  0.37189934  0.68284143  1
  O  O31  1  0.41303118  0.85042208  0.98244900  1
  O  O32  1  0.89109916  0.08817181  0.85161643  1
  O  O33  1  0.91942354  0.29111537  0.49365191  1
