# generated using pymatgen
data_CsInS2
_symmetry_space_group_name_H-M   'P 1'
_cell_length_a   7.98597406
_cell_length_b   7.98597406
_cell_length_c   16.50064101
_cell_angle_alpha   83.03538476
_cell_angle_beta   83.03538476
_cell_angle_gamma   90.01002312
_symmetry_Int_Tables_number   1
_chemical_formula_structural   CsInS2
_chemical_formula_sum   'Cs8 In8 S16'
_cell_volume   1036.75038411
_cell_formula_units_Z   8
loop_
 _symmetry_equiv_pos_site_id
 _symmetry_equiv_pos_as_xyz
  1  'x, y, z'
loop_
 _atom_site_type_symbol
 _atom_site_label
 _atom_site_symmetry_multiplicity
 _atom_site_fract_x
 _atom_site_fract_y
 _atom_site_fract_z
 _atom_site_occupancy
  Cs  Cs0  1  0.72320179  0.34835870  0.10778883  1
  Cs  Cs1  1  0.72422527  0.84753671  0.10725888  1
  Cs  Cs2  1  0.27577473  0.15246329  0.89274112  1
  Cs  Cs3  1  0.15246329  0.27577473  0.39274112  1
  Cs  Cs4  1  0.65164130  0.27679821  0.39221117  1
  Cs  Cs5  1  0.27679821  0.65164130  0.89221117  1
  Cs  Cs6  1  0.34835870  0.72320179  0.60778883  1
  Cs  Cs7  1  0.84753671  0.72422527  0.60725888  1
  In  In8  1  0.20876601  0.08128413  0.16510541  1
  In  In9  1  0.79140214  0.41421230  0.83459068  1
  In  In10  1  0.91871587  0.79123399  0.33489459  1
  In  In11  1  0.58578770  0.20859786  0.66540932  1
  In  In12  1  0.79123399  0.91871587  0.83489459  1
  In  In13  1  0.08128413  0.20876601  0.66510541  1
  In  In14  1  0.41421230  0.79140214  0.33459068  1
  In  In15  1  0.20859786  0.58578770  0.16540932  1
  S  S16  1  0.93143644  0.06856356  0.25000000  1
  S  S17  1  0.23071302  0.85638264  0.07286162  1
  S  S18  1  0.14361736  0.76928698  0.42713838  1
  S  S19  1  0.06848847  0.44445852  0.74947180  1
  S  S20  1  0.85638264  0.23071302  0.57286162  1
  S  S21  1  0.23124725  0.35641103  0.07511015  1
  S  S22  1  0.76928698  0.14361736  0.92713838  1
  S  S23  1  0.76875275  0.64358897  0.92488985  1
  S  S24  1  0.55613214  0.44386786  0.75000000  1
  S  S25  1  0.35641103  0.23124725  0.57511015  1
  S  S26  1  0.44445852  0.06848847  0.24947180  1
  S  S27  1  0.55554148  0.93151153  0.75052820  1
  S  S28  1  0.06856356  0.93143644  0.75000000  1
  S  S29  1  0.44386786  0.55613214  0.25000000  1
  S  S30  1  0.93151153  0.55554148  0.25052820  1
  S  S31  1  0.64358897  0.76875275  0.42488985  1
