# generated using pymatgen
data_La2Si2O7
_symmetry_space_group_name_H-M   'P 1'
_cell_length_a   8.77506910
_cell_length_b   5.45327678
_cell_length_c   14.29032186
_cell_angle_alpha   67.23995111
_cell_angle_beta   90.00000000
_cell_angle_gamma   90.00000000
_symmetry_Int_Tables_number   1
_chemical_formula_structural   La2Si2O7
_chemical_formula_sum   'La8 Si8 O28'
_cell_volume   630.58512746
_cell_formula_units_Z   4
loop_
 _symmetry_equiv_pos_site_id
 _symmetry_equiv_pos_as_xyz
  1  'x, y, z'
loop_
 _atom_site_type_symbol
 _atom_site_label
 _atom_site_symmetry_multiplicity
 _atom_site_fract_x
 _atom_site_fract_y
 _atom_site_fract_z
 _atom_site_occupancy
  La  La0  1  0.60841641  0.16806149  0.58901042  1
  La  La1  1  0.10841641  0.83193851  0.91098958  1
  La  La2  1  0.39158359  0.83193851  0.41098958  1
  La  La3  1  0.89158359  0.16806149  0.08901042  1
  La  La4  1  0.80896681  0.48428233  0.76783589  1
  La  La5  1  0.30896681  0.51571767  0.73216411  1
  La  La6  1  0.19103319  0.51571767  0.23216411  1
  La  La7  1  0.69103319  0.48428233  0.26783589  1
  Si  Si8  1  0.49326319  0.05067426  0.17975346  1
  Si  Si9  1  0.99326319  0.94932574  0.32024654  1
  Si  Si10  1  0.50673681  0.94932574  0.82024654  1
  Si  Si11  1  0.00673681  0.05067426  0.67975346  1
  Si  Si12  1  0.24535419  0.24213231  0.02717792  1
  Si  Si13  1  0.74535419  0.75786769  0.47282208  1
  Si  Si14  1  0.75464581  0.75786769  0.97282208  1
  Si  Si15  1  0.25464581  0.24213231  0.52717792  1
  O  O16  1  0.67072369  0.98177900  0.17326955  1
  O  O17  1  0.17072369  0.01822100  0.32673045  1
  O  O18  1  0.32927631  0.01822100  0.82673045  1
  O  O19  1  0.82927631  0.98177900  0.67326955  1
  O  O20  1  0.41518568  0.76270190  0.24159255  1
  O  O21  1  0.91518568  0.23729810  0.25840745  1
  O  O22  1  0.58481432  0.23729810  0.75840745  1
  O  O23  1  0.08481432  0.76270190  0.74159255  1
  O  O24  1  0.46935556  0.23092428  0.24719654  1
  O  O25  1  0.96935556  0.76907572  0.25280346  1
  O  O26  1  0.53064444  0.76907572  0.75280346  1
  O  O27  1  0.03064444  0.23092428  0.74719654  1
  O  O28  1  0.23757504  0.42060941  0.90716831  1
  O  O29  1  0.73757504  0.57939059  0.59283169  1
  O  O30  1  0.76242496  0.57939059  0.09283169  1
  O  O31  1  0.26242496  0.42060941  0.40716831  1
  O  O32  1  0.07996585  0.19936415  0.56730348  1
  O  O33  1  0.57996585  0.80063585  0.93269652  1
  O  O34  1  0.92003415  0.80063585  0.43269652  1
  O  O35  1  0.42003415  0.19936415  0.06730348  1
  O  O36  1  0.34528074  0.96023058  0.55751491  1
  O  O37  1  0.84528074  0.03976942  0.94248509  1
  O  O38  1  0.65471926  0.03976942  0.44248509  1
  O  O39  1  0.15471926  0.96023058  0.05751491  1
  O  O40  1  0.35467658  0.41319970  0.57914653  1
  O  O41  1  0.85467658  0.58680030  0.92085347  1
  O  O42  1  0.64532342  0.58680030  0.42085347  1
  O  O43  1  0.14532342  0.41319970  0.07914653  1
