# generated using pymatgen
data_ZnS
_symmetry_space_group_name_H-M   'P 1'
_cell_length_a   3.81024234
_cell_length_b   3.81024222
_cell_length_c   68.46594218
_cell_angle_alpha   90.00000000
_cell_angle_beta   90.00000000
_cell_angle_gamma   119.99999216
_symmetry_Int_Tables_number   1
_chemical_formula_structural   ZnS
_chemical_formula_sum   'Zn22 S22'
_cell_volume   860.81621466
_cell_formula_units_Z   22
loop_
 _symmetry_equiv_pos_site_id
 _symmetry_equiv_pos_as_xyz
  1  'x, y, z'
loop_
 _atom_site_type_symbol
 _atom_site_label
 _atom_site_symmetry_multiplicity
 _atom_site_fract_x
 _atom_site_fract_y
 _atom_site_fract_z
 _atom_site_occupancy
  Zn  Zn0  1  0.66666700  0.33333300  0.36345312  1
  Zn  Zn1  1  0.66666700  0.33333300  0.63644828  1
  Zn  Zn2  1  -0.00000000  -0.00000000  0.81808873  1
  Zn  Zn3  1  0.33333300  0.66666700  0.31808773  1
  Zn  Zn4  1  0.33333300  0.66666700  0.95449599  1
  Zn  Zn5  1  0.33333300  0.66666700  0.04566200  1
  Zn  Zn6  1  -0.00000000  0.00000000  0.54536763  1
  Zn  Zn7  1  0.00000000  0.00000000  0.27277821  1
  Zn  Zn8  1  0.00000000  -0.00000000  0.13653696  1
  Zn  Zn9  1  0.66666700  0.33333300  0.90901447  1
  Zn  Zn10  1  0.33333300  0.66666700  0.72736563  1
  Zn  Zn11  1  0.33333300  0.66666700  0.59093723  1
  Zn  Zn12  1  0.33333300  0.66666700  0.18204581  1
  Zn  Zn13  1  0.00000000  -0.00000000  0.68192113  1
  Zn  Zn14  1  0.66666700  0.33333300  0.09111888  1
  Zn  Zn15  1  0.00000000  0.00000000  0.40887122  1
  Zn  Zn16  1  0.66666700  0.33333300  0.77273289  1
  Zn  Zn17  1  0.33333300  0.66666700  0.45425459  1
  Zn  Zn18  1  0.00000000  0.00000000  0.00004793  1
  Zn  Zn19  1  0.66666700  0.33333300  0.22746158  1
  Zn  Zn20  1  0.33333300  0.66666700  0.86354377  1
  Zn  Zn21  1  0.66666700  0.33333300  0.49976878  1
  S  S22  1  0.33333300  0.66666700  0.76142291  1
  S  S23  1  0.33333300  0.66666700  0.07975107  1
  S  S24  1  0.66666700  0.33333300  0.53392003  1
  S  S25  1  -0.00000000  0.00000000  0.30680102  1
  S  S26  1  0.33333300  0.66666700  0.98857872  1
  S  S27  1  0.33333300  0.66666700  0.48835474  1
  S  S28  1  0.66666700  0.33333300  0.94313186  1
  S  S29  1  0.66666700  0.33333300  0.26150050  1
  S  S30  1  0.66666700  0.33333300  0.12518514  1
  S  S31  1  -0.00000000  0.00000000  0.17064199  1
  S  S32  1  0.66666700  0.33333300  0.67054242  1
  S  S33  1  0.66666700  0.33333300  0.39752797  1
  S  S34  1  0.33333300  0.66666700  0.89760794  1
  S  S35  1  0.33333300  0.66666700  0.35213064  1
  S  S36  1  -0.00000000  0.00000000  0.57951177  1
  S  S37  1  0.33333300  0.66666700  0.21612862  1
  S  S38  1  -0.00000000  -0.00000000  0.44292466  1
  S  S39  1  0.00000000  0.00000000  0.71600652  1
  S  S40  1  -0.00000000  0.00000000  0.85216496  1
  S  S41  1  -0.00000000  0.00000000  0.03422343  1
  S  S42  1  0.66666700  0.33333300  0.80677899  1
  S  S43  1  0.33333300  0.66666700  0.62505553  1
