# generated using pymatgen
data_K2PbO2
_symmetry_space_group_name_H-M   'P 1'
_cell_length_a   7.32732357
_cell_length_b   7.51094697
_cell_length_c   9.97597018
_cell_angle_alpha   84.71945142
_cell_angle_beta   69.92506192
_cell_angle_gamma   61.17031928
_symmetry_Int_Tables_number   1
_chemical_formula_structural   K2PbO2
_chemical_formula_sum   'K8 Pb4 O8'
_cell_volume   449.95322655
_cell_formula_units_Z   4
loop_
 _symmetry_equiv_pos_site_id
 _symmetry_equiv_pos_as_xyz
  1  'x, y, z'
loop_
 _atom_site_type_symbol
 _atom_site_label
 _atom_site_symmetry_multiplicity
 _atom_site_fract_x
 _atom_site_fract_y
 _atom_site_fract_z
 _atom_site_occupancy
  K  K0  1  0.23523924  0.27301760  0.49434242  1
  K  K1  1  0.07846970  0.92807600  0.17356197  1
  K  K2  1  0.93328008  0.54819777  0.83178448  1
  K  K3  1  0.92153030  0.07192400  0.82643803  1
  K  K4  1  0.60366032  0.43145404  0.13812103  1
  K  K5  1  0.06671992  0.45180223  0.16821552  1
  K  K6  1  0.39633968  0.56854596  0.86187897  1
  K  K7  1  0.76476076  0.72698240  0.50565758  1
  Pb  Pb8  1  0.59956959  0.93909863  0.13381370  1
  Pb  Pb9  1  0.29760733  0.71775177  0.47463383  1
  Pb  Pb10  1  0.70239267  0.28224823  0.52536617  1
  Pb  Pb11  1  0.40043041  0.06090137  0.86618630  1
  O  O12  1  0.49924248  0.79783973  0.00637160  1
  O  O13  1  0.81035515  0.39957602  0.65095648  1
  O  O14  1  0.94299334  0.78236715  0.01514631  1
  O  O15  1  0.50075752  0.20216027  0.99362840  1
  O  O16  1  0.05700666  0.21763285  0.98485369  1
  O  O17  1  0.18964485  0.60042398  0.34904352  1
  O  O18  1  0.66390851  0.51895815  0.36888850  1
  O  O19  1  0.33609149  0.48104185  0.63111150  1
