# generated using pymatgen
data_Ta2MnO6
_symmetry_space_group_name_H-M   'P 1'
_cell_length_a   5.08849525
_cell_length_b   5.77282803
_cell_length_c   14.40662839
_cell_angle_alpha   90.00000000
_cell_angle_beta   90.00000000
_cell_angle_gamma   90.00000000
_symmetry_Int_Tables_number   1
_chemical_formula_structural   Ta2MnO6
_chemical_formula_sum   'Ta8 Mn4 O24'
_cell_volume   423.19482435
_cell_formula_units_Z   4
loop_
 _symmetry_equiv_pos_site_id
 _symmetry_equiv_pos_as_xyz
  1  'x, y, z'
loop_
 _atom_site_type_symbol
 _atom_site_label
 _atom_site_symmetry_multiplicity
 _atom_site_fract_x
 _atom_site_fract_y
 _atom_site_fract_z
 _atom_site_occupancy
  Ta  Ta0  1  0.23789733  0.67671979  0.16182623  1
  Ta  Ta1  1  0.73789733  0.82328021  0.33817377  1
  Ta  Ta2  1  0.26210267  0.67671979  0.83817377  1
  Ta  Ta3  1  0.76210267  0.82328021  0.66182623  1
  Ta  Ta4  1  0.76210267  0.32328021  0.83817377  1
  Ta  Ta5  1  0.26210267  0.17671979  0.66182623  1
  Ta  Ta6  1  0.73789733  0.32328021  0.16182623  1
  Ta  Ta7  1  0.23789733  0.17671979  0.33817377  1
  Mn  Mn8  1  0.75000000  0.82906192  0.00000000  1
  Mn  Mn9  1  0.25000000  0.67093808  0.50000000  1
  Mn  Mn10  1  0.25000000  0.17093808  0.00000000  1
  Mn  Mn11  1  0.75000000  0.32906192  0.50000000  1
  O  O12  1  0.56302364  0.60017988  0.09853446  1
  O  O13  1  0.06302364  0.89982012  0.40146554  1
  O  O14  1  0.93697636  0.60017988  0.90146554  1
  O  O15  1  0.43697636  0.89982012  0.59853446  1
  O  O16  1  0.43697636  0.39982012  0.90146554  1
  O  O17  1  0.93697636  0.10017988  0.59853446  1
  O  O18  1  0.06302364  0.39982012  0.09853446  1
  O  O19  1  0.56302364  0.10017988  0.40146554  1
  O  O20  1  0.09425304  0.88370946  0.08121366  1
  O  O21  1  0.59425304  0.61629054  0.41878634  1
  O  O22  1  0.40574696  0.88370946  0.91878634  1
  O  O23  1  0.90574696  0.61629054  0.58121366  1
  O  O24  1  0.90574696  0.11629054  0.91878634  1
  O  O25  1  0.40574696  0.38370946  0.58121366  1
  O  O26  1  0.59425304  0.11629054  0.08121366  1
  O  O27  1  0.09425304  0.38370946  0.41878634  1
  O  O28  1  0.41282113  0.87293843  0.25578683  1
  O  O29  1  0.91282113  0.62706157  0.24421317  1
  O  O30  1  0.08717887  0.87293843  0.74421317  1
  O  O31  1  0.58717887  0.62706157  0.75578683  1
  O  O32  1  0.58717887  0.12706157  0.74421317  1
  O  O33  1  0.08717887  0.37293843  0.75578683  1
  O  O34  1  0.91282113  0.12706157  0.25578683  1
  O  O35  1  0.41282113  0.37293843  0.24421317  1
