# generated using pymatgen
data_Li3TaO4
_symmetry_space_group_name_H-M   'P 1'
_cell_length_a   5.95815596
_cell_length_b   5.98245306
_cell_length_c   12.71407173
_cell_angle_alpha   103.56518645
_cell_angle_beta   90.00000000
_cell_angle_gamma   90.00000000
_symmetry_Int_Tables_number   1
_chemical_formula_structural   Li3TaO4
_chemical_formula_sum   'Li18 Ta6 O24'
_cell_volume   440.54311515
_cell_formula_units_Z   6
loop_
 _symmetry_equiv_pos_site_id
 _symmetry_equiv_pos_as_xyz
  1  'x, y, z'
loop_
 _atom_site_type_symbol
 _atom_site_label
 _atom_site_symmetry_multiplicity
 _atom_site_fract_x
 _atom_site_fract_y
 _atom_site_fract_z
 _atom_site_occupancy
  Li  Li0  1  0.12316829  0.17445688  0.09124173  1
  Li  Li1  1  0.62487238  0.87483826  0.41714699  1
  Li  Li2  1  0.87683171  0.82554312  0.90875827  1
  Li  Li3  1  0.62524259  0.32630385  0.42463868  1
  Li  Li4  1  0.12316829  0.82554312  0.40875827  1
  Li  Li5  1  0.60979596  -0.00000000  0.75000000  1
  Li  Li6  1  0.37512762  0.12516174  0.58285301  1
  Li  Li7  1  0.62487238  0.12516174  0.08285301  1
  Li  Li8  1  0.62524259  0.67369615  0.07536132  1
  Li  Li9  1  0.16675402  -0.00000000  0.75000000  1
  Li  Li10  1  0.37475741  0.67369615  0.57536132  1
  Li  Li11  1  0.37475741  0.32630385  0.92463868  1
  Li  Li12  1  0.39020404  -0.00000000  0.25000000  1
  Li  Li13  1  0.37512762  0.87483826  0.91714699  1
  Li  Li14  1  0.87683171  0.17445688  0.59124173  1
  Li  Li15  1  0.88079379  0.50000000  0.25000000  1
  Li  Li16  1  0.83324598  -0.00000000  0.25000000  1
  Li  Li17  1  0.11920621  0.50000000  0.75000000  1
  Ta  Ta18  1  0.87729292  0.70099815  0.58359923  1
  Ta  Ta19  1  0.41121897  0.50000000  0.25000000  1
  Ta  Ta20  1  0.12270708  0.29900185  0.41640077  1
  Ta  Ta21  1  0.12270708  0.70099815  0.08359923  1
  Ta  Ta22  1  0.58878103  0.50000000  0.75000000  1
  Ta  Ta23  1  0.87729292  0.29900185  0.91640077  1
  O  O24  1  0.63860507  0.90516881  0.57983370  1
  O  O25  1  0.35957497  0.56583387  0.40846897  1
  O  O26  1  0.88510546  0.90813528  0.08763192  1
  O  O27  1  0.64042503  0.43416613  0.59153103  1
  O  O28  1  0.13784464  0.73004000  0.24197856  1
  O  O29  1  0.88679370  0.57144039  0.42508294  1
  O  O30  1  0.36139493  0.90516881  0.07983370  1
  O  O31  1  0.35957497  0.43416613  0.09153103  1
  O  O32  1  0.63860507  0.09483119  0.92016630  1
  O  O33  1  0.36139493  0.09483119  0.42016630  1
  O  O34  1  0.61458292  0.74106893  0.25444770  1
  O  O35  1  0.38541708  0.74106893  0.75444770  1
  O  O36  1  0.11320630  0.57144039  0.92508294  1
  O  O37  1  0.13784464  0.26996000  0.25802144  1
  O  O38  1  0.61458292  0.25893107  0.24555230  1
  O  O39  1  0.11489454  0.09186472  0.91236808  1
  O  O40  1  0.86215536  0.73004000  0.74197856  1
  O  O41  1  0.88679370  0.42855961  0.07491706  1
  O  O42  1  0.64042503  0.56583387  0.90846897  1
  O  O43  1  0.11489454  0.90813528  0.58763192  1
  O  O44  1  0.11320630  0.42855961  0.57491706  1
  O  O45  1  0.88510546  0.09186472  0.41236808  1
  O  O46  1  0.38541708  0.25893107  0.74555230  1
  O  O47  1  0.86215536  0.26996000  0.75802144  1
