# generated using pymatgen
data_Cs3AlO3
_symmetry_space_group_name_H-M   'P 1'
_cell_length_a   12.78262266
_cell_length_b   7.21032597
_cell_length_c   7.91844959
_cell_angle_alpha   65.46093375
_cell_angle_beta   90.00000000
_cell_angle_gamma   90.00000000
_symmetry_Int_Tables_number   1
_chemical_formula_structural   Cs3AlO3
_chemical_formula_sum   'Cs12 Al4 O12'
_cell_volume   663.90029665
_cell_formula_units_Z   4
loop_
 _symmetry_equiv_pos_site_id
 _symmetry_equiv_pos_as_xyz
  1  'x, y, z'
loop_
 _atom_site_type_symbol
 _atom_site_label
 _atom_site_symmetry_multiplicity
 _atom_site_fract_x
 _atom_site_fract_y
 _atom_site_fract_z
 _atom_site_occupancy
  Cs  Cs0  1  0.69644494  0.86944933  0.92629014  1
  Cs  Cs1  1  0.34817805  0.56136417  0.52087237  1
  Cs  Cs2  1  0.30355506  0.13055067  0.07370986  1
  Cs  Cs3  1  0.84817805  0.93863583  0.47912763  1
  Cs  Cs4  1  0.19644494  0.63055067  0.07370986  1
  Cs  Cs5  1  0.56173569  0.01447191  0.27395446  1
  Cs  Cs6  1  0.80355506  0.36944933  0.92629014  1
  Cs  Cs7  1  0.65182195  0.43863583  0.47912763  1
  Cs  Cs8  1  0.06173569  0.48552809  0.72604554  1
  Cs  Cs9  1  0.93826431  0.51447191  0.27395446  1
  Cs  Cs10  1  0.43826431  0.98552809  0.72604554  1
  Cs  Cs11  1  0.15182195  0.06136417  0.52087237  1
  Al  Al12  1  0.45517066  0.51348850  0.14085065  1
  Al  Al13  1  0.54482934  0.48651150  0.85914935  1
  Al  Al14  1  0.04482934  0.01348850  0.14085065  1
  Al  Al15  1  0.95517066  0.98651150  0.85914935  1
  O  O16  1  0.90085769  0.19758905  0.67304495  1
  O  O17  1  0.41111286  0.53116308  0.91433466  1
  O  O18  1  0.08888714  0.03116308  0.91433466  1
  O  O19  1  0.06251454  0.24162478  0.16546407  1
  O  O20  1  0.09914231  0.80241095  0.32695505  1
  O  O21  1  0.40085769  0.30241095  0.32695505  1
  O  O22  1  0.59914231  0.69758905  0.67304495  1
  O  O23  1  0.91111286  0.96883692  0.08566534  1
  O  O24  1  0.56251454  0.25837522  0.83453593  1
  O  O25  1  0.43748546  0.74162478  0.16546407  1
  O  O26  1  0.58888714  0.46883692  0.08566534  1
  O  O27  1  0.93748546  0.75837522  0.83453593  1
