# generated using pymatgen
data_CsVO3
_symmetry_space_group_name_H-M   'P 1'
_cell_length_a   5.45086244
_cell_length_b   5.79445238
_cell_length_c   12.27054304
_cell_angle_alpha   90.00000000
_cell_angle_beta   90.00000000
_cell_angle_gamma   90.00000000
_symmetry_Int_Tables_number   1
_chemical_formula_structural   CsVO3
_chemical_formula_sum   'Cs4 V4 O12'
_cell_volume   387.56219182
_cell_formula_units_Z   4
loop_
 _symmetry_equiv_pos_site_id
 _symmetry_equiv_pos_as_xyz
  1  'x, y, z'
loop_
 _atom_site_type_symbol
 _atom_site_label
 _atom_site_symmetry_multiplicity
 _atom_site_fract_x
 _atom_site_fract_y
 _atom_site_fract_z
 _atom_site_occupancy
  Cs  Cs0  1  0.08310413  0.75000000  0.59739427  1
  Cs  Cs1  1  0.08310413  0.25000000  0.90260573  1
  Cs  Cs2  1  0.91689587  0.25000000  0.40260573  1
  Cs  Cs3  1  0.91689587  0.75000000  0.09739427  1
  V  V4  1  0.54938264  0.75000000  0.82824426  1
  V  V5  1  0.54938264  0.25000000  0.67175574  1
  V  V6  1  0.45061736  0.25000000  0.17175574  1
  V  V7  1  0.45061736  0.75000000  0.32824426  1
  O  O8  1  0.85042624  0.75000000  0.84691146  1
  O  O9  1  0.85042624  0.25000000  0.65308854  1
  O  O10  1  0.14957376  0.25000000  0.15308854  1
  O  O11  1  0.14957376  0.75000000  0.34691146  1
  O  O12  1  0.40876195  0.75000000  0.94719023  1
  O  O13  1  0.40876195  0.25000000  0.55280977  1
  O  O14  1  0.59123705  0.25000000  0.05280977  1
  O  O15  1  0.59123705  0.75000000  0.44719023  1
  O  O16  1  0.45719678  0.00000000  0.75000000  1
  O  O17  1  0.54280322  0.50000000  0.25000000  1
  O  O18  1  0.54280322  -0.00000000  0.25000000  1
  O  O19  1  0.45719678  0.50000000  0.75000000  1
