# generated using pymatgen
data_SbS(BrF2)3
_symmetry_space_group_name_H-M   'P 1'
_cell_length_a   7.93083693
_cell_length_b   9.51152865
_cell_length_c   12.34941120
_cell_angle_alpha   90.00000000
_cell_angle_beta   97.60946178
_cell_angle_gamma   90.00000000
_symmetry_Int_Tables_number   1
_chemical_formula_structural   SbS(BrF2)3
_chemical_formula_sum   'Sb4 S4 Br12 F24'
_cell_volume   923.36651079
_cell_formula_units_Z   4
loop_
 _symmetry_equiv_pos_site_id
 _symmetry_equiv_pos_as_xyz
  1  'x, y, z'
loop_
 _atom_site_type_symbol
 _atom_site_label
 _atom_site_symmetry_multiplicity
 _atom_site_fract_x
 _atom_site_fract_y
 _atom_site_fract_z
 _atom_site_occupancy
  Sb  Sb0  1  0.20260064  0.27356474  0.56396615  1
  Sb  Sb1  1  0.20260064  0.22643526  0.06396615  1
  Sb  Sb2  1  0.79739936  0.77356474  0.93603385  1
  Sb  Sb3  1  0.79739936  0.72643526  0.43603385  1
  S  S4  1  0.19906026  0.80635125  0.21227940  1
  S  S5  1  0.19906026  0.69364875  0.71227940  1
  S  S6  1  0.80093974  0.19364875  0.78772060  1
  S  S7  1  0.80093974  0.30635125  0.28772060  1
  Br  Br8  1  0.42546807  0.81704980  0.13093927  1
  Br  Br9  1  0.73679600  0.43641484  0.14385230  1
  Br  Br10  1  0.57453193  0.18295020  0.86906073  1
  Br  Br11  1  0.20394721  0.59340965  0.27294431  1
  Br  Br12  1  0.26320400  0.93641484  0.35614770  1
  Br  Br13  1  0.26320400  0.56358516  0.85614770  1
  Br  Br14  1  0.57453193  0.31704980  0.36906073  1
  Br  Br15  1  0.20394721  0.90659035  0.77294431  1
  Br  Br16  1  0.79605279  0.40659035  0.72705569  1
  Br  Br17  1  0.79605279  0.09340965  0.22705569  1
  Br  Br18  1  0.73679600  0.06358516  0.64385230  1
  Br  Br19  1  0.42546807  0.68295020  0.63093927  1
  F  F20  1  0.88241323  0.95291490  0.90485012  1
  F  F21  1  0.41869192  0.17738272  0.13694509  1
  F  F22  1  0.88241323  0.54708510  0.40485012  1
  F  F23  1  0.73175398  0.84561296  0.06825116  1
  F  F24  1  0.01012570  0.72091645  0.01307191  1
  F  F25  1  0.29318870  0.09519907  0.53235515  1
  F  F26  1  0.29318870  0.40480093  0.03235515  1
  F  F27  1  0.58130808  0.82261728  0.86305491  1
  F  F28  1  0.73175398  0.65438704  0.56825116  1
  F  F29  1  0.70681130  0.59519907  0.96764485  1
  F  F30  1  0.26824602  0.34561296  0.43174884  1
  F  F31  1  0.41869192  0.32261728  0.63694509  1
  F  F32  1  0.26824602  0.15438704  0.93174884  1
  F  F33  1  0.13527024  0.29744899  0.19512400  1
  F  F34  1  -0.01012570  0.22091645  0.48692809  1
  F  F35  1  0.11758677  0.04708510  0.09514988  1
  F  F36  1  0.01012570  0.77908355  0.51307191  1
  F  F37  1  0.86472976  0.79744899  0.30487600  1
  F  F38  1  0.86472976  0.70255101  0.80487600  1
  F  F39  1  -0.01012570  0.27908355  0.98692809  1
  F  F40  1  0.70681130  0.90480093  0.46764485  1
  F  F41  1  0.58130808  0.67738272  0.36305491  1
  F  F42  1  0.11758677  0.45291490  0.59514988  1
  F  F43  1  0.13527024  0.20255101  0.69512400  1
