# generated using pymatgen
data_CsK2CoO2
_symmetry_space_group_name_H-M   'P 1'
_cell_length_a   6.14385599
_cell_length_b   9.65138427
_cell_length_c   9.65693059
_cell_angle_alpha   75.09866503
_cell_angle_beta   99.83114901
_cell_angle_gamma   86.37250289
_symmetry_Int_Tables_number   1
_chemical_formula_structural   CsK2CoO2
_chemical_formula_sum   'Cs4 K8 Co4 O8'
_cell_volume   541.77582599
_cell_formula_units_Z   4
loop_
 _symmetry_equiv_pos_site_id
 _symmetry_equiv_pos_as_xyz
  1  'x, y, z'
loop_
 _atom_site_type_symbol
 _atom_site_label
 _atom_site_symmetry_multiplicity
 _atom_site_fract_x
 _atom_site_fract_y
 _atom_site_fract_z
 _atom_site_occupancy
  Cs  Cs0  1  0.74999046  0.50000244  0.24999034  1
  Cs  Cs1  1  0.50000000  0.00000000  0.50000000  1
  Cs  Cs2  1  0.25000954  0.49999756  0.75000966  1
  Cs  Cs3  1  0.00000000  0.00000000  0.00000000  1
  K  K4  1  0.31260415  0.37504712  0.43751689  1
  K  K5  1  0.06267199  0.87501500  0.68748729  1
  K  K6  1  0.81259202  0.37505094  0.93752660  1
  K  K7  1  0.56267268  0.87501712  0.18748809  1
  K  K8  1  0.18740798  0.62494906  0.06247340  1
  K  K9  1  0.93732801  0.12498500  0.31251271  1
  K  K10  1  0.68739585  0.62495288  0.56248311  1
  K  K11  1  0.43732732  0.12498288  0.81251191  1
  Co  Co12  1  0.12499167  0.75001229  0.37501647  1
  Co  Co13  1  0.87500833  0.24998771  0.62498353  1
  Co  Co14  1  0.37500907  0.24999120  0.12498076  1
  Co  Co15  1  0.62499093  0.75000980  0.87501924  1
  O  O16  1  0.34852656  0.66066040  0.33033480  1
  O  O17  1  0.09854706  0.16058495  0.58034240  1
  O  O18  1  0.84852681  0.66065738  0.83034240  1
  O  O19  1  0.59854535  0.16059066  0.08034003  1
  O  O20  1  0.15147319  0.33934262  0.16965760  1
  O  O21  1  0.90145294  0.83941505  0.41965760  1
  O  O22  1  0.65147344  0.33933960  0.66966520  1
  O  O23  1  0.40145465  0.83940934  0.91965997  1
