# generated using pymatgen
data_SrZrS3
_symmetry_space_group_name_H-M   'P 1'
_cell_length_a   6.76185335
_cell_length_b   7.15875562
_cell_length_c   9.80481376
_cell_angle_alpha   90.00000000
_cell_angle_beta   90.00000000
_cell_angle_gamma   90.00000000
_symmetry_Int_Tables_number   1
_chemical_formula_structural   SrZrS3
_chemical_formula_sum   'Sr4 Zr4 S12'
_cell_volume   474.61628264
_cell_formula_units_Z   4
loop_
 _symmetry_equiv_pos_site_id
 _symmetry_equiv_pos_as_xyz
  1  'x, y, z'
loop_
 _atom_site_type_symbol
 _atom_site_label
 _atom_site_symmetry_multiplicity
 _atom_site_fract_x
 _atom_site_fract_y
 _atom_site_fract_z
 _atom_site_occupancy
  Sr  Sr0  1  0.47501398  0.07998198  0.25000000  1
  Sr  Sr1  1  0.97501398  0.42001802  0.75000000  1
  Sr  Sr2  1  0.02498602  0.57998198  0.25000000  1
  Sr  Sr3  1  0.52498602  0.92001802  0.75000000  1
  Zr  Zr4  1  -0.00000000  -0.00000000  -0.00000000  1
  Zr  Zr5  1  0.50000000  0.50000000  -0.00000000  1
  Zr  Zr6  1  0.50000000  0.50000000  0.50000000  1
  Zr  Zr7  1  0.00000000  -0.00000000  0.50000000  1
  S  S8  1  0.40192965  0.51979829  0.75000000  1
  S  S9  1  0.90192965  0.98020171  0.25000000  1
  S  S10  1  0.09807035  0.01979829  0.75000000  1
  S  S11  1  0.59807035  0.48020171  0.25000000  1
  S  S12  1  0.19226778  0.30307828  0.05029966  1
  S  S13  1  0.69226778  0.19692172  0.94970034  1
  S  S14  1  0.30773222  0.80307828  0.44970034  1
  S  S15  1  0.80773222  0.69692172  0.55029966  1
  S  S16  1  0.19226778  0.30307828  0.44970034  1
  S  S17  1  0.69226778  0.19692172  0.55029966  1
  S  S18  1  0.30773222  0.80307828  0.05029966  1
  S  S19  1  0.80773222  0.69692172  0.94970034  1
