# generated using pymatgen
data_Na2Zn(SO4)2
_symmetry_space_group_name_H-M   'P 1'
_cell_length_a   10.52052500
_cell_length_b   8.81316600
_cell_length_c   15.31639025
_cell_angle_alpha   89.19671974
_cell_angle_beta   90.00000000
_cell_angle_gamma   90.00000000
_symmetry_Int_Tables_number   1
_chemical_formula_structural   Na2Zn(SO4)2
_chemical_formula_sum   'Na16 Zn8 S16 O64'
_cell_volume   1419.98286275
_cell_formula_units_Z   8
loop_
 _symmetry_equiv_pos_site_id
 _symmetry_equiv_pos_as_xyz
  1  'x, y, z'
loop_
 _atom_site_type_symbol
 _atom_site_label
 _atom_site_symmetry_multiplicity
 _atom_site_fract_x
 _atom_site_fract_y
 _atom_site_fract_z
 _atom_site_occupancy
  Na  Na0  1  0.00697700  0.25000000  0.25000000  1
  Na  Na1  1  0.60247300  0.80209600  0.01392600  1
  Na  Na2  1  0.41998600  0.25000000  0.75000000  1
  Na  Na3  1  0.89389200  0.30026100  0.98056700  1
  Na  Na4  1  0.39752700  0.19790400  0.98607400  1
  Na  Na5  1  0.60247300  0.69790400  0.48607400  1
  Na  Na6  1  0.15964000  0.75000000  0.25000000  1
  Na  Na7  1  0.99302300  0.75000000  0.75000000  1
  Na  Na8  1  0.34732600  0.25000000  0.25000000  1
  Na  Na9  1  0.10610800  0.69973900  0.01943300  1
  Na  Na10  1  0.84036000  0.25000000  0.75000000  1
  Na  Na11  1  0.58001400  0.75000000  0.25000000  1
  Na  Na12  1  0.65267400  0.75000000  0.75000000  1
  Na  Na13  1  0.10610800  0.80026100  0.48056700  1
  Na  Na14  1  0.39752700  0.30209600  0.51392600  1
  Na  Na15  1  0.89389200  0.19973900  0.51943300  1
  Zn  Zn16  1  0.12528600  0.42695200  0.62407000  1
  Zn  Zn17  1  0.61925900  0.08474600  0.37689300  1
  Zn  Zn18  1  0.61925900  0.41525400  0.12310700  1
  Zn  Zn19  1  0.38074100  0.91525400  0.62310700  1
  Zn  Zn20  1  0.87471400  0.57304800  0.37593000  1
  Zn  Zn21  1  0.87471400  0.92695200  0.12407000  1
  Zn  Zn22  1  0.38074100  0.58474600  0.87689300  1
  Zn  Zn23  1  0.12528600  0.07304800  0.87593000  1
  S  S24  1  0.87000100  0.92365800  0.90956500  1
  S  S25  1  0.11096700  0.43713400  0.84266600  1
  S  S26  1  0.11096700  0.06286600  0.65733400  1
  S  S27  1  0.12999900  0.07634200  0.09043500  1
  S  S28  1  0.37235600  0.93490600  0.40444000  1
  S  S29  1  0.88903300  0.56286600  0.15733400  1
  S  S30  1  0.60741800  0.07309700  0.15716300  1
  S  S31  1  0.62764400  0.06509400  0.59556000  1
  S  S32  1  0.60741800  0.42690300  0.34283700  1
  S  S33  1  0.12999900  0.42365800  0.40956500  1
  S  S34  1  0.88903300  0.93713400  0.34266600  1
  S  S35  1  0.62764400  0.43490600  0.90444000  1
  S  S36  1  0.87000100  0.57634200  0.59043500  1
  S  S37  1  0.39258200  0.57309700  0.65716300  1
  S  S38  1  0.37235600  0.56509400  0.09556000  1
  S  S39  1  0.39258200  0.92690300  0.84283700  1
  O  O40  1  0.26969300  0.57352200  0.15997700  1
  O  O41  1  0.31287500  0.07014100  0.84701300  1
  O  O42  1  0.15664200  0.58584200  0.39354400  1
  O  O43  1  0.52007500  0.33135100  0.88403200  1
  O  O44  1  0.68102900  0.39894500  0.99335500  1
  O  O45  1  0.52007500  0.16864900  0.61596800  1
  O  O46  1  0.18335500  0.12914700  0.00402100  1
  O  O47  1  0.15664200  0.91415800  0.10645600  1
  O  O48  1  0.30424100  0.79424500  0.85289300  1
  O  O49  1  0.45626900  0.92627700  0.75556900  1
  O  O50  1  0.98584000  0.40003900  0.41525500  1
  O  O51  1  0.42801700  0.40495400  0.09321100  1
  O  O52  1  0.31897100  0.60105500  0.00664500  1
  O  O53  1  0.07983900  0.49909200  0.75377400  1
  O  O54  1  0.57198300  0.59504600  0.90678900  1
  O  O55  1  0.47992500  0.66864900  0.11596800  1
  O  O56  1  0.25252300  0.08373500  0.64840400  1
  O  O57  1  0.98584000  0.09996100  0.08474500  1
  O  O58  1  0.94142800  0.03750600  0.40844600  1
  O  O59  1  0.94989200  0.78234900  0.35178000  1
  O  O60  1  0.94989200  0.71765100  0.14822000  1
  O  O61  1  0.68102900  0.10105500  0.50664500  1
  O  O62  1  0.69575900  0.20575500  0.14710700  1
  O  O63  1  0.17988900  0.17276500  0.16004400  1
  O  O64  1  0.31897100  0.89894500  0.49335500  1
  O  O65  1  0.47992500  0.83135100  0.38403200  1
  O  O66  1  0.05857200  0.96249400  0.59155400  1
  O  O67  1  0.82011100  0.82723500  0.83995600  1
  O  O68  1  0.25252300  0.41626500  0.85159600  1
  O  O69  1  0.05010800  0.28234900  0.85178000  1
  O  O70  1  0.01416000  0.90003900  0.91525500  1
  O  O71  1  0.48810600  0.56900200  0.58818900  1
  O  O72  1  0.73030700  0.42647800  0.84002300  1
  O  O73  1  0.05857200  0.53750600  0.90844600  1
  O  O74  1  0.54373100  0.42627700  0.25556900  1
  O  O75  1  0.92016100  0.50090800  0.24622600  1
  O  O76  1  0.57198300  0.90495400  0.59321100  1
  O  O77  1  0.69575900  0.29424500  0.35289300  1
  O  O78  1  0.92016100  0.99909200  0.25377400  1
  O  O79  1  0.82011100  0.67276500  0.66004400  1
  O  O80  1  0.94142800  0.46249400  0.09155400  1
  O  O81  1  0.54373100  0.07372300  0.24443100  1
  O  O82  1  0.51189400  0.06900200  0.08818900  1
  O  O83  1  0.51189400  0.43099800  0.41181100  1
  O  O84  1  0.18335500  0.37085300  0.49597900  1
  O  O85  1  0.26969300  0.92647800  0.34002300  1
  O  O86  1  0.74747700  0.91626500  0.35159600  1
  O  O87  1  0.31287500  0.42985900  0.65298700  1
  O  O88  1  0.81664500  0.87085300  0.99597900  1
  O  O89  1  0.81664500  0.62914700  0.50402100  1
  O  O90  1  0.42801700  0.09504600  0.40678900  1
  O  O91  1  0.48810600  0.93099800  0.91181100  1
  O  O92  1  0.84335800  0.08584200  0.89354400  1
  O  O93  1  0.84335800  0.41415800  0.60645600  1
  O  O94  1  0.05010800  0.21765100  0.64822000  1
  O  O95  1  0.01416000  0.59996100  0.58474500  1
  O  O96  1  0.17988900  0.32723500  0.33995600  1
  O  O97  1  0.30424100  0.70575500  0.64710700  1
  O  O98  1  0.74747700  0.58373500  0.14840400  1
  O  O99  1  0.45626900  0.57372300  0.74443100  1
  O  O100  1  0.68712500  0.92985900  0.15298700  1
  O  O101  1  0.73030700  0.07352200  0.65997700  1
  O  O102  1  0.07983900  0.00090800  0.74622600  1
  O  O103  1  0.68712500  0.57014100  0.34701300  1
