# generated using pymatgen
data_ZnS
_symmetry_space_group_name_H-M   'P 1'
_cell_length_a   3.80866991
_cell_length_b   3.80866990
_cell_length_c   62.26385349
_cell_angle_alpha   90.00000000
_cell_angle_beta   90.00000000
_cell_angle_gamma   119.99999999
_symmetry_Int_Tables_number   1
_chemical_formula_structural   ZnS
_chemical_formula_sum   'Zn20 S20'
_cell_volume   782.19186707
_cell_formula_units_Z   20
loop_
 _symmetry_equiv_pos_site_id
 _symmetry_equiv_pos_as_xyz
  1  'x, y, z'
loop_
 _atom_site_type_symbol
 _atom_site_label
 _atom_site_symmetry_multiplicity
 _atom_site_fract_x
 _atom_site_fract_y
 _atom_site_fract_z
 _atom_site_occupancy
  Zn  Zn0  1  -0.00000000  0.00000000  0.40000403  1
  Zn  Zn1  1  0.33333300  0.66666700  0.44998259  1
  Zn  Zn2  1  0.66666700  0.33333300  0.20001900  1
  Zn  Zn3  1  0.66666700  0.33333300  0.65000435  1
  Zn  Zn4  1  0.33333300  0.66666700  0.70001900  1
  Zn  Zn5  1  0.00000000  -0.00000000  0.60000629  1
  Zn  Zn6  1  0.66666700  0.33333300  0.94998259  1
  Zn  Zn7  1  -0.00000000  0.00000000  0.10000629  1
  Zn  Zn8  1  0.66666700  0.33333300  0.35002224  1
  Zn  Zn9  1  0.66666700  0.33333300  0.05005324  1
  Zn  Zn10  1  0.00000000  -0.00000000  0.90000403  1
  Zn  Zn11  1  0.33333300  0.66666700  0.55005324  1
  Zn  Zn12  1  0.00000000  0.00000000  0.25000318  1
  Zn  Zn13  1  0.33333300  0.66666700  0.85002224  1
  Zn  Zn14  1  0.00000000  -0.00000000  0.75000318  1
  Zn  Zn15  1  0.66666700  0.33333300  0.50001964  1
  Zn  Zn16  1  0.33333300  0.66666700  0.15000435  1
  Zn  Zn17  1  0.66666700  0.33333300  0.80000660  1
  Zn  Zn18  1  0.33333300  0.66666700  0.30000660  1
  Zn  Zn19  1  0.33333300  0.66666700  0.00001964  1
  S  S20  1  0.66666700  0.33333300  0.23748632  1
  S  S21  1  0.66666700  0.33333300  0.83748948  1
  S  S22  1  0.33333300  0.66666700  0.88748952  1
  S  S23  1  0.33333300  0.66666700  0.33748948  1
  S  S24  1  0.00000000  0.00000000  0.78748593  1
  S  S25  1  0.66666700  0.33333300  0.08749740  1
  S  S26  1  0.33333300  0.66666700  0.48744179  1
  S  S27  1  0.00000000  -0.00000000  0.28748593  1
  S  S28  1  0.00000000  -0.00000000  0.13748610  1
  S  S29  1  0.66666700  0.33333300  0.68748650  1
  S  S30  1  0.33333300  0.66666700  0.03753052  1
  S  S31  1  0.66666700  0.33333300  0.98744179  1
  S  S32  1  0.66666700  0.33333300  0.53753052  1
  S  S33  1  0.66666700  0.33333300  0.38748952  1
  S  S34  1  0.33333300  0.66666700  0.73748632  1
  S  S35  1  0.33333300  0.66666700  0.18748650  1
  S  S36  1  0.00000000  0.00000000  0.63748610  1
  S  S37  1  0.33333300  0.66666700  0.58749740  1
  S  S38  1  0.00000000  -0.00000000  0.93748025  1
  S  S39  1  0.00000000  0.00000000  0.43748025  1
