# generated using pymatgen
data_ZnS
_symmetry_space_group_name_H-M   'P 1'
_cell_length_a   3.80867331
_cell_length_b   3.80867290
_cell_length_c   43.58865243
_cell_angle_alpha   90.00000000
_cell_angle_beta   90.00000000
_cell_angle_gamma   120.00000368
_symmetry_Int_Tables_number   1
_chemical_formula_structural   ZnS
_chemical_formula_sum   'Zn14 S14'
_cell_volume   547.58489050
_cell_formula_units_Z   14
loop_
 _symmetry_equiv_pos_site_id
 _symmetry_equiv_pos_as_xyz
  1  'x, y, z'
loop_
 _atom_site_type_symbol
 _atom_site_label
 _atom_site_symmetry_multiplicity
 _atom_site_fract_x
 _atom_site_fract_y
 _atom_site_fract_z
 _atom_site_occupancy
  Zn  Zn0  1  0.66666700  0.33333300  0.14286916  1
  Zn  Zn1  1  -0.00000000  0.00000000  0.21424032  1
  Zn  Zn2  1  0.33333300  0.66666700  0.07147122  1
  Zn  Zn3  1  0.66666700  0.33333300  0.78570763  1
  Zn  Zn4  1  -0.00000000  0.00000000  0.71425849  1
  Zn  Zn5  1  0.66666700  0.33333300  0.64280292  1
  Zn  Zn6  1  0.00000000  -0.00000000  0.35720321  1
  Zn  Zn7  1  0.00000000  -0.00000000  0.00006275  1
  Zn  Zn8  1  0.66666700  0.33333300  0.42853991  1
  Zn  Zn9  1  0.66666700  0.33333300  0.92860310  1
  Zn  Zn10  1  0.33333300  0.66666700  0.28570884  1
  Zn  Zn11  1  0.33333300  0.66666700  0.49996735  1
  Zn  Zn12  1  0.00000000  -0.00000000  0.57136268  1
  Zn  Zn13  1  0.00000000  0.00000000  0.85716305  1
  S  S14  1  -0.00000000  0.00000000  0.76782888  1
  S  S15  1  0.66666700  0.33333300  0.98222409  1
  S  S16  1  0.66666700  0.33333300  0.19644040  1
  S  S17  1  0.33333300  0.66666700  0.33936318  1
  S  S18  1  0.66666700  0.33333300  0.69640938  1
  S  S19  1  0.00000000  -0.00000000  0.41073873  1
  S  S20  1  -0.00000000  0.00000000  0.91072998  1
  S  S21  1  -0.00000000  0.00000000  0.26778653  1
  S  S22  1  0.33333300  0.66666700  0.55354236  1
  S  S23  1  0.66666700  0.33333300  0.83929327  1
  S  S24  1  -0.00000000  0.00000000  0.05361544  1
  S  S25  1  0.66666700  0.33333300  0.48212047  1
  S  S26  1  -0.00000000  0.00000000  0.62490531  1
  S  S27  1  0.33333300  0.66666700  0.12504036  1
