# generated using pymatgen
data_ZnS
_symmetry_space_group_name_H-M   'P 1'
_cell_length_a   3.80733357
_cell_length_b   3.80733248
_cell_length_c   49.84542432
_cell_angle_alpha   90.00000000
_cell_angle_beta   90.00000000
_cell_angle_gamma   120.00000066
_symmetry_Int_Tables_number   1
_chemical_formula_structural   ZnS
_chemical_formula_sum   'Zn16 S16'
_cell_volume   625.74538969
_cell_formula_units_Z   16
loop_
 _symmetry_equiv_pos_site_id
 _symmetry_equiv_pos_as_xyz
  1  'x, y, z'
loop_
 _atom_site_type_symbol
 _atom_site_label
 _atom_site_symmetry_multiplicity
 _atom_site_fract_x
 _atom_site_fract_y
 _atom_site_fract_z
 _atom_site_occupancy
  Zn  Zn0  1  0.33333300  0.66666700  0.56266342  1
  Zn  Zn1  1  0.66666700  0.33333300  0.12495042  1
  Zn  Zn2  1  0.00000000  -0.00000000  0.37501221  1
  Zn  Zn3  1  0.33333300  0.66666700  0.06250297  1
  Zn  Zn4  1  0.66666700  0.33333300  0.50014282  1
  Zn  Zn5  1  0.33333300  0.66666700  0.31249110  1
  Zn  Zn6  1  0.66666700  0.33333300  0.25000987  1
  Zn  Zn7  1  0.00000000  0.00000000  0.81250552  1
  Zn  Zn8  1  0.66666700  0.33333300  0.74997608  1
  Zn  Zn9  1  -0.00000000  0.00000000  0.18750178  1
  Zn  Zn10  1  0.33333300  0.66666700  0.43752021  1
  Zn  Zn11  1  0.33333300  0.66666700  0.93747430  1
  Zn  Zn12  1  0.00000000  -0.00000000  0.62504105  1
  Zn  Zn13  1  0.66666700  0.33333300  0.87500453  1
  Zn  Zn14  1  0.33333300  0.66666700  0.68751710  1
  Zn  Zn15  1  -0.00000000  0.00000000  0.00000692  1
  S  S16  1  0.00000000  -0.00000000  0.23438558  1
  S  S17  1  0.33333300  0.66666700  0.35929768  1
  S  S18  1  0.66666700  0.33333300  0.29682934  1
  S  S19  1  0.66666700  0.33333300  0.54702411  1
  S  S20  1  0.33333300  0.66666700  0.10930534  1
  S  S21  1  0.66666700  0.33333300  0.79677980  1
  S  S22  1  0.33333300  0.66666700  0.98427987  1
  S  S23  1  0.66666700  0.33333300  0.92181313  1
  S  S24  1  0.00000000  0.00000000  0.85938204  1
  S  S25  1  0.33333300  0.66666700  0.60939565  1
  S  S26  1  0.00000000  -0.00000000  0.42189549  1
  S  S27  1  0.33333300  0.66666700  0.73432088  1
  S  S28  1  0.00000000  -0.00000000  0.67190058  1
  S  S29  1  0.00000000  -0.00000000  0.04688350  1
  S  S30  1  0.66666700  0.33333300  0.17176423  1
  S  S31  1  0.33333300  0.66666700  0.48434748  1
