# generated using pymatgen
data_MnP4
_symmetry_space_group_name_H-M   'P 1'
_cell_length_a   5.07461317
_cell_length_b   5.81425907
_cell_length_c   21.72841070
_cell_angle_alpha   94.37976251
_cell_angle_beta   90.00000000
_cell_angle_gamma   115.87401643
_symmetry_Int_Tables_number   1
_chemical_formula_structural   MnP4
_chemical_formula_sum   'Mn8 P32'
_cell_volume   574.75132730
_cell_formula_units_Z   8
loop_
 _symmetry_equiv_pos_site_id
 _symmetry_equiv_pos_as_xyz
  1  'x, y, z'
loop_
 _atom_site_type_symbol
 _atom_site_label
 _atom_site_symmetry_multiplicity
 _atom_site_fract_x
 _atom_site_fract_y
 _atom_site_fract_z
 _atom_site_occupancy
  Mn  Mn0  1  0.51452286  0.63187097  0.18153662  1
  Mn  Mn1  1  0.95716228  0.14945894  0.42979718  1
  Mn  Mn2  1  0.80770334  0.85054106  0.07020282  1
  Mn  Mn3  1  0.88265189  0.36812903  0.31846338  1
  Mn  Mn4  1  0.19229666  0.14945894  0.92979718  1
  Mn  Mn5  1  0.11734811  0.63187097  0.68153662  1
  Mn  Mn6  1  0.04283772  0.85054106  0.57020282  1
  Mn  Mn7  1  0.48547714  0.36812903  0.81846338  1
  P  P8  1  0.95485867  0.94664125  0.16999414  1
  P  P9  1  0.41514287  0.44949952  0.45081060  1
  P  P10  1  0.63825367  0.06430546  0.80002248  1
  P  P11  1  0.57394920  0.93569454  0.69997752  1
  P  P12  1  0.96564435  0.55050048  0.04918940  1
  P  P13  1  0.50091145  0.84194150  0.42551246  1
  P  P14  1  0.63791815  0.45967686  0.91643615  1
  P  P15  1  0.90441200  0.15210459  0.53682324  1
  P  P16  1  0.70576180  0.65774265  0.28475324  1
  P  P17  1  0.34103004  0.84194150  0.92551246  1
  P  P18  1  0.99178358  0.94664125  0.66999414  1
  P  P19  1  0.65044020  0.32050544  0.16923945  1
  P  P20  1  0.34955980  0.67949456  0.83076055  1
  P  P21  1  0.67006524  0.32050544  0.66923945  1
  P  P22  1  0.04514133  0.05335875  0.83000586  1
  P  P23  1  0.42605080  0.06430546  0.30002248  1
  P  P24  1  0.17824029  0.54032314  0.58356385  1
  P  P25  1  0.32993476  0.67949456  0.33076055  1
  P  P26  1  0.24769258  0.15210459  0.03682324  1
  P  P27  1  0.09558800  0.84789541  0.46317676  1
  P  P28  1  0.04802015  0.34225735  0.21524676  1
  P  P29  1  0.95197985  0.65774265  0.78475324  1
  P  P30  1  0.29423820  0.34225735  0.71524676  1
  P  P31  1  0.36208185  0.54032314  0.08356385  1
  P  P32  1  0.00821642  0.05335875  0.33000586  1
  P  P33  1  0.36174633  0.93569454  0.19997752  1
  P  P34  1  0.82175971  0.45967686  0.41643615  1
  P  P35  1  0.49908855  0.15805850  0.57448754  1
  P  P36  1  0.75230742  0.84789541  0.96317676  1
  P  P37  1  0.03435565  0.44949952  0.95081060  1
  P  P38  1  0.58485713  0.55050048  0.54918940  1
  P  P39  1  0.65896996  0.15805850  0.07448754  1
