# generated using pymatgen
data_SbP2O7
_symmetry_space_group_name_H-M   'P 1'
_cell_length_a   7.98911499
_cell_length_b   8.03368681
_cell_length_c   16.14503796
_cell_angle_alpha   90.00000000
_cell_angle_beta   90.00000000
_cell_angle_gamma   90.00000000
_symmetry_Int_Tables_number   1
_chemical_formula_structural   SbP2O7
_chemical_formula_sum   'Sb8 P16 O56'
_cell_volume   1036.22159677
_cell_formula_units_Z   8
loop_
 _symmetry_equiv_pos_site_id
 _symmetry_equiv_pos_as_xyz
  1  'x, y, z'
loop_
 _atom_site_type_symbol
 _atom_site_label
 _atom_site_symmetry_multiplicity
 _atom_site_fract_x
 _atom_site_fract_y
 _atom_site_fract_z
 _atom_site_occupancy
  Sb  Sb0  1  0.48103089  0.74846184  0.62135396  1
  Sb  Sb1  1  0.48330419  0.22272841  0.87019975  1
  Sb  Sb2  1  0.01896911  0.24846184  0.12135396  1
  Sb  Sb3  1  0.51896911  0.24846184  0.37864604  1
  Sb  Sb4  1  0.51669581  0.72272841  0.12980025  1
  Sb  Sb5  1  0.98103089  0.74846184  0.87864604  1
  Sb  Sb6  1  0.01669581  0.72272841  0.37019975  1
  Sb  Sb7  1  0.98330419  0.22272841  0.62980025  1
  P  P8  1  0.57471758  0.36693063  0.57073516  1
  P  P9  1  0.12410551  0.34573083  0.40599921  1
  P  P10  1  0.60678982  0.62022609  0.81218951  1
  P  P11  1  0.88905962  0.12891814  0.82612125  1
  P  P12  1  0.07471758  0.36693063  0.92926484  1
  P  P13  1  0.39321018  0.12022609  0.18781049  1
  P  P14  1  0.10678982  0.62022609  0.68781049  1
  P  P15  1  0.89321018  0.12022609  0.31218951  1
  P  P16  1  0.87589449  0.84573083  0.59400079  1
  P  P17  1  0.11094038  0.62891814  0.17387875  1
  P  P18  1  0.61094038  0.62891814  0.32612225  1
  P  P19  1  0.42528242  0.86693063  0.42926484  1
  P  P20  1  0.92528242  0.86693063  0.07073516  1
  P  P21  1  0.62410551  0.34573083  0.09400079  1
  P  P22  1  0.37589449  0.84573083  0.90599921  1
  P  P23  1  0.38905962  0.12891814  0.67387875  1
  O  O24  1  0.22123694  0.36546238  0.87357800  1
  O  O25  1  0.00701179  0.46736279  0.17395928  1
  O  O26  1  0.94629176  0.22253657  0.90839907  1
  O  O27  1  0.44629176  0.22253657  0.59160093  1
  O  O28  1  0.55370824  0.72253657  0.40839907  1
  O  O29  1  0.29358949  0.59387789  0.16466375  1
  O  O30  1  0.96566279  0.52531906  0.92708003  1
  O  O31  1  0.07577317  0.64395824  0.78041410  1
  O  O32  1  0.72123694  0.36546238  0.62642200  1
  O  O33  1  0.70641051  0.09387789  0.83533625  1
  O  O34  1  0.74610960  0.23256494  0.33538903  1
  O  O35  1  0.19905077  0.77813020  0.92963464  1
  O  O36  1  0.27876306  0.86546238  0.37357800  1
  O  O37  1  0.97534788  0.88407823  0.51979723  1
  O  O38  1  0.87706279  0.83567414  0.97981734  1
  O  O39  1  0.12293721  0.33567414  0.02018266  1
  O  O40  1  0.52465212  0.38407823  0.01979723  1
  O  O41  1  0.02465212  0.38407823  0.48020277  1
  O  O42  1  0.77876306  0.86546238  0.12642200  1
  O  O43  1  0.25389040  0.73256494  0.66461097  1
  O  O44  1  0.99298821  0.96736279  0.82604072  1
  O  O45  1  0.75389040  0.73256494  0.83538903  1
  O  O46  1  0.05208663  0.18516574  0.35786829  1
  O  O47  1  0.05370824  0.72253657  0.09160093  1
  O  O48  1  0.13406367  0.44279349  0.66591773  1
  O  O49  1  0.94019346  0.23969912  0.75533667  1
  O  O50  1  0.92422683  0.14395824  0.21958590  1
  O  O51  1  0.42422683  0.14395824  0.28041410  1
  O  O52  1  0.53433721  0.02531906  0.42708003  1
  O  O53  1  0.94791337  0.68516574  0.64213171  1
  O  O54  1  0.62293721  0.33567414  0.47981734  1
  O  O55  1  0.86593633  0.94279349  0.33408227  1
  O  O56  1  0.46566279  0.52531906  0.57291997  1
  O  O57  1  0.80094923  0.27813020  0.07036536  1
  O  O58  1  0.44791337  0.68516574  0.85786829  1
  O  O59  1  0.49298821  0.96736279  0.67395928  1
  O  O60  1  0.69905077  0.77813020  0.57036536  1
  O  O61  1  0.30094923  0.27813020  0.42963464  1
  O  O62  1  0.44019346  0.23969912  0.74466333  1
  O  O63  1  0.37706279  0.83567414  0.52018266  1
  O  O64  1  0.55980654  0.73969912  0.25533667  1
  O  O65  1  0.20641051  0.09387789  0.66466375  1
  O  O66  1  0.13950355  0.48338125  0.34260975  1
  O  O67  1  0.63950355  0.48338125  0.15739025  1
  O  O68  1  0.36593633  0.94279349  0.16591773  1
  O  O69  1  0.05980654  0.73969912  0.24466333  1
  O  O70  1  0.24610960  0.23256494  0.16461097  1
  O  O71  1  0.50701179  0.46736279  0.32604072  1
  O  O72  1  0.03433721  0.02531906  0.07291997  1
  O  O73  1  0.36049645  0.98338125  0.84260975  1
  O  O74  1  0.79358949  0.59387789  0.33533625  1
  O  O75  1  0.55208663  0.18516574  0.14213171  1
  O  O76  1  0.47534788  0.88407823  0.98020277  1
  O  O77  1  0.63406367  0.44279349  0.83408227  1
  O  O78  1  0.57577317  0.64395824  0.71958590  1
  O  O79  1  0.86049645  0.98338125  0.65739025  1
