# generated using pymatgen
data_RuO4
_symmetry_space_group_name_H-M   'P 1'
_cell_length_a   8.46675546
_cell_length_b   8.46675546
_cell_length_c   8.46675546
_cell_angle_alpha   90.00000000
_cell_angle_beta   90.00000000
_cell_angle_gamma   90.00000000
_symmetry_Int_Tables_number   1
_chemical_formula_structural   RuO4
_chemical_formula_sum   'Ru8 O32'
_cell_volume   606.94739180
_cell_formula_units_Z   8
loop_
 _symmetry_equiv_pos_site_id
 _symmetry_equiv_pos_as_xyz
  1  'x, y, z'
loop_
 _atom_site_type_symbol
 _atom_site_label
 _atom_site_symmetry_multiplicity
 _atom_site_fract_x
 _atom_site_fract_y
 _atom_site_fract_z
 _atom_site_occupancy
  Ru  Ru0  1  0.75000000  0.50000000  -0.00000000  1
  Ru  Ru1  1  0.50000000  0.50000000  0.50000000  1
  Ru  Ru2  1  0.50000000  -0.00000000  0.25000000  1
  Ru  Ru3  1  0.00000000  0.25000000  0.50000000  1
  Ru  Ru4  1  0.00000000  -0.00000000  -0.00000000  1
  Ru  Ru5  1  0.25000000  0.50000000  -0.00000000  1
  Ru  Ru6  1  0.50000000  -0.00000000  0.75000000  1
  Ru  Ru7  1  0.00000000  0.75000000  0.50000000  1
  O  O8  1  0.61535784  0.88468163  0.63526662  1
  O  O9  1  0.11531837  0.36473338  0.61535784  1
  O  O10  1  0.38468163  0.88464216  0.86473338  1
  O  O11  1  0.61517395  0.38482605  0.61517395  1
  O  O12  1  0.88482605  0.11517395  0.11517395  1
  O  O13  1  0.61535784  0.11531837  0.36473338  1
  O  O14  1  0.61531837  0.11535784  0.86473338  1
  O  O15  1  0.11535784  0.86473338  0.61531837  1
  O  O16  1  0.11517395  0.11517395  0.88482605  1
  O  O17  1  0.13526662  0.61531837  0.88464216  1
  O  O18  1  0.88468163  0.36473338  0.38464216  1
  O  O19  1  0.13526662  0.38468163  0.11535784  1
  O  O20  1  0.11517395  0.88482605  0.11517395  1
  O  O21  1  0.36473338  0.61535784  0.11531837  1
  O  O22  1  0.38464216  0.88468163  0.36473338  1
  O  O23  1  0.11531837  0.63526662  0.38464216  1
  O  O24  1  0.38482605  0.61517395  0.61517395  1
  O  O25  1  0.88464216  0.86473338  0.38468163  1
  O  O26  1  0.63526662  0.61535784  0.88468163  1
  O  O27  1  0.36473338  0.38464216  0.88468163  1
  O  O28  1  0.86473338  0.38468163  0.88464216  1
  O  O29  1  0.61531837  0.88464216  0.13526662  1
  O  O30  1  0.38482605  0.38482605  0.38482605  1
  O  O31  1  0.61517395  0.61517395  0.38482605  1
  O  O32  1  0.63526662  0.38464216  0.11531837  1
  O  O33  1  0.88464216  0.13526662  0.61531837  1
  O  O34  1  0.11535784  0.13526662  0.38468163  1
  O  O35  1  0.38464216  0.11531837  0.63526662  1
  O  O36  1  0.86473338  0.61531837  0.11535784  1
  O  O37  1  0.88468163  0.63526662  0.61535784  1
  O  O38  1  0.38468163  0.11535784  0.13526662  1
  O  O39  1  0.88482605  0.88482605  0.88482605  1
