# generated using pymatgen
data_Si(Sn3O4)2
_symmetry_space_group_name_H-M   'P 1'
_cell_length_a   7.31046938
_cell_length_b   7.31047167
_cell_length_c   11.85267057
_cell_angle_alpha   89.99999278
_cell_angle_beta   90.00000250
_cell_angle_gamma   119.99996539
_symmetry_Int_Tables_number   1
_chemical_formula_structural   Si(Sn3O4)2
_chemical_formula_sum   'Si2 Sn12 O16'
_cell_volume   548.57707940
_cell_formula_units_Z   2
loop_
 _symmetry_equiv_pos_site_id
 _symmetry_equiv_pos_as_xyz
  1  'x, y, z'
loop_
 _atom_site_type_symbol
 _atom_site_label
 _atom_site_symmetry_multiplicity
 _atom_site_fract_x
 _atom_site_fract_y
 _atom_site_fract_z
 _atom_site_occupancy
  Si  Si0  1  0.66666665  0.33333369  0.09513641  1
  Si  Si1  1  0.33333370  0.66666607  0.59513361  1
  Sn  Sn2  1  0.17168603  0.34337243  0.09402726  1
  Sn  Sn3  1  0.98930958  0.49465482  0.35124409  1
  Sn  Sn4  1  0.49465483  0.98930969  0.85124408  1
  Sn  Sn5  1  0.34337281  0.17168616  0.59402708  1
  Sn  Sn6  1  0.65662732  0.82831350  0.09402745  1
  Sn  Sn7  1  0.01069013  0.50534513  0.85124419  1
  Sn  Sn8  1  0.82831377  0.65662740  0.59402708  1
  Sn  Sn9  1  0.49465496  0.50534502  0.85124434  1
  Sn  Sn10  1  0.50534522  0.49465482  0.35124412  1
  Sn  Sn11  1  0.50534537  0.01069084  0.35124399  1
  Sn  Sn12  1  0.82831387  0.17168568  0.59402701  1
  Sn  Sn13  1  0.17168576  0.82831394  0.09402717  1
  O  O14  1  0.80742029  0.61484044  0.41931511  1
  O  O15  1  0.54396614  0.45603390  0.04805358  1
  O  O16  1  0.33333297  0.66666677  0.11563379  1
  O  O17  1  0.54396625  0.08793220  0.04805311  1
  O  O18  1  0.61484057  0.80742020  0.91931499  1
  O  O19  1  0.45603355  0.91206724  0.54805352  1
  O  O20  1  0.66666712  0.33333323  0.61563366  1
  O  O21  1  0.80742022  0.19257995  0.41931526  1
  O  O22  1  0.19257960  0.38515937  0.91931512  1
  O  O23  1  0.33333354  0.66666699  0.73402021  1
  O  O24  1  0.66666638  0.33333326  0.23401890  1
  O  O25  1  0.08793268  0.54396676  0.54805356  1
  O  O26  1  0.38515947  0.19257983  0.41931509  1
  O  O27  1  0.45603330  0.54396652  0.54805401  1
  O  O28  1  0.91206741  0.45603387  0.04805327  1
  O  O29  1  0.19257949  0.80742029  0.91931496  1
