# generated using pymatgen
data_SeS4(NCl)3
_symmetry_space_group_name_H-M   'P 1'
_cell_length_a   13.82575545
_cell_length_b   10.46000509
_cell_length_c   14.09913754
_cell_angle_alpha   79.15200317
_cell_angle_beta   90.00000000
_cell_angle_gamma   90.00000000
_symmetry_Int_Tables_number   1
_chemical_formula_structural   SeS4(NCl)3
_chemical_formula_sum   'Se8 S32 N24 Cl24'
_cell_volume   2002.54490275
_cell_formula_units_Z   8
loop_
 _symmetry_equiv_pos_site_id
 _symmetry_equiv_pos_as_xyz
  1  'x, y, z'
loop_
 _atom_site_type_symbol
 _atom_site_label
 _atom_site_symmetry_multiplicity
 _atom_site_fract_x
 _atom_site_fract_y
 _atom_site_fract_z
 _atom_site_occupancy
  Se  Se0  1  0.37262168  0.78174816  0.78779297  1
  Se  Se1  1  0.62737832  0.21825184  0.21220703  1
  Se  Se2  1  0.87262168  0.21825184  0.71220703  1
  Se  Se3  1  0.37250166  0.12957651  0.60682956  1
  Se  Se4  1  0.87250166  0.87042349  0.89317044  1
  Se  Se5  1  0.12749834  0.12957651  0.10682956  1
  Se  Se6  1  0.12737832  0.78174816  0.28779297  1
  Se  Se7  1  0.62749834  0.87042349  0.39317044  1
  S  S8  1  0.89252748  0.23150473  0.29008549  1
  S  S9  1  0.61539116  0.84786098  0.80510488  1
  S  S10  1  0.36801859  0.51010766  0.32813463  1
  S  S11  1  0.84616866  0.59296742  0.42402875  1
  S  S12  1  0.35320676  0.25387451  0.91557181  1
  S  S13  1  0.64679324  0.74612549  0.08442819  1
  S  S14  1  0.14822562  0.66508862  0.98705981  1
  S  S15  1  0.86801859  0.48989234  0.17186537  1
  S  S16  1  0.88460884  0.84786098  0.30510488  1
  S  S17  1  0.87648392  0.93100552  0.49807608  1
  S  S18  1  0.85177438  0.33491138  0.01294019  1
  S  S19  1  0.63234755  0.14875033  0.59833475  1
  S  S20  1  0.62351608  0.93100552  -0.00192392  1
  S  S21  1  0.13198141  0.51010766  0.82813463  1
  S  S22  1  0.35177438  0.66508862  0.48705981  1
  S  S23  1  0.13234755  0.85124967  0.90166525  1
  S  S24  1  0.86765245  0.14875033  0.09833475  1
  S  S25  1  0.14679324  0.25387451  0.41557181  1
  S  S26  1  0.60747252  0.23150473  0.79008549  1
  S  S27  1  0.36765245  0.85124967  0.40166525  1
  S  S28  1  0.34616866  0.40703258  0.07597125  1
  S  S29  1  0.85320676  0.74612549  0.58442819  1
  S  S30  1  0.38460884  0.15213902  0.19489512  1
  S  S31  1  0.12351608  0.06899448  0.50192392  1
  S  S32  1  0.39252748  0.76849527  0.20991451  1
  S  S33  1  0.63198141  0.48989234  0.67186537  1
  S  S34  1  0.15383134  0.40703258  0.57597125  1
  S  S35  1  0.65383134  0.59296742  0.92402875  1
  S  S36  1  0.10747252  0.76849527  0.70991451  1
  S  S37  1  0.37648392  0.06899448  0.00192392  1
  S  S38  1  0.64822562  0.33491138  0.51294019  1
  S  S39  1  0.11539116  0.15213902  0.69489512  1
  N  N40  1  0.64521480  0.44146202  0.57630451  1
  N  N41  1  0.84453658  0.64031839  0.52070982  1
  N  N42  1  0.88947523  0.92048738  0.38988768  1
  N  N43  1  0.85478520  0.44146202  0.07630451  1
  N  N44  1  0.15546342  0.35968161  0.47929018  1
  N  N45  1  0.63652745  0.69750529  0.82961716  1
  N  N46  1  0.34453658  0.35968161  0.97929018  1
  N  N47  1  0.88480863  0.15808340  0.20581354  1
  N  N48  1  0.61519137  0.15808340  0.70581354  1
  N  N49  1  0.11519137  0.84191660  0.79418646  1
  N  N50  1  0.36347255  0.30249471  0.17038284  1
  N  N51  1  0.14521480  0.55853798  0.92369549  1
  N  N52  1  0.61681847  0.38389425  0.76614376  1
  N  N53  1  0.61052477  0.92048738  0.88988768  1
  N  N54  1  0.38480863  0.84191660  0.29418646  1
  N  N55  1  0.11052477  0.07951262  0.61011232  1
  N  N56  1  0.88318153  0.38389425  0.26614376  1
  N  N57  1  0.35478520  0.55853798  0.42369549  1
  N  N58  1  0.11681847  0.61610575  0.73385624  1
  N  N59  1  0.65546342  0.64031839  0.02070982  1
  N  N60  1  0.38947523  0.07951262  0.11011232  1
  N  N61  1  0.86347255  0.69750529  0.32961716  1
  N  N62  1  0.13652745  0.30249471  0.67038284  1
  N  N63  1  0.38318153  0.61610575  0.23385624  1
  Cl  Cl64  1  0.84536419  0.95873189  0.69994594  1
  Cl  Cl65  1  0.10981488  0.58008059  0.25731980  1
  Cl  Cl66  1  0.10116442  0.18040827  0.94602091  1
  Cl  Cl67  1  0.90447510  0.66880739  0.86484632  1
  Cl  Cl68  1  0.32428357  0.87374894  0.60435141  1
  Cl  Cl69  1  0.41086199  0.72637153  0.94921111  1
  Cl  Cl70  1  0.58913801  0.27362847  0.05078889  1
  Cl  Cl71  1  0.34536419  0.04126811  0.80005406  1
  Cl  Cl72  1  0.59552490  0.66880739  0.36484632  1
  Cl  Cl73  1  0.89883558  0.81959173  0.05397909  1
  Cl  Cl74  1  0.39018512  0.58008059  0.75731980  1
  Cl  Cl75  1  0.09552490  0.33119261  0.13515368  1
  Cl  Cl76  1  0.08913801  0.72637153  0.44921111  1
  Cl  Cl77  1  0.67571643  0.12625106  0.39564859  1
  Cl  Cl78  1  0.40447510  0.33119261  0.63515368  1
  Cl  Cl79  1  0.17571643  0.87374894  0.10435141  1
  Cl  Cl80  1  0.60981488  0.41991941  0.24268020  1
  Cl  Cl81  1  0.91086199  0.27362847  0.55078889  1
  Cl  Cl82  1  0.15463581  0.04126811  0.30005406  1
  Cl  Cl83  1  0.89018512  0.41991941  0.74268020  1
  Cl  Cl84  1  0.39883558  0.18040827  0.44602091  1
  Cl  Cl85  1  0.60116442  0.81959173  0.55397909  1
  Cl  Cl86  1  0.65463581  0.95873189  0.19994594  1
  Cl  Cl87  1  0.82428357  0.12625106  0.89564859  1
