# generated using pymatgen
data_SiC
_symmetry_space_group_name_H-M   'P 1'
_cell_length_a   3.07361211
_cell_length_b   3.07361225
_cell_length_c   98.10372014
_cell_angle_alpha   90.00000000
_cell_angle_beta   90.00000000
_cell_angle_gamma   119.99999842
_symmetry_Int_Tables_number   1
_chemical_formula_structural   SiC
_chemical_formula_sum   'Si39 C39'
_cell_volume   802.62789917
_cell_formula_units_Z   39
loop_
 _symmetry_equiv_pos_site_id
 _symmetry_equiv_pos_as_xyz
  1  'x, y, z'
loop_
 _atom_site_type_symbol
 _atom_site_label
 _atom_site_symmetry_multiplicity
 _atom_site_fract_x
 _atom_site_fract_y
 _atom_site_fract_z
 _atom_site_occupancy
  Si  Si0  1  0.33333300  0.66666700  0.17945686  1
  Si  Si1  1  0.00000000  -0.00000000  0.79485877  1
  Si  Si2  1  0.33333300  0.66666700  0.61536710  1
  Si  Si3  1  0.66666700  0.33333300  0.46155441  1
  Si  Si4  1  0.33333300  0.66666700  0.97435208  1
  Si  Si5  1  0.33333300  0.66666700  0.76927417  1
  Si  Si6  1  0.00000000  0.00000000  0.53841861  1
  Si  Si7  1  0.33333300  0.66666700  0.56406393  1
  Si  Si8  1  0.33333300  0.66666700  0.92303858  1
  Si  Si9  1  0.00000000  -0.00000000  0.15382955  1
  Si  Si10  1  0.66666700  0.33333300  0.05131512  1
  Si  Si11  1  0.00000000  -0.00000000  0.89738850  1
  Si  Si12  1  0.66666700  0.33333300  0.41029912  1
  Si  Si13  1  0.33333300  0.66666700  0.33335023  1
  Si  Si14  1  0.33333300  0.66666700  0.43593717  1
  Si  Si15  1  0.00000000  0.00000000  0.84608623  1
  Si  Si16  1  0.33333300  0.66666700  0.51274567  1
  Si  Si17  1  0.66666700  0.33333300  0.82047525  1
  Si  Si18  1  -0.00000000  0.00000000  0.48712587  1
  Si  Si19  1  0.66666700  0.33333300  0.58971380  1
  Si  Si20  1  -0.00000000  0.00000000  0.69235935  1
  Si  Si21  1  0.66666700  0.33333300  0.25636292  1
  Si  Si22  1  0.66666700  0.33333300  0.74363414  1
  Si  Si23  1  0.66666700  0.33333300  0.20505298  1
  Si  Si24  1  0.33333300  0.66666700  0.71797889  1
  Si  Si25  1  0.33333300  0.66666700  0.02569505  1
  Si  Si26  1  -0.00000000  0.00000000  0.23070061  1
  Si  Si27  1  -0.00000000  0.00000000  0.64099112  1
  Si  Si28  1  0.33333300  0.66666700  0.12820029  1
  Si  Si29  1  0.33333300  0.66666700  0.87171053  1
  Si  Si30  1  -0.00000000  0.00000000  0.07697120  1
  Si  Si31  1  0.66666700  0.33333300  0.35898030  1
  Si  Si32  1  -0.00000000  0.00000000  0.30766844  1
  Si  Si33  1  0.66666700  0.33333300  0.10260943  1
  Si  Si34  1  -0.00000000  0.00000000  0.00002666  1
  Si  Si35  1  0.66666700  0.33333300  0.66667851  1
  Si  Si36  1  0.66666700  0.33333300  0.94869205  1
  Si  Si37  1  -0.00000000  0.00000000  0.38464849  1
  Si  Si38  1  0.33333300  0.66666700  0.28198910  1
  C  C39  1  0.00000000  -0.00000000  0.40393843  1
  C  C40  1  0.00000000  0.00000000  0.66023553  1
  C  C41  1  -0.00000000  0.00000000  0.32697557  1
  C  C42  1  0.66666700  0.33333300  0.42951583  1
  C  C43  1  0.66666700  0.33333300  0.60900702  1
  C  C44  1  0.33333300  0.66666700  0.19867890  1
  C  C45  1  0.00000000  0.00000000  0.91667430  1
  C  C46  1  -0.00000000  0.00000000  0.86529261  1
  C  C47  1  -0.00000000  0.00000000  0.01932427  1
  C  C48  1  0.33333300  0.66666700  0.45521134  1
  C  C49  1  0.33333300  0.66666700  0.73720601  1
  C  C50  1  0.33333300  0.66666700  0.78849342  1
  C  C51  1  0.33333300  0.66666700  0.14741481  1
  C  C52  1  0.33333300  0.66666700  0.04492714  1
  C  C53  1  0.66666700  0.33333300  0.83974486  1
  C  C54  1  0.66666700  0.33333300  0.12182855  1
  C  C55  1  0.33333300  0.66666700  0.35259004  1
  C  C56  1  0.66666700  0.33333300  0.76291964  1
  C  C57  1  0.66666700  0.33333300  0.27560471  1
  C  C58  1  0.66666700  0.33333300  0.96798641  1
  C  C59  1  0.00000000  -0.00000000  0.81406706  1
  C  C60  1  -0.00000000  0.00000000  0.71159328  1
  C  C61  1  0.00000000  -0.00000000  0.55770138  1
  C  C62  1  0.33333300  0.66666700  0.94226354  1
  C  C63  1  0.66666700  0.33333300  0.37821460  1
  C  C64  1  -0.00000000  0.00000000  0.50633282  1
  C  C65  1  0.33333300  0.66666700  0.89098262  1
  C  C66  1  0.33333300  0.66666700  0.30123047  1
  C  C67  1  0.66666700  0.33333300  0.22427787  1
  C  C68  1  0.66666700  0.33333300  0.68598529  1
  C  C69  1  -0.00000000  0.00000000  0.17310557  1
  C  C70  1  0.33333300  0.66666700  0.99358431  1
  C  C71  1  0.66666700  0.33333300  0.48076467  1
  C  C72  1  0.33333300  0.66666700  0.53201410  1
  C  C73  1  0.33333300  0.66666700  0.58328755  1
  C  C74  1  0.66666700  0.33333300  0.07054389  1
  C  C75  1  -0.00000000  0.00000000  0.09625413  1
  C  C76  1  0.33333300  0.66666700  0.63460178  1
  C  C77  1  0.00000000  0.00000000  0.24999859  1
