# generated using pymatgen
data_Mg(B6C)2
_symmetry_space_group_name_H-M   'P 1'
_cell_length_a   6.89707829
_cell_length_b   6.89717503
_cell_length_c   6.89715590
_cell_angle_alpha   132.05778963
_cell_angle_beta   109.93815117
_cell_angle_gamma   89.37635392
_symmetry_Int_Tables_number   1
_chemical_formula_structural   Mg(B6C)2
_chemical_formula_sum   'Mg2 B24 C4'
_cell_volume   217.59510080
_cell_formula_units_Z   2
loop_
 _symmetry_equiv_pos_site_id
 _symmetry_equiv_pos_as_xyz
  1  'x, y, z'
loop_
 _atom_site_type_symbol
 _atom_site_label
 _atom_site_symmetry_multiplicity
 _atom_site_fract_x
 _atom_site_fract_y
 _atom_site_fract_z
 _atom_site_occupancy
  Mg  Mg0  1  0.38722140  0.74999837  0.63722263  1
  Mg  Mg1  1  0.61277850  0.25000173  0.36277736  1
  B  B2  1  0.63692200  0.84532134  0.31232132  1
  B  B3  1  0.22494831  0.40633614  0.81861242  1
  B  B4  1  0.77549101  0.77448774  0.67804061  1
  B  B5  1  0.03300215  0.82459967  0.68768197  1
  B  B6  1  0.36307799  0.67539897  0.20840102  1
  B  B7  1  0.96699777  0.17540027  0.31231806  1
  B  B8  1  0.40355668  0.40254891  0.67804266  1
  B  B9  1  0.77505163  0.59366379  0.18138759  1
  B  B10  1  0.36307794  0.15467866  0.68767871  1
  B  B11  1  0.35364008  0.33292360  0.02070969  1
  B  B12  1  0.59644328  0.59745102  0.32195735  1
  B  B13  1  0.81221028  0.83293084  0.97928713  1
  B  B14  1  0.96699626  0.65467990  0.79159867  1
  B  B15  1  0.08772250  0.90633851  0.18138724  1
  B  B16  1  0.59644526  0.27448722  0.99899151  1
  B  B17  1  0.63692195  0.32460094  0.79159898  1
  B  B18  1  0.40355469  0.72551268  0.00100847  1
  B  B19  1  0.77548890  0.09744870  0.00100007  1
  B  B20  1  0.22451103  0.90255118  0.99899992  1
  B  B21  1  0.91227743  0.09366143  0.81861277  1
  B  B22  1  0.64635989  0.66707633  0.97929032  1
  B  B23  1  0.22450892  0.22551217  0.32195937  1
  B  B24  1  0.18778966  0.16706906  0.02071287  1
  B  B25  1  0.03300367  0.34532002  0.20840133  1
  C  C26  1  0.96719164  0.33812706  0.62906963  1
  C  C27  1  0.20905299  0.83812464  0.37092855  1
  C  C28  1  0.79094693  0.16187527  0.62907144  1
  C  C29  1  0.03280828  0.66187286  0.37093036  1
