# generated using pymatgen
data_VAsO5
_symmetry_space_group_name_H-M   'P 1'
_cell_length_a   6.36823680
_cell_length_b   7.34543326
_cell_length_c   7.69564790
_cell_angle_alpha   90.00000000
_cell_angle_beta   90.00000000
_cell_angle_gamma   90.00000000
_symmetry_Int_Tables_number   1
_chemical_formula_structural   VAsO5
_chemical_formula_sum   'V4 As4 O20'
_cell_volume   359.98284949
_cell_formula_units_Z   4
loop_
 _symmetry_equiv_pos_site_id
 _symmetry_equiv_pos_as_xyz
  1  'x, y, z'
loop_
 _atom_site_type_symbol
 _atom_site_label
 _atom_site_symmetry_multiplicity
 _atom_site_fract_x
 _atom_site_fract_y
 _atom_site_fract_z
 _atom_site_occupancy
  V  V0  1  0.25000000  0.73936602  0.16811173  1
  V  V1  1  0.75000000  0.23936602  0.33188827  1
  V  V2  1  0.25000000  0.76063398  0.66811173  1
  V  V3  1  0.75000000  0.26063398  0.83188827  1
  As  As4  1  0.75000000  0.62045811  0.12020400  1
  As  As5  1  0.25000000  0.12045811  0.37979600  1
  As  As6  1  0.75000000  0.87954189  0.62020400  1
  As  As7  1  0.25000000  0.37954189  0.87979600  1
  O  O8  1  0.25000000  0.50249573  0.06558125  1
  O  O9  1  0.75000000  0.17614566  0.13287467  1
  O  O10  1  0.54034076  0.75966234  0.11986766  1
  O  O11  1  0.95965924  0.75966234  0.11986766  1
  O  O12  1  0.25000000  0.99044376  0.19627827  1
  O  O13  1  0.75000000  0.49044376  0.30372173  1
  O  O14  1  0.04034076  0.25966234  0.38013234  1
  O  O15  1  0.45965924  0.25966234  0.38013234  1
  O  O16  1  0.25000000  0.67614566  0.36712533  1
  O  O17  1  0.75000000  0.00249573  0.43441875  1
  O  O18  1  0.25000000  0.99750427  0.56558125  1
  O  O19  1  0.75000000  0.32385434  0.63287467  1
  O  O20  1  0.54034076  0.74033766  0.61986766  1
  O  O21  1  0.95965924  0.74033766  0.61986766  1
  O  O22  1  0.25000000  0.50955624  0.69627827  1
  O  O23  1  0.75000000  0.00955624  0.80372173  1
  O  O24  1  0.04034076  0.24033766  0.88013234  1
  O  O25  1  0.45965924  0.24033766  0.88013234  1
  O  O26  1  0.25000000  0.82385434  0.86712533  1
  O  O27  1  0.75000000  0.49750427  0.93441875  1
