# generated using pymatgen
data_NaMg2V3O10
_symmetry_space_group_name_H-M   'P 1'
_cell_length_a   6.73945116
_cell_length_b   6.76728446
_cell_length_c   9.59977170
_cell_angle_alpha   104.81658234
_cell_angle_beta   100.34118177
_cell_angle_gamma   101.83195688
_symmetry_Int_Tables_number   1
_chemical_formula_structural   NaMg2V3O10
_chemical_formula_sum   'Na2 Mg4 V6 O20'
_cell_volume   401.63398356
_cell_formula_units_Z   2
loop_
 _symmetry_equiv_pos_site_id
 _symmetry_equiv_pos_as_xyz
  1  'x, y, z'
loop_
 _atom_site_type_symbol
 _atom_site_label
 _atom_site_symmetry_multiplicity
 _atom_site_fract_x
 _atom_site_fract_y
 _atom_site_fract_z
 _atom_site_occupancy
  Na  Na0  1  0.64151810  0.01829026  0.36582350  1
  Na  Na1  1  0.35848190  0.98170974  0.63417650  1
  Mg  Mg2  1  0.75703151  0.43089891  0.70478864  1
  Mg  Mg3  1  0.24296849  0.56910109  0.29521136  1
  Mg  Mg4  1  0.20991966  0.18346999  0.01836243  1
  Mg  Mg5  1  0.79008034  0.81653001  0.98163757  1
  V  V6  1  0.11233312  0.04830577  0.30921184  1
  V  V7  1  0.88766688  0.95169423  0.69078816  1
  V  V8  1  0.22714066  0.42748483  0.61433568  1
  V  V9  1  0.77285934  0.57251517  0.38566432  1
  V  V10  1  0.77009180  0.33758528  0.04533211  1
  V  V11  1  0.22990820  0.66241472  0.95466789  1
  O  O12  1  0.06485033  0.19285828  0.48123401  1
  O  O13  1  0.72663580  0.10604106  0.65293954  1
  O  O14  1  0.52258400  0.23935131  0.04183347  1
  O  O15  1  0.22684268  0.24394302  0.24439478  1
  O  O16  1  0.86873588  0.91040613  0.20887486  1
  O  O17  1  0.87219474  0.13071912  0.98521422  1
  O  O18  1  0.09473059  0.51897432  0.75701408  1
  O  O19  1  0.90526941  0.48102568  0.24298592  1
  O  O20  1  0.72254820  0.39461869  0.47623047  1
  O  O21  1  0.27745180  0.60538131  0.52376953  1
  O  O22  1  0.13126412  0.08959387  0.79112514  1
  O  O23  1  0.78763225  0.49775026  0.93292282  1
  O  O24  1  0.47741600  0.76064869  0.95816653  1
  O  O25  1  0.93514967  0.80714172  0.51876599  1
  O  O26  1  0.77315732  0.75605698  0.75560522  1
  O  O27  1  0.27336420  0.89395894  0.34706046  1
  O  O28  1  0.55678097  0.63500129  0.32128576  1
  O  O29  1  0.12780526  0.86928088  0.01478578  1
  O  O30  1  0.44321903  0.36499871  0.67871424  1
  O  O31  1  0.21236775  0.50224974  0.06707718  1
