# generated using pymatgen
data_TaI4
_symmetry_space_group_name_H-M   'P 1'
_cell_length_a   7.33163876
_cell_length_b   10.86892602
_cell_length_c   11.02046785
_cell_angle_alpha   80.57320993
_cell_angle_beta   88.95366078
_cell_angle_gamma   74.93949795
_symmetry_Int_Tables_number   1
_chemical_formula_structural   TaI4
_chemical_formula_sum   'Ta4 I16'
_cell_volume   836.30027513
_cell_formula_units_Z   4
loop_
 _symmetry_equiv_pos_site_id
 _symmetry_equiv_pos_as_xyz
  1  'x, y, z'
loop_
 _atom_site_type_symbol
 _atom_site_label
 _atom_site_symmetry_multiplicity
 _atom_site_fract_x
 _atom_site_fract_y
 _atom_site_fract_z
 _atom_site_occupancy
  Ta  Ta0  1  0.11323105  0.90868010  0.83674321  1
  Ta  Ta1  1  0.88676895  0.09131990  0.16325679  1
  Ta  Ta2  1  0.18630597  0.67241074  0.72294259  1
  Ta  Ta3  1  0.81369403  0.32758926  0.27705741  1
  I  I4  1  0.23556530  0.94597203  0.07337923  1
  I  I5  1  0.47597911  0.75894633  0.83070901  1
  I  I6  1  0.88370946  0.90098618  0.64581312  1
  I  I7  1  0.20342757  0.11981561  0.71951049  1
  I  I8  1  0.79657243  0.88018439  0.28048951  1
  I  I9  1  0.07169274  0.45281595  0.33324628  1
  I  I10  1  0.41723128  0.43272158  0.80818002  1
  I  I11  1  0.02631234  0.68371843  0.96594337  1
  I  I12  1  0.11629054  0.09901382  0.35418688  1
  I  I13  1  0.52402089  0.24105367  0.16929099  1
  I  I14  1  0.76443470  0.05402797  0.92662077  1
  I  I15  1  0.97368766  0.31628157  0.03405663  1
  I  I16  1  0.65973265  0.29107937  0.49643651  1
  I  I17  1  0.92830726  0.54718405  0.66675372  1
  I  I18  1  0.34026735  0.70892063  0.50356349  1
  I  I19  1  0.58276872  0.56727842  0.19181998  1
