# generated using pymatgen
data_ZnS
_symmetry_space_group_name_H-M   'P 1'
_cell_length_a   3.80980013
_cell_length_b   3.80979956
_cell_length_c   87.16859380
_cell_angle_alpha   90.00000000
_cell_angle_beta   90.00000000
_cell_angle_gamma   119.99999617
_symmetry_Int_Tables_number   1
_chemical_formula_structural   ZnS
_chemical_formula_sum   'Zn28 S28'
_cell_volume   1095.70844300
_cell_formula_units_Z   28
loop_
 _symmetry_equiv_pos_site_id
 _symmetry_equiv_pos_as_xyz
  1  'x, y, z'
loop_
 _atom_site_type_symbol
 _atom_site_label
 _atom_site_symmetry_multiplicity
 _atom_site_fract_x
 _atom_site_fract_y
 _atom_site_fract_z
 _atom_site_occupancy
  Zn  Zn0  1  0.66666700  0.33333300  0.07145688  1
  Zn  Zn1  1  -0.00000000  0.00000000  0.32142956  1
  Zn  Zn2  1  0.00000000  0.00000000  0.67859661  1
  Zn  Zn3  1  0.33333300  0.66666700  0.14287447  1
  Zn  Zn4  1  -0.00000000  0.00000000  0.89286356  1
  Zn  Zn5  1  0.66666700  0.33333300  0.46425798  1
  Zn  Zn6  1  0.66666700  0.33333300  0.53571897  1
  Zn  Zn7  1  0.00000000  -0.00000000  0.21429002  1
  Zn  Zn8  1  0.66666700  0.33333300  0.64285229  1
  Zn  Zn9  1  0.66666700  0.33333300  0.35719678  1
  Zn  Zn10  1  0.33333300  0.66666700  0.60715684  1
  Zn  Zn11  1  0.33333300  0.66666700  0.96425863  1
  Zn  Zn12  1  0.66666700  0.33333300  0.28565822  1
  Zn  Zn13  1  0.00000000  0.00000000  0.78569298  1
  Zn  Zn14  1  0.66666700  0.33333300  0.71431511  1
  Zn  Zn15  1  0.66666700  0.33333300  0.82144176  1
  Zn  Zn16  1  -0.00000000  0.00000000  0.10717077  1
  Zn  Zn17  1  0.66666700  0.33333300  0.92858165  1
  Zn  Zn18  1  0.33333300  0.66666700  0.03572517  1
  Zn  Zn19  1  0.33333300  0.66666700  0.25000436  1
  Zn  Zn20  1  0.33333300  0.66666700  0.50001621  1
  Zn  Zn21  1  0.66666700  0.33333300  0.17860181  1
  Zn  Zn22  1  -0.00000000  0.00000000  0.00000690  1
  Zn  Zn23  1  0.33333300  0.66666700  0.39287084  1
  Zn  Zn24  1  0.00000000  -0.00000000  0.57144284  1
  Zn  Zn25  1  0.00000000  -0.00000000  0.42858553  1
  Zn  Zn26  1  0.33333300  0.66666700  0.85716251  1
  Zn  Zn27  1  0.33333300  0.66666700  0.75003122  1
  S  S28  1  0.66666700  0.33333300  0.20536210  1
  S  S29  1  0.00000000  0.00000000  0.34824193  1
  S  S30  1  0.33333300  0.66666700  0.41964110  1
  S  S31  1  0.66666700  0.33333300  0.66960875  1
  S  S32  1  0.33333300  0.66666700  0.77678030  1
  S  S33  1  0.33333300  0.66666700  0.99101399  1
  S  S34  1  0.33333300  0.66666700  0.27675644  1
  S  S35  1  0.00000000  0.00000000  0.45534489  1
  S  S36  1  -0.00000000  0.00000000  0.02679547  1
  S  S37  1  0.33333300  0.66666700  0.63392384  1
  S  S38  1  -0.00000000  0.00000000  0.59821803  1
  S  S39  1  0.33333300  0.66666700  0.06248820  1
  S  S40  1  0.66666700  0.33333300  0.09823089  1
  S  S41  1  0.00000000  0.00000000  0.13393097  1
  S  S42  1  0.66666700  0.33333300  0.84822122  1
  S  S43  1  0.66666700  0.33333300  0.31242017  1
  S  S44  1  0.66666700  0.33333300  0.56248606  1
  S  S45  1  0.66666700  0.33333300  0.95534660  1
  S  S46  1  0.00000000  0.00000000  0.91963980  1
  S  S47  1  0.33333300  0.66666700  0.88393695  1
  S  S48  1  -0.00000000  0.00000000  0.24106507  1
  S  S49  1  0.00000000  -0.00000000  0.70539179  1
  S  S50  1  0.66666700  0.33333300  0.49101153  1
  S  S51  1  0.66666700  0.33333300  0.74107302  1
  S  S52  1  0.66666700  0.33333300  0.38395202  1
  S  S53  1  0.33333300  0.66666700  0.16964423  1
  S  S54  1  0.00000000  0.00000000  0.81247427  1
  S  S55  1  0.33333300  0.66666700  0.52680291  1
