# generated using pymatgen
data_CsGaS3
_symmetry_space_group_name_H-M   'P 1'
_cell_length_a   6.46740747
_cell_length_b   7.65688873
_cell_length_c   12.64182486
_cell_angle_alpha   90.00000000
_cell_angle_beta   90.00000000
_cell_angle_gamma   107.62892839
_symmetry_Int_Tables_number   1
_chemical_formula_structural   CsGaS3
_chemical_formula_sum   'Cs4 Ga4 S12'
_cell_volume   596.62643548
_cell_formula_units_Z   4
loop_
 _symmetry_equiv_pos_site_id
 _symmetry_equiv_pos_as_xyz
  1  'x, y, z'
loop_
 _atom_site_type_symbol
 _atom_site_label
 _atom_site_symmetry_multiplicity
 _atom_site_fract_x
 _atom_site_fract_y
 _atom_site_fract_z
 _atom_site_occupancy
  Cs  Cs0  1  0.28145313  0.25272391  0.91636931  1
  Cs  Cs1  1  0.78145313  0.25272391  0.58363069  1
  Cs  Cs2  1  0.21854687  0.74727609  0.41636931  1
  Cs  Cs3  1  0.71854687  0.74727609  0.08363069  1
  Ga  Ga4  1  0.35550491  0.80896578  0.77133178  1
  Ga  Ga5  1  0.14449609  0.19103422  0.27133178  1
  Ga  Ga6  1  0.85550391  0.80896578  0.72866822  1
  Ga  Ga7  1  0.64449609  0.19103422  0.22866822  1
  S  S8  1  0.81188467  0.02108276  0.32453531  1
  S  S9  1  0.31188467  0.02108276  0.17546469  1
  S  S10  1  0.36679306  0.55819734  0.67310019  1
  S  S11  1  0.64247475  0.69280390  0.58506979  1
  S  S12  1  0.35752525  0.30719610  0.41493021  1
  S  S13  1  0.14247475  0.69280390  0.91493021  1
  S  S14  1  0.86679306  0.55819734  0.82689981  1
  S  S15  1  0.13320694  0.44180266  0.17310019  1
  S  S16  1  0.68811533  0.97891724  0.82453531  1
  S  S17  1  0.18811533  0.97891724  0.67546469  1
  S  S18  1  0.63320694  0.44180266  0.32689981  1
  S  S19  1  0.85752525  0.30719610  0.08506979  1
