# generated using pymatgen
data_Na2CuP2O7
_symmetry_space_group_name_H-M   'P 1'
_cell_length_a   5.07263812
_cell_length_b   8.73616863
_cell_length_c   13.34579949
_cell_angle_alpha   90.00000000
_cell_angle_beta   90.00000000
_cell_angle_gamma   92.99015929
_symmetry_Int_Tables_number   1
_chemical_formula_structural   Na2CuP2O7
_chemical_formula_sum   'Na8 Cu4 P8 O28'
_cell_volume   590.61951626
_cell_formula_units_Z   4
loop_
 _symmetry_equiv_pos_site_id
 _symmetry_equiv_pos_as_xyz
  1  'x, y, z'
loop_
 _atom_site_type_symbol
 _atom_site_label
 _atom_site_symmetry_multiplicity
 _atom_site_fract_x
 _atom_site_fract_y
 _atom_site_fract_z
 _atom_site_occupancy
  Na  Na0  1  0.28514845  0.36851384  0.38739861  1
  Na  Na1  1  0.73541417  0.15400044  0.29005008  1
  Na  Na2  1  0.23541417  0.65400044  0.20994992  1
  Na  Na3  1  0.71485155  0.63148616  0.61260139  1
  Na  Na4  1  0.78514845  0.86851384  0.11260139  1
  Na  Na5  1  0.76458583  0.34599956  0.79005008  1
  Na  Na6  1  0.26458583  0.84599956  0.70994992  1
  Na  Na7  1  0.21485155  0.13148616  0.88739861  1
  Cu  Cu8  1  0.20499846  0.25863396  0.15621539  1
  Cu  Cu9  1  0.70499846  0.75863396  0.34378461  1
  Cu  Cu10  1  0.29500154  0.24136604  0.65621539  1
  Cu  Cu11  1  0.79500154  0.74136604  0.84378461  1
  P  P12  1  0.77088980  0.04192408  0.67887374  1
  P  P13  1  0.27088980  0.54192408  0.82112626  1
  P  P14  1  0.70640018  0.22647218  0.03484302  1
  P  P15  1  0.22911020  0.95807592  0.32112526  1
  P  P16  1  0.29359982  0.77352782  0.96515698  1
  P  P17  1  0.72911020  0.45807592  0.17887474  1
  P  P18  1  0.79359982  0.27352782  0.53484302  1
  P  P19  1  0.20640018  0.72647218  0.46515698  1
  O  O20  1  0.99573495  0.14167573  0.72495032  1
  O  O21  1  0.49511398  0.91669521  0.27735870  1
  O  O22  1  0.18748158  0.12595894  0.31468633  1
  O  O23  1  0.79908089  0.21171067  0.93026821  1
  O  O24  1  0.08469468  0.32326069  0.54958689  1
  O  O25  1  0.49573495  0.64167573  0.77504968  1
  O  O26  1  0.91530532  0.67673931  0.45041311  1
  O  O27  1  0.99511398  0.41669521  0.22264130  1
  O  O28  1  0.58469468  0.82326069  0.95041311  1
  O  O29  1  0.00426505  0.85832427  0.27504968  1
  O  O30  1  0.87714495  0.14876711  0.11377431  1
  O  O31  1  0.37714495  0.64876711  0.38622569  1
  O  O32  1  0.62285505  0.35123289  0.61377431  1
  O  O33  1  0.81251842  0.87404106  0.68531367  1
  O  O34  1  0.00488602  0.58330479  0.77735870  1
  O  O35  1  0.76553850  0.09137967  0.56291457  1
  O  O36  1  0.26553850  0.59137967  0.93708543  1
  O  O37  1  0.68748158  0.62595894  0.18531367  1
  O  O38  1  0.12285505  0.85123289  0.88622569  1
  O  O39  1  0.50426505  0.35832427  0.22495032  1
  O  O40  1  0.73446150  0.40862033  0.06291457  1
  O  O41  1  0.41530532  0.17673931  0.04958689  1
  O  O42  1  0.31251842  0.37404106  0.81468633  1
  O  O43  1  0.20091911  0.78828933  0.06973179  1
  O  O44  1  0.50488602  0.08330479  0.72264130  1
  O  O45  1  0.23446150  0.90862033  0.43708543  1
  O  O46  1  0.70091911  0.28828933  0.43026821  1
  O  O47  1  0.29908089  0.71171067  0.56973179  1
