# generated using pymatgen
data_Sc2CI3
_symmetry_space_group_name_H-M   'P 1'
_cell_length_a   10.97225894
_cell_length_b   11.06749697
_cell_length_c   14.14493772
_cell_angle_alpha   107.33265096
_cell_angle_beta   88.04285611
_cell_angle_gamma   119.34748589
_symmetry_Int_Tables_number   1
_chemical_formula_structural   Sc2CI3
_chemical_formula_sum   'Sc16 C8 I24'
_cell_volume   1416.29091119
_cell_formula_units_Z   8
loop_
 _symmetry_equiv_pos_site_id
 _symmetry_equiv_pos_as_xyz
  1  'x, y, z'
loop_
 _atom_site_type_symbol
 _atom_site_label
 _atom_site_symmetry_multiplicity
 _atom_site_fract_x
 _atom_site_fract_y
 _atom_site_fract_z
 _atom_site_occupancy
  Sc  Sc0  1  0.56404630  0.40515988  0.60218046  1
  Sc  Sc1  1  0.43595370  0.59484012  0.39781954  1
  Sc  Sc2  1  0.92655569  0.64489152  0.66248173  1
  Sc  Sc3  1  0.07344431  0.35510848  0.33751827  1
  Sc  Sc4  1  0.66263934  0.53087738  0.83723299  1
  Sc  Sc5  1  0.33736066  0.46912262  0.16276701  1
  Sc  Sc6  1  0.80524628  0.90996478  0.89232099  1
  Sc  Sc7  1  0.19475372  0.09003522  0.10767901  1
  Sc  Sc8  1  0.15121603  0.16117669  0.87987675  1
  Sc  Sc9  1  0.84878397  0.83882331  0.12012325  1
  Sc  Sc10  1  0.30123227  0.51840675  0.62042710  1
  Sc  Sc11  1  0.69876773  0.48159325  0.37957290  1
  Sc  Sc12  1  0.66210822  0.71707157  0.60476701  1
  Sc  Sc13  1  0.33789178  0.28292843  0.39523299  1
  Sc  Sc14  1  0.01400399  0.80485634  0.89922058  1
  Sc  Sc15  1  0.98599601  0.19514366  0.10077942  1
  C  C16  1  0.83041626  0.71327140  0.79223977  1
  C  C17  1  0.16958374  0.28672860  0.20776023  1
  C  C18  1  0.95978921  0.95739638  0.02955909  1
  C  C19  1  0.04021079  0.04260362  0.97044091  1
  C  C20  1  0.71857022  0.61311345  0.70758590  1
  C  C21  1  0.28142978  0.38688655  0.29241410  1
  C  C22  1  0.44843925  0.50317321  0.53018756  1
  C  C23  1  0.55156075  0.49682679  0.46981244  1
  I  I24  1  0.85774245  0.57637466  0.00003864  1
  I  I25  1  0.14225755  0.42362534  -0.00003864  1
  I  I26  1  0.57813422  0.71323233  0.99499231  1
  I  I27  1  0.42186578  0.28676767  0.00500769  1
  I  I28  1  0.72805947  0.12841347  0.99421231  1
  I  I29  1  0.27194053  0.87158653  0.00578769  1
  I  I30  1  0.63814411  0.90103612  0.50610146  1
  I  I31  1  0.36185589  0.09896388  0.49389854  1
  I  I32  1  0.92484711  0.77194484  0.50501333  1
  I  I33  1  0.07515289  0.22805516  0.49498667  1
  I  I34  1  0.78660369  0.35632801  0.49876057  1
  I  I35  1  0.21339631  0.64367199  0.50123943  1
  I  I36  1  0.20029395  0.93343546  0.74945663  1
  I  I37  1  0.79970605  0.06656454  0.25054337  1
  I  I38  1  0.50320613  0.80234165  0.75700495  1
  I  I39  1  0.49679387  0.19765835  0.24299505  1
  I  I40  1  0.06093874  0.52852283  0.75099636  1
  I  I41  1  0.93906126  0.47147717  0.24900364  1
  I  I42  1  0.34519067  0.37674741  0.75333054  1
  I  I43  1  0.65480933  0.62325259  0.24666946  1
  I  I44  1  0.90838460  0.06592382  0.74376020  1
  I  I45  1  0.09161540  0.93407618  0.25623980  1
  I  I46  1  0.62916894  0.25620697  0.73889708  1
  I  I47  1  0.37083106  0.74379303  0.26110292  1
