# generated using pymatgen
data_UTl2(TeO4)2
_symmetry_space_group_name_H-M   'P 1'
_cell_length_a   7.39185167
_cell_length_b   7.93291640
_cell_length_c   8.95741083
_cell_angle_alpha   92.78507407
_cell_angle_beta   107.82080962
_cell_angle_gamma   107.84949354
_symmetry_Int_Tables_number   1
_chemical_formula_structural   UTl2(TeO4)2
_chemical_formula_sum   'U2 Tl4 Te4 O16'
_cell_volume   470.06739721
_cell_formula_units_Z   2
loop_
 _symmetry_equiv_pos_site_id
 _symmetry_equiv_pos_as_xyz
  1  'x, y, z'
loop_
 _atom_site_type_symbol
 _atom_site_label
 _atom_site_symmetry_multiplicity
 _atom_site_fract_x
 _atom_site_fract_y
 _atom_site_fract_z
 _atom_site_occupancy
  U  U0  1  0.11125297  0.93817664  0.71472058  1
  U  U1  1  0.88874660  0.06182603  0.28527680  1
  Tl  Tl2  1  0.03489545  0.41348600  0.68140363  1
  Tl  Tl3  1  0.28924306  0.43016470  0.09047091  1
  Tl  Tl4  1  0.71075453  0.56982980  0.90952947  1
  Tl  Tl5  1  0.96511956  0.58653692  0.31860852  1
  Te  Te6  1  0.40087364  0.28602015  0.48446129  1
  Te  Te7  1  0.59912497  0.71397912  0.51554143  1
  Te  Te8  1  0.66374590  0.09027614  0.86488524  1
  Te  Te9  1  0.33624926  0.90972302  0.13510383  1
  O  O10  1  0.58266578  0.89260133  0.11896830  1
  O  O11  1  0.41733282  0.10741160  0.88103397  1
  O  O12  1  0.42529688  0.49402856  0.61401419  1
  O  O13  1  0.22327220  0.80102923  0.62411691  1
  O  O14  1  0.18248768  0.29661743  0.30856436  1
  O  O15  1  0.99737403  0.91517063  0.19943630  1
  O  O16  1  0.57470483  0.50596027  0.38599670  1
  O  O17  1  0.16069668  0.78621967  0.93377201  1
  O  O18  1  0.83930478  0.21377007  0.06621968  1
  O  O19  1  0.29645074  0.71497958  0.24528332  1
  O  O20  1  0.81751295  0.70337802  0.69143521  1
  O  O21  1  0.70356477  0.28502744  0.75471926  1
  O  O22  1  0.17265971  0.13996630  0.54828818  1
  O  O23  1  0.00260570  0.08482158  0.80055940  1
  O  O24  1  0.77672856  0.19897747  0.37588402  1
  O  O25  1  0.82733196  0.86002530  0.45170451  1
