# generated using pymatgen
data_Ba3(PS4)2
_symmetry_space_group_name_H-M   'P 1'
_cell_length_a   6.66580551
_cell_length_b   11.80887612
_cell_length_c   17.50034086
_cell_angle_alpha   89.81915446
_cell_angle_beta   90.00000000
_cell_angle_gamma   90.00000000
_symmetry_Int_Tables_number   1
_chemical_formula_structural   Ba3(PS4)2
_chemical_formula_sum   'Ba12 P8 S32'
_cell_volume   1377.54422105
_cell_formula_units_Z   4
loop_
 _symmetry_equiv_pos_site_id
 _symmetry_equiv_pos_as_xyz
  1  'x, y, z'
loop_
 _atom_site_type_symbol
 _atom_site_label
 _atom_site_symmetry_multiplicity
 _atom_site_fract_x
 _atom_site_fract_y
 _atom_site_fract_z
 _atom_site_occupancy
  Ba  Ba0  1  0.48524113  0.83032736  0.42635388  1
  Ba  Ba1  1  0.01475887  0.33032736  0.42635388  1
  Ba  Ba2  1  0.04915325  0.02279993  0.74813392  1
  Ba  Ba3  1  0.49178342  0.84154744  0.92606924  1
  Ba  Ba4  1  0.99178342  0.65845256  0.07393076  1
  Ba  Ba5  1  0.54915325  0.47720007  0.25186608  1
  Ba  Ba6  1  0.00821658  0.34154744  0.92606924  1
  Ba  Ba7  1  0.50821658  0.15845256  0.07393076  1
  Ba  Ba8  1  0.98524113  0.66967264  0.57364612  1
  Ba  Ba9  1  0.51475887  0.16967264  0.57364612  1
  Ba  Ba10  1  0.45084675  0.52279993  0.74813392  1
  Ba  Ba11  1  0.95084675  0.97720007  0.25186608  1
  P  P12  1  0.46413459  0.83814032  0.13984457  1
  P  P13  1  0.48161491  0.82955898  0.63950443  1
  P  P14  1  0.98161491  0.67044102  0.36049557  1
  P  P15  1  0.01838509  0.32955898  0.63950443  1
  P  P16  1  0.51838509  0.17044102  0.36049557  1
  P  P17  1  0.53586541  0.16185968  0.86015543  1
  P  P18  1  0.96413459  0.66185968  0.86015543  1
  P  P19  1  0.03586541  0.33814032  0.13984457  1
  S  S20  1  0.73311708  0.07536295  0.41398617  1
  S  S21  1  0.01200849  0.17548716  0.58564303  1
  S  S22  1  0.27644380  0.09844489  0.90702246  1
  S  S23  1  0.26944481  0.40483529  0.07920034  1
  S  S24  1  0.26688292  0.92463705  0.58601383  1
  S  S25  1  0.23311708  0.42463705  0.58601383  1
  S  S26  1  0.72355620  0.90155511  0.09297754  1
  S  S27  1  0.76688292  0.57536295  0.41398617  1
  S  S28  1  0.73055519  0.59516471  0.92079966  1
  S  S29  1  0.10677656  0.30264179  0.74867916  1
  S  S30  1  0.89322344  0.69735821  0.25132084  1
  S  S31  1  0.48799151  0.67548716  0.58564303  1
  S  S32  1  0.03504455  0.16822822  0.12004375  1
  S  S33  1  0.46495545  0.66822822  0.12004375  1
  S  S34  1  0.51200849  0.32451284  0.41435697  1
  S  S35  1  0.98799151  0.82451284  0.41435697  1
  S  S36  1  0.74937823  0.40468593  0.61911276  1
  S  S37  1  0.22355620  0.59844489  0.90702246  1
  S  S38  1  0.60677656  0.19735821  0.25132084  1
  S  S39  1  0.24937823  0.09531407  0.38088724  1
  S  S40  1  0.96495545  0.83177178  0.87995625  1
  S  S41  1  0.53504455  0.33177178  0.87995625  1
  S  S42  1  0.93616191  0.60682865  0.75125694  1
  S  S43  1  0.75062177  0.90468593  0.61911276  1
  S  S44  1  0.25062177  0.59531407  0.38088724  1
  S  S45  1  0.06383809  0.39317135  0.24874306  1
  S  S46  1  0.43616191  0.89317135  0.24874306  1
  S  S47  1  0.77644380  0.40155511  0.09297754  1
  S  S48  1  0.56383809  0.10682865  0.75125694  1
  S  S49  1  0.76944481  0.09516471  0.92079966  1
  S  S50  1  0.39322344  0.80264179  0.74867916  1
  S  S51  1  0.23055519  0.90483529  0.07920034  1
