# generated using pymatgen
data_Na3MoN3
_symmetry_space_group_name_H-M   'P 1'
_cell_length_a   8.72933760
_cell_length_b   8.72933760
_cell_length_c   6.32810381
_cell_angle_alpha   69.28558477
_cell_angle_beta   69.28558477
_cell_angle_gamma   77.14152636
_symmetry_Int_Tables_number   1
_chemical_formula_structural   Na3MoN3
_chemical_formula_sum   'Na12 Mo4 N12'
_cell_volume   419.25592709
_cell_formula_units_Z   4
loop_
 _symmetry_equiv_pos_site_id
 _symmetry_equiv_pos_as_xyz
  1  'x, y, z'
loop_
 _atom_site_type_symbol
 _atom_site_label
 _atom_site_symmetry_multiplicity
 _atom_site_fract_x
 _atom_site_fract_y
 _atom_site_fract_z
 _atom_site_occupancy
  Na  Na0  1  0.71690060  0.29499155  0.02939962  1
  Na  Na1  1  0.29499155  0.71690060  0.52939962  1
  Na  Na2  1  0.63646104  0.60195672  0.57159925  1
  Na  Na3  1  0.60195672  0.63646104  0.07159925  1
  Na  Na4  1  0.39791365  0.35596106  0.81067986  1
  Na  Na5  1  0.35596106  0.39791365  0.31067986  1
  Na  Na6  1  0.00447177  0.53131600  0.03471146  1
  Na  Na7  1  0.53131600  0.00447177  0.53471146  1
  Na  Na8  1  0.91891061  0.85202780  0.60497337  1
  Na  Na9  1  0.85202780  0.91891061  0.10497337  1
  Na  Na10  1  0.11777034  0.15791028  0.13449019  1
  Na  Na11  1  0.15791028  0.11777034  0.63449019  1
  Mo  Mo12  1  0.23923143  0.76416943  0.00415491  1
  Mo  Mo13  1  0.76416943  0.23923143  0.50415491  1
  Mo  Mo14  1  0.00804932  0.49067324  0.57769688  1
  Mo  Mo15  1  0.49067324  0.00804932  0.07769688  1
  N  N16  1  0.38860907  0.60298221  0.90995413  1
  N  N17  1  0.60298221  0.38860907  0.40995413  1
  N  N18  1  0.09888003  0.83135069  0.82886719  1
  N  N19  1  0.83135069  0.09888003  0.32886719  1
  N  N20  1  0.14755573  0.36972951  0.74258843  1
  N  N21  1  0.36972951  0.14755573  0.24258843  1
  N  N22  1  0.83122057  0.57261500  0.77537756  1
  N  N23  1  0.57261500  0.83122057  0.27537756  1
  N  N24  1  0.67547682  0.11586543  0.83115090  1
  N  N25  1  0.11586543  0.67547682  0.33115090  1
  N  N26  1  0.95273008  0.34838801  0.44755425  1
  N  N27  1  0.34838801  0.95273008  0.94755425  1
