# generated using pymatgen
data_Na7Sr2Fe7F32
_symmetry_space_group_name_H-M   'P 1'
_cell_length_a   7.63009223
_cell_length_b   7.63009223
_cell_length_c   23.37800950
_cell_angle_alpha   99.00083697
_cell_angle_beta   99.00083697
_cell_angle_gamma   92.36730460
_symmetry_Int_Tables_number   1
_chemical_formula_structural   Na7Sr2Fe7F32
_chemical_formula_sum   'Na14 Sr4 Fe14 F64'
_cell_volume   1324.69319927
_cell_formula_units_Z   2
loop_
 _symmetry_equiv_pos_site_id
 _symmetry_equiv_pos_as_xyz
  1  'x, y, z'
loop_
 _atom_site_type_symbol
 _atom_site_label
 _atom_site_symmetry_multiplicity
 _atom_site_fract_x
 _atom_site_fract_y
 _atom_site_fract_z
 _atom_site_occupancy
  Na  Na0  1  0.37500000  0.12500000  0.25000000  1
  Na  Na1  1  0.62500000  0.87500000  0.75000000  1
  Na  Na2  1  0.62933429  0.37933429  0.75866859  1
  Na  Na3  1  0.12066571  0.87066571  0.74133141  1
  Na  Na4  1  0.37066571  0.62066571  0.24133141  1
  Na  Na5  1  0.87933429  0.12933429  0.25866859  1
  Na  Na6  1  0.31760709  0.57040391  0.63271529  1
  Na  Na7  1  0.43768862  0.68489180  0.86728471  1
  Na  Na8  1  0.92959609  0.18239291  0.86728471  1
  Na  Na9  1  0.81510820  0.06231138  0.63271529  1
  Na  Na10  1  0.68239291  0.42959609  0.36728471  1
  Na  Na11  1  0.56231138  0.31510820  0.13271529  1
  Na  Na12  1  0.07040391  0.81760709  0.13271529  1
  Na  Na13  1  0.18489180  0.93768862  0.36728471  1
  Sr  Sr14  1  0.50716698  0.25716698  0.51433396  1
  Sr  Sr15  1  0.24283302  0.99283302  0.98566604  1
  Sr  Sr16  1  0.49283302  0.74283302  0.48566604  1
  Sr  Sr17  1  0.75716698  0.00716698  0.01433396  1
  Fe  Fe18  1  0.87500000  0.62500000  0.25000000  1
  Fe  Fe19  1  0.12500000  0.37500000  0.75000000  1
  Fe  Fe20  1  0.00000000  0.50000000  0.00000000  1
  Fe  Fe21  1  0.00000000  -0.00000000  0.50000000  1
  Fe  Fe22  1  0.00000000  0.50000000  0.50000000  1
  Fe  Fe23  1  0.50000000  0.50000000  0.00000000  1
  Fe  Fe24  1  0.20993592  0.43242119  0.36450216  1
  Fe  Fe25  1  0.56791903  0.84543376  0.13549784  1
  Fe  Fe26  1  0.06757881  0.29006408  0.13549784  1
  Fe  Fe27  1  0.65456624  0.93208097  0.36450216  1
  Fe  Fe28  1  0.79006408  0.56757881  0.63549784  1
  Fe  Fe29  1  0.43208097  0.15456624  0.86450216  1
  Fe  Fe30  1  0.93242119  0.70993592  0.86450216  1
  Fe  Fe31  1  0.34543376  0.06791903  0.63549784  1
  F  F32  1  0.37525901  0.42980623  0.30946495  1
  F  F33  1  0.62034128  0.06579406  0.19053505  1
  F  F34  1  0.07019377  0.12474099  0.19053505  1
  F  F35  1  0.43420594  0.87965872  0.30946495  1
  F  F36  1  0.62474099  0.57019377  0.69053505  1
  F  F37  1  0.37965872  0.93420594  0.80946495  1
  F  F38  1  0.92980623  0.87525901  0.80946495  1
  F  F39  1  0.56579406  0.12034128  0.69053505  1
  F  F40  1  0.46501393  0.97459619  0.07469566  1
  F  F41  1  0.39990054  0.39031827  0.42530434  1
  F  F42  1  0.52540381  0.03498607  0.42530434  1
  F  F43  1  0.10968173  0.10009946  0.07469566  1
  F  F44  1  0.53498607  0.02540381  0.92530434  1
  F  F45  1  0.60009946  0.60968173  0.57469566  1
  F  F46  1  0.47459619  0.96501393  0.57469566  1
  F  F47  1  0.89031827  0.89990054  0.92530434  1
  F  F48  1  0.25698310  0.53896245  0.52254947  1
  F  F49  1  0.51641298  0.73443363  0.97745053  1
  F  F50  1  0.96103755  0.24301690  0.97745053  1
  F  F51  1  0.76556637  0.98358702  0.52254947  1
  F  F52  1  0.74301690  0.46103755  0.47745053  1
  F  F53  1  0.48358702  0.26556637  0.02254947  1
  F  F54  1  0.03896245  0.75698310  0.02254947  1
  F  F55  1  0.23443363  0.01641298  0.47745053  1
  F  F56  1  0.74302080  0.31768614  0.60208661  1
  F  F57  1  0.21559953  0.14093419  0.89791339  1
  F  F58  1  0.18231386  0.75697920  0.89791339  1
  F  F59  1  0.35906581  0.28440047  0.60208661  1
  F  F60  1  0.25697920  0.68231386  0.39791339  1
  F  F61  1  0.78440047  0.85906581  0.10208661  1
  F  F62  1  0.81768614  0.24302080  0.10208661  1
  F  F63  1  0.64093419  0.71559953  0.39791339  1
  F  F64  1  0.08196144  0.47791421  0.08302981  1
  F  F65  1  0.89488440  0.99893163  0.41697019  1
  F  F66  1  0.02208579  0.41803856  0.41697019  1
  F  F67  1  0.50106837  0.60511560  0.08302981  1
  F  F68  1  0.91803856  0.52208579  0.91697019  1
  F  F69  1  0.10511560  0.00106837  0.58302981  1
  F  F70  1  0.97791421  0.58196144  0.58302981  1
  F  F71  1  0.49893163  0.39488440  0.91697019  1
  F  F72  1  0.30993849  0.85740562  0.67005058  1
  F  F73  1  0.68735504  0.63988791  0.82994942  1
  F  F74  1  0.64259438  0.19006151  0.82994942  1
  F  F75  1  0.86011209  0.81264496  0.67005058  1
  F  F76  1  0.69006151  0.14259438  0.32994942  1
  F  F77  1  0.31264496  0.36011209  0.17005058  1
  F  F78  1  0.35740562  0.80993849  0.17005058  1
  F  F79  1  0.13988791  0.18735504  0.32994942  1
  F  F80  1  0.99181798  0.48455607  0.19070506  1
  F  F81  1  0.79385101  0.80111292  0.30929494  1
  F  F82  1  0.01544393  0.50818202  0.30929494  1
  F  F83  1  0.69888708  0.70614899  0.19070506  1
  F  F84  1  0.00818202  0.51544393  0.80929494  1
  F  F85  1  0.20614899  0.19888708  0.69070506  1
  F  F86  1  0.98455607  0.49181798  0.69070506  1
  F  F87  1  0.30111292  0.29385101  0.80929494  1
  F  F88  1  0.75810046  0.50810046  0.01620091  1
  F  F89  1  0.99189954  0.74189954  0.48379909  1
  F  F90  1  0.24189954  0.49189954  0.98379909  1
  F  F91  1  0.00810046  0.25810046  0.51620091  1
  F  F92  1  0.05628595  0.80628595  0.25000000  1
  F  F93  1  0.69371405  0.44371405  0.25000000  1
  F  F94  1  0.94371405  0.19371405  0.75000000  1
  F  F95  1  0.30628595  0.55628595  0.75000000  1
