# generated using pymatgen
data_CdI2
_symmetry_space_group_name_H-M   'P 1'
_cell_length_a   4.28996995
_cell_length_b   4.28996995
_cell_length_c   57.58839862
_cell_angle_alpha   90.00000000
_cell_angle_beta   90.00000000
_cell_angle_gamma   120.00001091
_symmetry_Int_Tables_number   1
_chemical_formula_structural   CdI2
_chemical_formula_sum   'Cd8 I16'
_cell_volume   917.85501615
_cell_formula_units_Z   8
loop_
 _symmetry_equiv_pos_site_id
 _symmetry_equiv_pos_as_xyz
  1  'x, y, z'
loop_
 _atom_site_type_symbol
 _atom_site_label
 _atom_site_symmetry_multiplicity
 _atom_site_fract_x
 _atom_site_fract_y
 _atom_site_fract_z
 _atom_site_occupancy
  Cd  Cd0  1  0.00000000  -0.00000000  0.78120281  1
  Cd  Cd1  1  0.00000000  -0.00000000  0.40597474  1
  Cd  Cd2  1  0.00000000  -0.00000000  0.90629366  1
  Cd  Cd3  1  0.66666700  0.33333300  0.53130721  1
  Cd  Cd4  1  0.66666700  0.33333300  0.28163775  1
  Cd  Cd5  1  0.00000000  -0.00000000  0.15632086  1
  Cd  Cd6  1  0.66666700  0.33333300  0.03122724  1
  Cd  Cd7  1  0.66666700  0.33333300  0.65597074  1
  I  I8  1  0.33333300  0.66666700  0.81103028  1
  I  I9  1  0.33333300  0.66666700  0.56103502  1
  I  I10  1  0.66666700  0.33333300  0.12641861  1
  I  I11  1  0.00000000  -0.00000000  0.25173399  1
  I  I12  1  0.33333300  0.66666700  0.06102569  1
  I  I13  1  0.33333300  0.66666700  0.43576899  1
  I  I14  1  0.66666700  0.33333300  0.75140967  1
  I  I15  1  0.33333300  0.66666700  0.18622972  1
  I  I16  1  0.66666700  0.33333300  0.87642462  1
  I  I17  1  0.33333300  0.66666700  0.31155660  1
  I  I18  1  0.33333300  0.66666700  0.93620451  1
  I  I19  1  0.00000000  -0.00000000  0.50156814  1
  I  I20  1  0.66666700  0.33333300  0.37622305  1
  I  I21  1  0.00000000  -0.00000000  0.62621507  1
  I  I22  1  0.33333300  0.66666700  0.68574739  1
  I  I23  1  0.00000000  -0.00000000  0.00147264  1
