# generated using pymatgen
data_FePO4
_symmetry_space_group_name_H-M   'P 1'
_cell_length_a   5.26235261
_cell_length_b   8.56230701
_cell_length_c   8.57234021
_cell_angle_alpha   72.33160256
_cell_angle_beta   90.00000000
_cell_angle_gamma   90.00000000
_symmetry_Int_Tables_number   1
_chemical_formula_structural   FePO4
_chemical_formula_sum   'Fe4 P4 O16'
_cell_volume   368.03160918
_cell_formula_units_Z   4
loop_
 _symmetry_equiv_pos_site_id
 _symmetry_equiv_pos_as_xyz
  1  'x, y, z'
loop_
 _atom_site_type_symbol
 _atom_site_label
 _atom_site_symmetry_multiplicity
 _atom_site_fract_x
 _atom_site_fract_y
 _atom_site_fract_z
 _atom_site_occupancy
  Fe  Fe0  1  0.30431075  0.21981587  0.12902480  1
  Fe  Fe1  1  0.80749722  0.37314399  0.62920457  1
  Fe  Fe2  1  0.69568925  0.71981587  0.12902480  1
  Fe  Fe3  1  0.19250278  0.87314399  0.62920457  1
  P  P4  1  0.69335560  0.99701875  0.75788700  1
  P  P5  1  0.80323020  0.34365367  0.25760632  1
  P  P6  1  0.30664440  0.49701875  0.75788700  1
  P  P7  1  0.19676980  0.84365367  0.25760632  1
  O  O8  1  0.22363955  0.00932886  0.12410830  1
  O  O9  1  0.41812384  0.00627181  0.69850292  1
  O  O10  1  0.62782042  0.21887750  0.21678353  1
  O  O11  1  0.07694952  0.28177857  0.26687406  1
  O  O12  1  0.76902097  0.16314600  0.77642848  1
  O  O13  1  0.72802303  0.36409116  0.42257274  1
  O  O14  1  0.77636045  0.50932886  0.12410830  1
  O  O15  1  0.27653708  0.36630487  0.92306278  1
  O  O16  1  0.13437909  0.45403495  0.63245650  1
  O  O17  1  0.58187616  0.50627181  0.69850292  1
  O  O18  1  0.37217958  0.71887750  0.21678353  1
  O  O19  1  0.92305048  0.78177857  0.26687406  1
  O  O20  1  0.23097903  0.66314600  0.77642848  1
  O  O21  1  0.27197697  0.86409116  0.42257274  1
  O  O22  1  0.72346292  0.86630487  0.92306278  1
  O  O23  1  0.86562091  0.95403495  0.63245650  1
