# generated using pymatgen
data_UTe2PbO8
_symmetry_space_group_name_H-M   'P 1'
_cell_length_a   7.03288396
_cell_length_b   7.76259200
_cell_length_c   13.89523011
_cell_angle_alpha   85.32150741
_cell_angle_beta   90.00000000
_cell_angle_gamma   90.00000000
_symmetry_Int_Tables_number   1
_chemical_formula_structural   UTe2PbO8
_chemical_formula_sum   'U4 Te8 Pb4 O32'
_cell_volume   756.06041844
_cell_formula_units_Z   4
loop_
 _symmetry_equiv_pos_site_id
 _symmetry_equiv_pos_as_xyz
  1  'x, y, z'
loop_
 _atom_site_type_symbol
 _atom_site_label
 _atom_site_symmetry_multiplicity
 _atom_site_fract_x
 _atom_site_fract_y
 _atom_site_fract_z
 _atom_site_occupancy
  U  U0  1  0.84687424  0.05109214  0.19188370  1
  U  U1  1  0.34687424  0.94890786  0.30811630  1
  U  U2  1  0.15312576  0.94890786  0.80811630  1
  U  U3  1  0.65312576  0.05109214  0.69188370  1
  Te  Te4  1  0.31378235  0.64710711  0.54499800  1
  Te  Te5  1  0.68621765  0.35289289  0.45500200  1
  Te  Te6  1  0.66262132  0.81126287  0.92311032  1
  Te  Te7  1  0.18621765  0.64710711  0.04499800  1
  Te  Te8  1  0.83737868  0.81126287  0.42311032  1
  Te  Te9  1  0.33737868  0.18873713  0.07688968  1
  Te  Te10  1  0.16262132  0.18873713  0.57688968  1
  Te  Te11  1  0.81378235  0.35289289  0.95500200  1
  Pb  Pb12  1  0.63502920  0.56619844  0.17552031  1
  Pb  Pb13  1  0.86497080  0.56619844  0.67552031  1
  Pb  Pb14  1  0.13502920  0.43380156  0.32447969  1
  Pb  Pb15  1  0.36497080  0.43380156  0.82447969  1
  O  O16  1  0.83507532  0.26882394  0.24015738  1
  O  O17  1  0.34559645  0.39121656  0.14063746  1
  O  O18  1  0.33507532  0.73117606  0.25984262  1
  O  O19  1  0.35117747  0.16833472  0.35173181  1
  O  O20  1  0.82388016  0.52410375  0.04280698  1
  O  O21  1  0.64882253  0.83166528  0.64826819  1
  O  O22  1  0.16918298  0.07092422  0.18064233  1
  O  O23  1  0.04975521  0.70904486  0.53195912  1
  O  O24  1  0.38815099  0.83007181  0.45396561  1
  O  O25  1  0.14882253  0.16833472  0.85173181  1
  O  O26  1  0.67611984  0.52410375  0.54280698  1
  O  O27  1  0.03093001  0.92761959  0.34676588  1
  O  O28  1  0.61184901  0.16992819  0.54603439  1
  O  O29  1  0.96906999  0.07238041  0.65323412  1
  O  O30  1  0.15440355  0.39121656  0.64063746  1
  O  O31  1  0.53093001  0.07238041  0.15323412  1
  O  O32  1  0.32388016  0.47589625  0.45719302  1
  O  O33  1  0.83081702  0.92907578  0.81935767  1
  O  O34  1  0.11184901  0.83007181  0.95396561  1
  O  O35  1  0.65440355  0.60878344  0.85936254  1
  O  O36  1  0.17611984  0.47589625  0.95719302  1
  O  O37  1  0.84559645  0.60878344  0.35936254  1
  O  O38  1  0.88815099  0.16992819  0.04603439  1
  O  O39  1  0.85117747  0.83166528  0.14826819  1
  O  O40  1  0.16492468  0.73117606  0.75984262  1
  O  O41  1  0.46906999  0.92761959  0.84676588  1
  O  O42  1  0.66918298  0.92907578  0.31935767  1
  O  O43  1  0.66492468  0.26882394  0.74015738  1
  O  O44  1  0.45024479  0.70904486  0.03195912  1
  O  O45  1  0.33081702  0.07092422  0.68064233  1
  O  O46  1  0.95024479  0.29095514  0.46804088  1
  O  O47  1  0.54975521  0.29095514  0.96804088  1
