# generated using pymatgen
data_Cs2U2O7
_symmetry_space_group_name_H-M   'P 1'
_cell_length_a   4.31973284
_cell_length_b   7.57269305
_cell_length_c   7.58796775
_cell_angle_alpha   112.41692694
_cell_angle_beta   106.53471003
_cell_angle_gamma   90.00480176
_symmetry_Int_Tables_number   1
_chemical_formula_structural   Cs2U2O7
_chemical_formula_sum   'Cs2 U2 O7'
_cell_volume   218.31362194
_cell_formula_units_Z   1
loop_
 _symmetry_equiv_pos_site_id
 _symmetry_equiv_pos_as_xyz
  1  'x, y, z'
loop_
 _atom_site_type_symbol
 _atom_site_label
 _atom_site_symmetry_multiplicity
 _atom_site_fract_x
 _atom_site_fract_y
 _atom_site_fract_z
 _atom_site_occupancy
  Cs  Cs0  1  0.60292915  0.41877260  0.20563842  1
  Cs  Cs1  1  0.39707029  0.58123491  0.79435576  1
  U  U2  1  0.85303809  0.00812906  0.70605482  1
  U  U3  1  0.14696592  0.99186784  0.29395367  1
  O  O4  1  0.19932038  0.25967131  0.39855204  1
  O  O5  1  0.69071210  0.99568249  0.38138585  1
  O  O6  1  0.91170685  0.27612165  0.82352191  1
  O  O7  1  0.99999670  0.99999756  0.00000117  1
  O  O8  1  0.30928717  0.00431588  0.61861243  1
  O  O9  1  0.08829087  0.72387678  0.17647797  1
  O  O10  1  0.80068248  0.74032992  0.60144696  1
