# generated using pymatgen
data_Na3MoH6(CO2)6
_symmetry_space_group_name_H-M   'P 1'
_cell_length_a   6.52397100
_cell_length_b   14.18020000
_cell_length_c   14.82947100
_cell_angle_alpha   90.00000000
_cell_angle_beta   90.00000000
_cell_angle_gamma   90.00000000
_symmetry_Int_Tables_number   1
_chemical_formula_structural   Na3MoH6(CO2)6
_chemical_formula_sum   'Na12 Mo4 H24 C24 O48'
_cell_volume   1371.89235887
_cell_formula_units_Z   4
loop_
 _symmetry_equiv_pos_site_id
 _symmetry_equiv_pos_as_xyz
  1  'x, y, z'
loop_
 _atom_site_type_symbol
 _atom_site_label
 _atom_site_symmetry_multiplicity
 _atom_site_fract_x
 _atom_site_fract_y
 _atom_site_fract_z
 _atom_site_occupancy
  Na  Na0  1  0.22704400  0.72064200  0.99956200  1
  Na  Na1  1  0.22704400  0.22064200  0.50043800  1
  Na  Na2  1  0.27295600  0.22064200  0.99956200  1
  Na  Na3  1  0.77295600  0.27935800  0.00043800  1
  Na  Na4  1  0.75000000  0.42337800  0.25000000  1
  Na  Na5  1  0.27295600  0.72064200  0.50043800  1
  Na  Na6  1  0.72704400  0.27935800  0.49956200  1
  Na  Na7  1  0.25000000  0.57662200  0.75000000  1
  Na  Na8  1  0.75000000  0.92337800  0.25000000  1
  Na  Na9  1  0.77295600  0.77935800  0.49956200  1
  Na  Na10  1  0.25000000  0.07662200  0.75000000  1
  Na  Na11  1  0.72704400  0.77935800  0.00043800  1
  Mo  Mo12  1  0.25000000  0.56358400  0.25000000  1
  Mo  Mo13  1  0.25000000  0.06358400  0.25000000  1
  Mo  Mo14  1  0.75000000  0.93641600  0.75000000  1
  Mo  Mo15  1  0.75000000  0.43641600  0.75000000  1
  H  H16  1  0.32415500  0.42596400  0.08687400  1
  H  H17  1  0.27038200  0.42972500  0.59116700  1
  H  H18  1  0.32415500  0.92596400  0.41312600  1
  H  H19  1  0.99863500  0.24525500  0.22599500  1
  H  H20  1  0.17584500  0.42596400  0.41312600  1
  H  H21  1  0.77038200  0.57027500  0.09116700  1
  H  H22  1  0.50136500  0.24525500  0.27400500  1
  H  H23  1  0.49863500  0.75474500  0.72599500  1
  H  H24  1  0.72961800  0.57027500  0.40883300  1
  H  H25  1  0.22961800  0.92972500  0.59116700  1
  H  H26  1  0.00136500  0.75474500  0.77400500  1
  H  H27  1  0.72961800  0.07027500  0.09116700  1
  H  H28  1  0.67584500  0.07403600  0.58687400  1
  H  H29  1  0.82415500  0.57403600  0.58687400  1
  H  H30  1  0.77038200  0.07027500  0.40883300  1
  H  H31  1  0.67584500  0.57403600  0.91312600  1
  H  H32  1  0.49863500  0.25474500  0.77400500  1
  H  H33  1  0.00136500  0.25474500  0.72599500  1
  H  H34  1  0.17584500  0.92596400  0.08687400  1
  H  H35  1  0.27038200  0.92972500  0.90883300  1
  H  H36  1  0.50136500  0.74525500  0.22599500  1
  H  H37  1  0.82415500  0.07403600  0.91312600  1
  H  H38  1  0.22961800  0.42972500  0.90883300  1
  H  H39  1  0.99863500  0.74525500  0.27400500  1
  C  C40  1  0.50150600  0.73849900  0.30064900  1
  C  C41  1  0.60878800  0.08919400  0.39413800  1
  C  C42  1  0.10878800  0.91080600  0.89413800  1
  C  C43  1  0.00150600  0.76150100  0.69935100  1
  C  C44  1  0.99849400  0.23849900  0.30064900  1
  C  C45  1  0.33842300  0.41211200  0.39615700  1
  C  C46  1  0.16157700  0.91211200  0.39615700  1
  C  C47  1  0.33842300  0.91211200  0.10384300  1
  C  C48  1  0.83842300  0.08788800  0.60384300  1
  C  C49  1  0.00150600  0.26150100  0.80064900  1
  C  C50  1  0.66157700  0.08788800  0.89615700  1
  C  C51  1  0.39121200  0.41080600  0.89413800  1
  C  C52  1  0.60878800  0.58919400  0.10586200  1
  C  C53  1  0.83842300  0.58788800  0.89615700  1
  C  C54  1  0.66157700  0.58788800  0.60384300  1
  C  C55  1  0.89121200  0.08919400  0.10586200  1
  C  C56  1  0.49849400  0.76150100  0.80064900  1
  C  C57  1  0.49849400  0.26150100  0.69935100  1
  C  C58  1  0.89121200  0.58919400  0.39413800  1
  C  C59  1  0.39121200  0.91080600  0.60586200  1
  C  C60  1  0.16157700  0.41211200  0.10384300  1
  C  C61  1  0.10878800  0.41080600  0.60586200  1
  C  C62  1  0.50150600  0.23849900  0.19935100  1
  C  C63  1  0.99849400  0.73849900  0.19935100  1
  O  O64  1  0.89507900  0.79519300  0.15346400  1
  O  O65  1  0.06282900  0.85414300  0.44208200  1
  O  O66  1  0.56282900  0.14585700  0.94208200  1
  O  O67  1  0.60923000  0.82874100  0.83410300  1
  O  O68  1  0.39507900  0.70480700  0.84653600  1
  O  O69  1  0.41234500  0.45760800  0.32780400  1
  O  O70  1  0.41234500  0.95760800  0.17219600  1
  O  O71  1  0.06282900  0.35414300  0.05791800  1
  O  O72  1  0.10492100  0.20480700  0.84653600  1
  O  O73  1  0.98359100  0.14484100  0.05522900  1
  O  O74  1  0.03661300  0.45096900  0.67751200  1
  O  O75  1  0.58765500  0.54239200  0.67219600  1
  O  O76  1  0.48359100  0.35515900  0.94477100  1
  O  O77  1  0.96338700  0.54903100  0.32248800  1
  O  O78  1  0.51640900  0.64484100  0.05522900  1
  O  O79  1  0.39077000  0.17125900  0.16589700  1
  O  O80  1  0.91234500  0.54239200  0.82780400  1
  O  O81  1  0.08765500  0.45760800  0.17219600  1
  O  O82  1  0.39077000  0.67125900  0.33410300  1
  O  O83  1  0.96338700  0.04903100  0.17751200  1
  O  O84  1  0.08765500  0.95760800  0.32780400  1
  O  O85  1  0.10923000  0.17125900  0.33410300  1
  O  O86  1  0.10923000  0.67125900  0.16589700  1
  O  O87  1  0.01640900  0.85515900  0.94477100  1
  O  O88  1  0.51640900  0.14484100  0.44477100  1
  O  O89  1  0.58765500  0.04239200  0.82780400  1
  O  O90  1  0.53661300  0.04903100  0.32248800  1
  O  O91  1  0.98359100  0.64484100  0.44477100  1
  O  O92  1  0.93717100  0.14585700  0.55791800  1
  O  O93  1  0.46338700  0.45096900  0.82248800  1
  O  O94  1  0.43717100  0.85414300  0.05791800  1
  O  O95  1  0.93717100  0.64585700  0.94208200  1
  O  O96  1  0.91234500  0.04239200  0.67219600  1
  O  O97  1  0.89507900  0.29519300  0.34653600  1
  O  O98  1  0.60492100  0.29519300  0.15346400  1
  O  O99  1  0.89077000  0.32874100  0.83410300  1
  O  O100  1  0.46338700  0.95096900  0.67751200  1
  O  O101  1  0.89077000  0.82874100  0.66589700  1
  O  O102  1  0.53661300  0.54903100  0.17751200  1
  O  O103  1  0.10492100  0.70480700  0.65346400  1
  O  O104  1  0.01640900  0.35515900  0.55522900  1
  O  O105  1  0.39507900  0.20480700  0.65346400  1
  O  O106  1  0.60492100  0.79519300  0.34653600  1
  O  O107  1  0.43717100  0.35414300  0.44208200  1
  O  O108  1  0.48359100  0.85515900  0.55522900  1
  O  O109  1  0.60923000  0.32874100  0.66589700  1
  O  O110  1  0.56282900  0.64585700  0.55791800  1
  O  O111  1  0.03661300  0.95096900  0.82248800  1
