# generated using pymatgen
data_Au2Se3O10
_symmetry_space_group_name_H-M   'P 1'
_cell_length_a   9.03055690
_cell_length_b   9.03055690
_cell_length_c   8.42045693
_cell_angle_alpha   90.00000000
_cell_angle_beta   90.00000000
_cell_angle_gamma   139.02506345
_symmetry_Int_Tables_number   1
_chemical_formula_structural   Au2Se3O10
_chemical_formula_sum   'Au4 Se6 O20'
_cell_volume   450.28657819
_cell_formula_units_Z   2
loop_
 _symmetry_equiv_pos_site_id
 _symmetry_equiv_pos_as_xyz
  1  'x, y, z'
loop_
 _atom_site_type_symbol
 _atom_site_label
 _atom_site_symmetry_multiplicity
 _atom_site_fract_x
 _atom_site_fract_y
 _atom_site_fract_z
 _atom_site_occupancy
  Au  Au0  1  0.36500353  0.68399050  0.18322250  1
  Au  Au1  1  0.63499647  0.31600950  0.68322250  1
  Au  Au2  1  0.31600950  0.63499647  0.68322250  1
  Au  Au3  1  0.68399050  0.36500353  0.18322250  1
  Se  Se4  1  0.35723026  0.35723026  0.03387054  1
  Se  Se5  1  0.12789846  0.80517562  0.80311970  1
  Se  Se6  1  0.19482438  0.87210154  0.30311970  1
  Se  Se7  1  0.64276974  0.64276974  0.53387054  1
  Se  Se8  1  0.80517562  0.12789846  0.80311970  1
  Se  Se9  1  0.87210154  0.19482438  0.30311970  1
  O  O10  1  0.00872481  0.31499097  0.66225106  1
  O  O11  1  0.71842378  0.23862189  0.85812461  1
  O  O12  1  0.95485342  0.61615665  0.64886102  1
  O  O13  1  0.26406690  0.26406690  0.21336162  1
  O  O14  1  0.39378646  0.55167052  0.50876659  1
  O  O15  1  0.61615665  0.95485342  0.64886102  1
  O  O16  1  0.80153789  0.80153789  0.38317887  1
  O  O17  1  0.31499097  0.00872481  0.66225106  1
  O  O18  1  0.55167052  0.39378646  0.50876659  1
  O  O19  1  0.23862189  0.71842378  0.85812461  1
  O  O20  1  0.68500903  0.99127519  0.16225106  1
  O  O21  1  0.76137811  0.28157622  0.35812461  1
  O  O22  1  0.04514658  0.38384335  0.14886102  1
  O  O23  1  0.38384335  0.04514658  0.14886102  1
  O  O24  1  0.73593310  0.73593310  0.71336162  1
  O  O25  1  0.19846211  0.19846211  0.88317887  1
  O  O26  1  0.28157622  0.76137811  0.35812461  1
  O  O27  1  0.60621354  0.44832948  0.00876659  1
  O  O28  1  0.99127519  0.68500903  0.16225106  1
  O  O29  1  0.44832948  0.60621354  0.00876659  1
