# generated using pymatgen
data_Cs4Tc6S13
_symmetry_space_group_name_H-M   'P 1'
_cell_length_a   9.99459637
_cell_length_b   9.99459637
_cell_length_c   13.74296833
_cell_angle_alpha   84.69306186
_cell_angle_beta   84.69306186
_cell_angle_gamma   119.36373781
_symmetry_Int_Tables_number   1
_chemical_formula_structural   Cs4Tc6S13
_chemical_formula_sum   'Cs8 Tc12 S26'
_cell_volume   1176.18496606
_cell_formula_units_Z   2
loop_
 _symmetry_equiv_pos_site_id
 _symmetry_equiv_pos_as_xyz
  1  'x, y, z'
loop_
 _atom_site_type_symbol
 _atom_site_label
 _atom_site_symmetry_multiplicity
 _atom_site_fract_x
 _atom_site_fract_y
 _atom_site_fract_z
 _atom_site_occupancy
  Cs  Cs0  1  0.34046890  0.09214541  0.08534143  1
  Cs  Cs1  1  0.09214541  0.34046890  0.58534143  1
  Cs  Cs2  1  0.90785459  0.65953110  0.41465857  1
  Cs  Cs3  1  0.27641951  0.31597845  0.28309282  1
  Cs  Cs4  1  0.68402155  0.72358049  0.21690718  1
  Cs  Cs5  1  0.65953110  0.90785459  0.91465857  1
  Cs  Cs6  1  0.31597845  0.27641951  0.78309282  1
  Cs  Cs7  1  0.72358049  0.68402155  0.71690718  1
  Tc  Tc8  1  0.31254371  0.99467750  0.52153904  1
  Tc  Tc9  1  0.99467750  0.31254371  0.02153904  1
  Tc  Tc10  1  0.15206218  0.56392497  0.89129272  1
  Tc  Tc11  1  0.14919385  0.58135415  0.07847479  1
  Tc  Tc12  1  0.84793782  0.43607503  0.10870728  1
  Tc  Tc13  1  0.85080615  0.41864585  0.92152521  1
  Tc  Tc14  1  0.68745629  0.00532250  0.47846096  1
  Tc  Tc15  1  0.43607503  0.84793782  0.60870728  1
  Tc  Tc16  1  0.00532250  0.68745629  0.97846096  1
  Tc  Tc17  1  0.58135415  0.14919385  0.57847479  1
  Tc  Tc18  1  0.41864585  0.85080615  0.42152521  1
  Tc  Tc19  1  0.56392497  0.15206218  0.39129272  1
  S  S20  1  0.27433314  0.46057920  0.99438170  1
  S  S21  1  0.00926756  0.65602251  0.80796043  1
  S  S22  1  0.35844698  0.64155302  0.75000000  1
  S  S23  1  0.72566686  0.53942080  0.00561830  1
  S  S24  1  0.00666009  0.69016072  0.15171383  1
  S  S25  1  0.64155302  0.35844698  0.25000000  1
  S  S26  1  0.65602251  0.00926756  0.30796043  1
  S  S27  1  0.80434937  0.28104634  0.45083839  1
  S  S28  1  0.19565063  0.71895366  0.54916161  1
  S  S29  1  0.28010672  0.64246783  0.32569374  1
  S  S30  1  0.97407030  0.04551371  0.06091912  1
  S  S31  1  0.53942080  0.72566686  0.50561830  1
  S  S32  1  0.99073244  0.34397749  0.19203957  1
  S  S33  1  0.02592970  0.95448629  0.93908088  1
  S  S34  1  0.99333991  0.30983928  0.84828617  1
  S  S35  1  0.64246783  0.28010672  0.82569374  1
  S  S36  1  0.69016072  0.00666009  0.65171383  1
  S  S37  1  0.95448629  0.02592970  0.43908088  1
  S  S38  1  0.34397749  0.99073244  0.69203957  1
  S  S39  1  0.71895366  0.19565063  0.04916161  1
  S  S40  1  0.46057920  0.27433314  0.49438170  1
  S  S41  1  0.04551371  0.97407030  0.56091912  1
  S  S42  1  0.28104634  0.80434937  0.95083839  1
  S  S43  1  0.71989328  0.35753217  0.67430626  1
  S  S44  1  0.30983928  0.99333991  0.34828617  1
  S  S45  1  0.35753217  0.71989328  0.17430626  1
