# generated using pymatgen
data_Bi2Se4Cl7
_symmetry_space_group_name_H-M   'P 1'
_cell_length_a   10.55046982
_cell_length_b   11.85023956
_cell_length_c   13.66168804
_cell_angle_alpha   104.39249188
_cell_angle_beta   85.65908026
_cell_angle_gamma   111.41774613
_symmetry_Int_Tables_number   1
_chemical_formula_structural   Bi2Se4Cl7
_chemical_formula_sum   'Bi8 Se16 Cl28'
_cell_volume   1539.98712675
_cell_formula_units_Z   4
loop_
 _symmetry_equiv_pos_site_id
 _symmetry_equiv_pos_as_xyz
  1  'x, y, z'
loop_
 _atom_site_type_symbol
 _atom_site_label
 _atom_site_symmetry_multiplicity
 _atom_site_fract_x
 _atom_site_fract_y
 _atom_site_fract_z
 _atom_site_occupancy
  Bi  Bi0  1  -0.00044320  0.16280976  0.30634343  1
  Bi  Bi1  1  0.78626465  0.96228172  0.99471538  1
  Bi  Bi2  1  0.21373535  0.03771828  0.00528462  1
  Bi  Bi3  1  0.00044320  0.83719024  0.69365657  1
  Bi  Bi4  1  0.32270215  0.05840111  0.50860884  1
  Bi  Bi5  1  0.63582792  0.15942063  0.81736604  1
  Bi  Bi6  1  0.36417208  0.84057937  0.18263396  1
  Bi  Bi7  1  0.67729785  0.94159889  0.49139116  1
  Se  Se8  1  0.25536639  0.54771685  0.57386255  1
  Se  Se9  1  0.12334611  0.39616980  0.91127053  1
  Se  Se10  1  0.74463361  0.45228315  0.42613745  1
  Se  Se11  1  0.60177075  0.30652935  0.29311914  1
  Se  Se12  1  0.14575519  0.38638938  0.65385617  1
  Se  Se13  1  0.93802210  0.51265791  0.20142693  1
  Se  Se14  1  0.06197790  0.48734209  0.79857307  1
  Se  Se15  1  0.40456688  0.41828159  0.76347981  1
  Se  Se16  1  0.87665389  0.60383020  0.08872947  1
  Se  Se17  1  0.39822925  0.69347065  0.70688086  1
  Se  Se18  1  0.59543312  0.58171841  0.23652019  1
  Se  Se19  1  0.85424481  0.61361062  0.34614383  1
  Se  Se20  1  0.64859294  0.47091370  0.08299055  1
  Se  Se21  1  0.35140706  0.52908630  0.91700945  1
  Se  Se22  1  0.45978698  0.42082560  0.31163543  1
  Se  Se23  1  0.54021302  0.57917440  0.68836457  1
  Cl  Cl24  1  0.79163109  0.23014164  0.97328625  1
  Cl  Cl25  1  0.53444157  0.01135092  0.36993159  1
  Cl  Cl26  1  0.57301692  0.92424088  0.87270588  1
  Cl  Cl27  1  0.76696589  0.79155601  0.57195896  1
  Cl  Cl28  1  0.70247587  0.39241017  0.82153128  1
  Cl  Cl29  1  0.17229919  0.87896678  0.29794424  1
  Cl  Cl30  1  0.97093102  0.92912388  0.10623845  1
  Cl  Cl31  1  0.17500674  0.10161453  0.66360124  1
  Cl  Cl32  1  0.60556118  0.79752635  0.08201923  1
  Cl  Cl33  1  0.02906898  0.07087612  0.89376155  1
  Cl  Cl34  1  0.79894363  0.14795995  0.19774764  1
  Cl  Cl35  1  0.81086159  0.76932340  0.86872262  1
  Cl  Cl36  1  0.23303411  0.20844399  0.42804104  1
  Cl  Cl37  1  0.18913841  0.23067660  0.13127738  1
  Cl  Cl38  1  0.29752413  0.60758983  0.17846872  1
  Cl  Cl39  1  0.86698113  0.19819983  0.47112182  1
  Cl  Cl40  1  0.08887162  0.39947980  0.34175854  1
  Cl  Cl41  1  0.42698308  0.07575912  0.12729412  1
  Cl  Cl42  1  0.39443882  0.20247365  0.91798077  1
  Cl  Cl43  1  0.20836891  0.76985836  0.02671375  1
  Cl  Cl44  1  0.82770081  0.12103322  0.70205576  1
  Cl  Cl45  1  0.51563380  0.26889141  0.57159837  1
  Cl  Cl46  1  0.13301887  0.80180017  0.52887818  1
  Cl  Cl47  1  0.91112838  0.60052020  0.65824146  1
  Cl  Cl48  1  0.20105637  0.85204005  0.80225236  1
  Cl  Cl49  1  0.46555843  0.98864908  0.63006841  1
  Cl  Cl50  1  0.82499326  0.89838547  0.33639876  1
  Cl  Cl51  1  0.48436620  0.73110859  0.42840163  1
