# generated using pymatgen
data_V2Cd4(TeO5)3
_symmetry_space_group_name_H-M   'P 1'
_cell_length_a   5.40600787
_cell_length_b   16.25413649
_cell_length_c   16.11114196
_cell_angle_alpha   90.00000000
_cell_angle_beta   90.00000000
_cell_angle_gamma   90.00000000
_symmetry_Int_Tables_number   1
_chemical_formula_structural   V2Cd4(TeO5)3
_chemical_formula_sum   'V8 Cd16 Te12 O60'
_cell_volume   1415.68587945
_cell_formula_units_Z   4
loop_
 _symmetry_equiv_pos_site_id
 _symmetry_equiv_pos_as_xyz
  1  'x, y, z'
loop_
 _atom_site_type_symbol
 _atom_site_label
 _atom_site_symmetry_multiplicity
 _atom_site_fract_x
 _atom_site_fract_y
 _atom_site_fract_z
 _atom_site_occupancy
  V  V0  1  0.21557326  0.91690463  0.42836015  1
  V  V1  1  0.68900233  0.75042117  0.06331032  1
  V  V2  1  0.81099767  0.24957883  0.56331032  1
  V  V3  1  0.18900233  0.74957883  0.93668968  1
  V  V4  1  0.31099767  0.25042117  0.43668968  1
  V  V5  1  0.71557326  0.58309537  0.57163985  1
  V  V6  1  0.78442674  0.41690463  0.07163985  1
  V  V7  1  0.28442674  0.08309537  0.92836015  1
  Cd  Cd8  1  0.75266352  0.41297708  0.76194904  1
  Cd  Cd9  1  0.73995670  0.91281585  0.58602440  1
  Cd  Cd10  1  0.83085389  0.08576987  0.73184830  1
  Cd  Cd11  1  0.66914611  0.91423013  0.23184830  1
  Cd  Cd12  1  0.67973503  0.74609508  0.73646208  1
  Cd  Cd13  1  0.33085389  0.41423013  0.26815170  1
  Cd  Cd14  1  0.32026497  0.24609508  0.76353792  1
  Cd  Cd15  1  0.26004330  0.41281585  0.91397560  1
  Cd  Cd16  1  0.82026497  0.25390492  0.23646208  1
  Cd  Cd17  1  0.25266352  0.08702292  0.23805096  1
  Cd  Cd18  1  0.23995670  0.58718415  0.41397560  1
  Cd  Cd19  1  0.74733648  0.58702292  0.26194904  1
  Cd  Cd20  1  0.16914611  0.58576987  0.76815170  1
  Cd  Cd21  1  0.24733648  0.91297708  0.73805096  1
  Cd  Cd22  1  0.76004330  0.08718415  0.08602440  1
  Cd  Cd23  1  0.17973503  0.75390492  0.26353792  1
  Te  Te24  1  0.27079940  0.42556166  0.61558781  1
  Te  Te25  1  0.19839467  0.92801134  0.10303202  1
  Te  Te26  1  0.80227158  0.25083982  0.89084840  1
  Te  Te27  1  0.80160533  0.42801134  0.39696798  1
  Te  Te28  1  0.77079940  0.07443834  0.38441219  1
  Te  Te29  1  0.69839467  0.57198866  0.89696798  1
  Te  Te30  1  0.30227158  0.24916018  0.10915160  1
  Te  Te31  1  0.22920060  0.57443834  0.11558781  1
  Te  Te32  1  0.69772842  0.74916018  0.39084840  1
  Te  Te33  1  0.72920060  0.92556166  0.88441219  1
  Te  Te34  1  0.30160533  0.07198866  0.60303202  1
  Te  Te35  1  0.19772842  0.75083982  0.60915160  1
  O  O36  1  0.30965669  0.85457632  0.18438619  1
  O  O37  1  0.53972534  0.50512815  0.62868612  1
  O  O38  1  0.43643240  0.17754879  0.37692383  1
  O  O39  1  0.43899418  0.52281557  0.19076823  1
  O  O40  1  0.85237876  0.65467093  0.63304889  1
  O  O41  1  0.54272811  0.32628632  0.86814337  1
  O  O42  1  0.51522936  0.18077180  0.17362740  1
  O  O43  1  0.93780169  0.14419232  0.31207310  1
  O  O44  1  0.64762124  0.34532907  0.13304889  1
  O  O45  1  0.93643240  0.32245121  0.62307617  1
  O  O46  1  0.04272811  0.17371368  0.13185663  1
  O  O47  1  0.43780169  0.35580768  0.68792690  1
  O  O48  1  0.48477064  0.68077180  0.32637260  1
  O  O49  1  0.80284706  0.82835429  0.11756619  1
  O  O50  1  0.48422164  0.50854661  0.82919144  1
  O  O51  1  0.01522936  0.31922820  0.82637260  1
  O  O52  1  0.35237876  0.84532907  0.36695111  1
  O  O53  1  0.94695433  0.71108766  0.00329938  1
  O  O54  1  0.53527630  0.49820509  0.37173119  1
  O  O55  1  0.69034331  0.35457632  0.31561381  1
  O  O56  1  0.99264188  0.36716109  0.01071323  1
  O  O57  1  0.93899418  0.97718443  0.80923177  1
  O  O58  1  0.44695433  0.78891234  0.99670062  1
  O  O59  1  0.95727189  0.67371368  0.36814337  1
  O  O60  1  0.06100582  0.47718443  0.69076823  1
  O  O61  1  0.50735812  0.63283891  0.51071323  1
  O  O62  1  0.06009510  0.04051862  0.98967885  1
  O  O63  1  0.46472370  0.99820509  0.12826881  1
  O  O64  1  0.00735812  0.86716109  0.48928677  1
  O  O65  1  0.80965669  0.64542368  0.81561381  1
  O  O66  1  0.32345072  0.68569860  0.69538045  1
  O  O67  1  0.93990490  0.54051862  0.51032115  1
  O  O68  1  0.14762124  0.15467093  0.86695111  1
  O  O69  1  0.43990490  0.95948138  0.48967885  1
  O  O70  1  0.03527630  0.00179491  0.62826881  1
  O  O71  1  0.46027466  0.00512815  0.87131388  1
  O  O72  1  0.19715294  0.32835429  0.38243381  1
  O  O73  1  0.03972534  0.99487185  0.37131388  1
  O  O74  1  0.67654928  0.18569860  0.80461955  1
  O  O75  1  0.06219831  0.64419232  0.18792690  1
  O  O76  1  0.55304567  0.28891234  0.50329938  1
  O  O77  1  0.96472370  0.50179491  0.87173119  1
  O  O78  1  0.96027466  0.49487185  0.12868612  1
  O  O79  1  0.82345072  0.81430140  0.30461955  1
  O  O80  1  0.05304567  0.21108766  0.49670062  1
  O  O81  1  0.56356760  0.67754879  0.12307617  1
  O  O82  1  0.98422164  0.99145339  0.17080856  1
  O  O83  1  0.56100582  0.02281557  0.30923177  1
  O  O84  1  0.01577836  0.49145339  0.32919144  1
  O  O85  1  0.49264188  0.13283891  0.98928677  1
  O  O86  1  0.98477064  0.81922820  0.67362740  1
  O  O87  1  0.17654928  0.31430140  0.19538045  1
  O  O88  1  0.69715294  0.17164571  0.61756619  1
  O  O89  1  0.06356760  0.82245121  0.87692383  1
  O  O90  1  0.19034331  0.14542368  0.68438619  1
  O  O91  1  0.51577836  0.00854661  0.67080856  1
  O  O92  1  0.56009510  0.45948138  0.01032115  1
  O  O93  1  0.45727189  0.82628632  0.63185663  1
  O  O94  1  0.56219831  0.85580768  0.81207310  1
  O  O95  1  0.30284706  0.67164571  0.88243381  1
