# generated using pymatgen
data_Tc2O5F4
_symmetry_space_group_name_H-M   'P 1'
_cell_length_a   14.75809495
_cell_length_b   5.28576200
_cell_length_c   8.11900155
_cell_angle_alpha   89.48524372
_cell_angle_beta   90.00000000
_cell_angle_gamma   90.00000000
_symmetry_Int_Tables_number   1
_chemical_formula_structural   Tc2O5F4
_chemical_formula_sum   'Tc8 O20 F16'
_cell_volume   633.31970514
_cell_formula_units_Z   4
loop_
 _symmetry_equiv_pos_site_id
 _symmetry_equiv_pos_as_xyz
  1  'x, y, z'
loop_
 _atom_site_type_symbol
 _atom_site_label
 _atom_site_symmetry_multiplicity
 _atom_site_fract_x
 _atom_site_fract_y
 _atom_site_fract_z
 _atom_site_occupancy
  Tc  Tc0  1  0.12479219  0.32236349  0.62637282  1
  Tc  Tc1  1  0.37520781  0.82236349  0.62637282  1
  Tc  Tc2  1  0.62479219  0.17763651  0.37362718  1
  Tc  Tc3  1  0.35656166  0.48367834  0.12619479  1
  Tc  Tc4  1  0.85656166  0.01632166  0.87380521  1
  Tc  Tc5  1  0.87520781  0.67763651  0.37362718  1
  Tc  Tc6  1  0.64343834  0.51632166  0.87380521  1
  Tc  Tc7  1  0.14343834  0.98367834  0.12619479  1
  O  O8  1  0.09348490  0.70637393  0.11716722  1
  O  O9  1  0.55805696  0.31746468  0.89099871  1
  O  O10  1  0.59348490  0.79362607  0.88283278  1
  O  O11  1  0.94479131  0.92569070  0.35587544  1
  O  O12  1  0.39263183  0.00517087  0.78988115  1
  O  O13  1  0.09678562  0.48506218  0.45625550  1
  O  O14  1  0.94194304  0.81746468  0.89099871  1
  O  O15  1  0.89263183  0.49482913  0.21011885  1
  O  O16  1  0.90651510  0.29362607  0.88283278  1
  O  O17  1  0.55520869  0.42569070  0.35587544  1
  O  O18  1  0.44479131  0.57430930  0.64412456  1
  O  O19  1  0.10736817  0.50517087  0.78988115  1
  O  O20  1  0.05520869  0.07430930  0.64412456  1
  O  O21  1  0.59678562  0.01493782  0.54374450  1
  O  O22  1  0.60736817  0.99482913  0.21011885  1
  O  O23  1  0.40321438  0.98506218  0.45625550  1
  O  O24  1  0.44194304  0.68253532  0.10900129  1
  O  O25  1  0.05805696  0.18253532  0.10900129  1
  O  O26  1  0.90321438  0.51493782  0.54374450  1
  O  O27  1  0.40651510  0.20637393  0.11716722  1
  F  F28  1  0.31619451  0.50756354  0.91083673  1
  F  F29  1  0.75590803  0.78110967  0.38356875  1
  F  F30  1  0.81619451  0.99243646  0.08916327  1
  F  F31  1  0.16009414  0.99571621  0.35126158  1
  F  F32  1  0.83990586  0.00428379  0.64873842  1
  F  F33  1  0.73146551  0.20305019  0.85411655  1
  F  F34  1  0.66009414  0.50428379  0.64873842  1
  F  F35  1  0.24409197  0.21889033  0.61643125  1
  F  F36  1  0.25590803  0.71889033  0.61643125  1
  F  F37  1  0.26853449  0.79694981  0.14588345  1
  F  F38  1  0.33990586  0.49571621  0.35126158  1
  F  F39  1  0.76853449  0.70305019  0.85411655  1
  F  F40  1  0.23146551  0.29694981  0.14588345  1
  F  F41  1  0.18380549  0.00756354  0.91083673  1
  F  F42  1  0.74409197  0.28110967  0.38356875  1
  F  F43  1  0.68380549  0.49243646  0.08916327  1
