# generated using pymatgen
data_Sm(IO3)3
_symmetry_space_group_name_H-M   'P 1'
_cell_length_a   8.53206140
_cell_length_b   7.19128492
_cell_length_c   13.44768089
_cell_angle_alpha   80.05541690
_cell_angle_beta   90.00000000
_cell_angle_gamma   90.00000000
_symmetry_Int_Tables_number   1
_chemical_formula_structural   Sm(IO3)3
_chemical_formula_sum   'Sm4 I12 O36'
_cell_volume   812.70546296
_cell_formula_units_Z   4
loop_
 _symmetry_equiv_pos_site_id
 _symmetry_equiv_pos_as_xyz
  1  'x, y, z'
loop_
 _atom_site_type_symbol
 _atom_site_label
 _atom_site_symmetry_multiplicity
 _atom_site_fract_x
 _atom_site_fract_y
 _atom_site_fract_z
 _atom_site_occupancy
  Sm  Sm0  1  0.74311402  0.82438094  0.14424910  1
  Sm  Sm1  1  0.75688598  0.82438094  0.64424910  1
  Sm  Sm2  1  0.24311402  0.17561906  0.35575090  1
  Sm  Sm3  1  0.25688598  0.17561906  0.85575090  1
  I  I4  1  0.29106248  0.82682478  0.61319019  1
  I  I5  1  0.04235361  0.67175551  0.85950393  1
  I  I6  1  0.70893752  0.17317522  0.38680981  1
  I  I7  1  0.20893752  0.82682478  0.11319019  1
  I  I8  1  0.01948188  0.26918102  0.60987860  1
  I  I9  1  0.51948188  0.73081898  0.89012140  1
  I  I10  1  0.98051812  0.73081898  0.39012140  1
  I  I11  1  0.45764639  0.67175551  0.35950393  1
  I  I12  1  0.95764639  0.32824449  0.14049607  1
  I  I13  1  0.79106248  0.17317522  0.88680981  1
  I  I14  1  0.48051812  0.26918102  0.10987860  1
  I  I15  1  0.54235361  0.32824449  0.64049607  1
  O  O16  1  0.17349815  0.47550983  0.86791565  1
  O  O17  1  0.20839209  0.23874664  0.67339831  1
  O  O18  1  0.30995660  0.85370553  0.32536461  1
  O  O19  1  0.52903060  0.16349833  0.31626722  1
  O  O20  1  0.97096940  0.16349833  0.81626722  1
  O  O21  1  0.52811389  0.65859963  0.23376566  1
  O  O22  1  0.79160791  0.76125336  0.32660169  1
  O  O23  1  0.42624284  0.31990619  0.97847732  1
  O  O24  1  0.19004340  0.85370553  0.82536461  1
  O  O25  1  0.70839209  0.76125336  0.82660169  1
  O  O26  1  0.80995660  0.14629447  0.17463539  1
  O  O27  1  0.97827227  0.02156342  0.61476285  1
  O  O28  1  0.67349815  0.52449017  0.63208435  1
  O  O29  1  0.32650185  0.47550983  0.36791565  1
  O  O30  1  0.47096940  0.83650167  0.68373278  1
  O  O31  1  0.29160791  0.23874664  0.17339831  1
  O  O32  1  0.02172773  0.97843658  0.38523715  1
  O  O33  1  0.16395279  0.63638199  0.04619919  1
  O  O34  1  0.97188611  0.65859963  0.73376566  1
  O  O35  1  0.47827227  0.97843658  0.88523715  1
  O  O36  1  0.32873786  0.02667035  0.51524277  1
  O  O37  1  0.02811389  0.34140037  0.26623434  1
  O  O38  1  0.47188611  0.34140037  0.76623434  1
  O  O39  1  0.57375716  0.68009381  0.02152268  1
  O  O40  1  0.82873786  0.97332965  0.98475723  1
  O  O41  1  0.83604721  0.36361801  0.95380081  1
  O  O42  1  0.52172773  0.02156342  0.11476285  1
  O  O43  1  0.92624284  0.68009381  0.52152268  1
  O  O44  1  0.69004340  0.14629447  0.67463539  1
  O  O45  1  0.33604721  0.63638199  0.54619919  1
  O  O46  1  0.66395279  0.36361801  0.45380081  1
  O  O47  1  0.07375716  0.31990619  0.47847732  1
  O  O48  1  0.67126214  0.97332965  0.48475723  1
  O  O49  1  0.82650185  0.52449017  0.13208435  1
  O  O50  1  0.17126214  0.02667035  0.01524277  1
  O  O51  1  0.02903060  0.83650167  0.18373278  1
