# generated using pymatgen
data_Pb2CO4
_symmetry_space_group_name_H-M   'P 1'
_cell_length_a   5.15487354
_cell_length_b   9.23428997
_cell_length_c   9.29770003
_cell_angle_alpha   90.00000000
_cell_angle_beta   90.00000000
_cell_angle_gamma   90.00000000
_symmetry_Int_Tables_number   1
_chemical_formula_structural   Pb2CO4
_chemical_formula_sum   'Pb8 C4 O16'
_cell_volume   442.58537011
_cell_formula_units_Z   4
loop_
 _symmetry_equiv_pos_site_id
 _symmetry_equiv_pos_as_xyz
  1  'x, y, z'
loop_
 _atom_site_type_symbol
 _atom_site_label
 _atom_site_symmetry_multiplicity
 _atom_site_fract_x
 _atom_site_fract_y
 _atom_site_fract_z
 _atom_site_occupancy
  Pb  Pb0  1  0.01200046  0.54996270  0.58474799  1
  Pb  Pb1  1  0.51200046  0.95003730  0.41525201  1
  Pb  Pb2  1  0.98799954  0.04996270  0.91525201  1
  Pb  Pb3  1  0.48799954  0.45003730  0.08474799  1
  Pb  Pb4  1  0.95844123  0.24388462  0.34564599  1
  Pb  Pb5  1  0.45844123  0.25611538  0.65435401  1
  Pb  Pb6  1  0.04155877  0.74388462  0.15435401  1
  Pb  Pb7  1  0.54155877  0.75611538  0.84564599  1
  C  C8  1  0.99085682  0.49614125  0.90250404  1
  C  C9  1  0.49085682  0.00385875  0.09749596  1
  C  C10  1  0.00914318  0.99614125  0.59749596  1
  C  C11  1  0.50914318  0.50385875  0.40250404  1
  O  O12  1  0.20862226  0.49177635  0.83609324  1
  O  O13  1  0.70862226  0.00822365  0.16390676  1
  O  O14  1  0.79137774  0.99177635  0.66390676  1
  O  O15  1  0.29137774  0.50822365  0.33609324  1
  O  O16  1  0.72448978  0.49296889  0.33231349  1
  O  O17  1  0.22448978  0.00703111  0.66768651  1
  O  O18  1  0.27551022  0.99296889  0.16768651  1
  O  O19  1  0.77551022  0.50703111  0.83231349  1
  O  O20  1  0.01571768  0.98879646  0.45741155  1
  O  O21  1  0.51571768  0.51120354  0.54258845  1
  O  O22  1  0.98428232  0.48879646  0.04258845  1
  O  O23  1  0.48428232  0.01120354  0.95741155  1
  O  O24  1  0.04321011  0.31489442  0.57138418  1
  O  O25  1  0.54321011  0.18510558  0.42861582  1
  O  O26  1  0.95678989  0.81489442  0.92861582  1
  O  O27  1  0.45678989  0.68510558  0.07138418  1
