# generated using pymatgen
data_La2CrO6
_symmetry_space_group_name_H-M   'P 1'
_cell_length_a   4.40655743
_cell_length_b   7.53154793
_cell_length_c   8.43686388
_cell_angle_alpha   106.54052134
_cell_angle_beta   90.00000000
_cell_angle_gamma   107.01008090
_symmetry_Int_Tables_number   1
_chemical_formula_structural   La2CrO6
_chemical_formula_sum   'La4 Cr2 O12'
_cell_volume   255.61342901
_cell_formula_units_Z   2
loop_
 _symmetry_equiv_pos_site_id
 _symmetry_equiv_pos_as_xyz
  1  'x, y, z'
loop_
 _atom_site_type_symbol
 _atom_site_label
 _atom_site_symmetry_multiplicity
 _atom_site_fract_x
 _atom_site_fract_y
 _atom_site_fract_z
 _atom_site_occupancy
  La  La0  1  0.67802914  0.33964384  0.08480493  1
  La  La1  1  0.33838630  0.66035616  0.41519507  1
  La  La2  1  0.66161370  0.33964384  0.58480493  1
  La  La3  1  0.32197086  0.66035616  0.91519507  1
  Cr  Cr4  1  0.95860192  -0.00000000  0.25000000  1
  Cr  Cr5  1  0.04139808  -0.00000000  0.75000000  1
  O  O6  1  0.73487549  0.51308038  0.87810839  1
  O  O7  1  0.26471890  0.00249997  0.90824177  1
  O  O8  1  0.26666265  0.19704682  0.29809030  1
  O  O9  1  0.73333735  0.80295318  0.70190970  1
  O  O10  1  0.22179511  0.48691962  0.62189161  1
  O  O11  1  0.26221792  0.99750003  0.59175823  1
  O  O12  1  0.77820489  0.51308038  0.37810839  1
  O  O13  1  0.73528110  0.99750003  0.09175823  1
  O  O14  1  0.26512451  0.48691962  0.12189161  1
  O  O15  1  0.73778208  0.00249997  0.40824177  1
  O  O16  1  0.93038516  0.19704682  0.79809030  1
  O  O17  1  0.06961484  0.80295318  0.20190970  1
