# generated using pymatgen
data_Nd3Si2ClO8
_symmetry_space_group_name_H-M   'P 1'
_cell_length_a   6.31985148
_cell_length_b   7.10087168
_cell_length_c   18.15663736
_cell_angle_alpha   90.00000000
_cell_angle_beta   90.00000000
_cell_angle_gamma   90.00000000
_symmetry_Int_Tables_number   1
_chemical_formula_structural   Nd3Si2ClO8
_chemical_formula_sum   'Nd12 Si8 Cl4 O32'
_cell_volume   814.80550847
_cell_formula_units_Z   4
loop_
 _symmetry_equiv_pos_site_id
 _symmetry_equiv_pos_as_xyz
  1  'x, y, z'
loop_
 _atom_site_type_symbol
 _atom_site_label
 _atom_site_symmetry_multiplicity
 _atom_site_fract_x
 _atom_site_fract_y
 _atom_site_fract_z
 _atom_site_occupancy
  Nd  Nd0  1  0.87355494  0.97508128  0.59098052  1
  Nd  Nd1  1  0.62644506  0.47508128  0.59098052  1
  Nd  Nd2  1  0.12644506  0.02491872  0.09098052  1
  Nd  Nd3  1  0.12644506  0.02491872  0.40901948  1
  Nd  Nd4  1  0.38203778  0.19277588  0.75000000  1
  Nd  Nd5  1  0.88203778  0.30722412  0.25000000  1
  Nd  Nd6  1  0.37355494  0.52491872  0.09098052  1
  Nd  Nd7  1  0.37355494  0.52491872  0.40901948  1
  Nd  Nd8  1  0.61796222  0.80722412  0.25000000  1
  Nd  Nd9  1  0.11796222  0.69277588  0.75000000  1
  Nd  Nd10  1  0.62644506  0.47508128  0.90901948  1
  Nd  Nd11  1  0.87355494  0.97508128  0.90901948  1
  Si  Si12  1  0.12165890  0.46624131  0.59982608  1
  Si  Si13  1  0.37834110  0.96624131  0.90017392  1
  Si  Si14  1  0.87834110  0.53375869  0.09982608  1
  Si  Si15  1  0.62165890  0.03375869  0.40017392  1
  Si  Si16  1  0.37834110  0.96624131  0.59982608  1
  Si  Si17  1  0.62165890  0.03375869  0.09982608  1
  Si  Si18  1  0.87834110  0.53375869  0.40017392  1
  Si  Si19  1  0.12165890  0.46624131  0.90017392  1
  Cl  Cl20  1  0.75856259  0.94234767  0.75000000  1
  Cl  Cl21  1  0.24143741  0.05765233  0.25000000  1
  Cl  Cl22  1  0.25856259  0.55765233  0.25000000  1
  Cl  Cl23  1  0.74143741  0.44234767  0.75000000  1
  O  O24  1  0.04636341  0.70438106  0.09533560  1
  O  O25  1  0.97266532  0.65076776  0.61836619  1
  O  O26  1  0.21753178  0.98103626  0.53101502  1
  O  O27  1  0.95363659  0.29561894  0.59533560  1
  O  O28  1  0.27594033  0.45384653  0.82627874  1
  O  O29  1  0.27594033  0.45384653  0.67372126  1
  O  O30  1  0.22405967  0.95384653  0.82627874  1
  O  O31  1  0.72405967  0.54615347  0.17372126  1
  O  O32  1  0.52733468  0.15076776  0.61836619  1
  O  O33  1  0.54636341  0.79561894  0.59533560  1
  O  O34  1  0.71753178  0.51896374  0.46898498  1
  O  O35  1  0.45363659  0.20438106  0.40466440  1
  O  O36  1  0.28246822  0.48103626  0.53101502  1
  O  O37  1  0.28246822  0.48103626  0.96898498  1
  O  O38  1  0.54636341  0.79561894  0.90466440  1
  O  O39  1  0.52733468  0.15076776  0.88163381  1
  O  O40  1  0.47266532  0.84923224  0.38163381  1
  O  O41  1  0.97266532  0.65076776  0.88163381  1
  O  O42  1  0.22405967  0.95384653  0.67372126  1
  O  O43  1  0.77594033  0.04615347  0.17372126  1
  O  O44  1  0.77594033  0.04615347  0.32627874  1
  O  O45  1  0.02733468  0.34923224  0.38163381  1
  O  O46  1  0.71753178  0.51896374  0.03101502  1
  O  O47  1  0.47266532  0.84923224  0.11836619  1
  O  O48  1  0.78246822  0.01896374  0.03101502  1
  O  O49  1  0.95363659  0.29561894  0.90466440  1
  O  O50  1  0.21753178  0.98103626  0.96898498  1
  O  O51  1  0.04636341  0.70438106  0.40466440  1
  O  O52  1  0.78246822  0.01896374  0.46898498  1
  O  O53  1  0.72405967  0.54615347  0.32627874  1
  O  O54  1  0.45363659  0.20438106  0.09533560  1
  O  O55  1  0.02733468  0.34923224  0.11836619  1
