# generated using pymatgen
data_ZrBrN
_symmetry_space_group_name_H-M   'P 1'
_cell_length_a   10.36772477
_cell_length_b   10.36772477
_cell_length_c   10.36772519
_cell_angle_alpha   20.30000415
_cell_angle_beta   20.30000415
_cell_angle_gamma   20.30001027
_symmetry_Int_Tables_number   1
_chemical_formula_structural   ZrBrN
_chemical_formula_sum   'Zr2 Br2 N2'
_cell_volume   117.38086358
_cell_formula_units_Z   2
loop_
 _symmetry_equiv_pos_site_id
 _symmetry_equiv_pos_as_xyz
  1  'x, y, z'
loop_
 _atom_site_type_symbol
 _atom_site_label
 _atom_site_symmetry_multiplicity
 _atom_site_fract_x
 _atom_site_fract_y
 _atom_site_fract_z
 _atom_site_occupancy
  Zr  Zr0  1  0.87597057  0.87597057  0.87597057  1
  Zr  Zr1  1  0.12402943  0.12402943  0.12402943  1
  Br  Br2  1  0.60762986  0.60762986  0.60762986  1
  Br  Br3  1  0.39237014  0.39237014  0.39237014  1
  N  N4  1  0.80494645  0.80494645  0.80494645  1
  N  N5  1  0.19505355  0.19505355  0.19505355  1
