# generated using pymatgen
data_Cs3Cr2I9
_symmetry_space_group_name_H-M   'P 1'
_cell_length_a   10.74263722
_cell_length_b   10.74364608
_cell_length_c   10.74289192
_cell_angle_alpha   81.24073131
_cell_angle_beta   81.24385805
_cell_angle_gamma   81.23945610
_symmetry_Int_Tables_number   1
_chemical_formula_structural   Cs3Cr2I9
_chemical_formula_sum   'Cs6 Cr4 I18'
_cell_volume   1200.52052778
_cell_formula_units_Z   2
loop_
 _symmetry_equiv_pos_site_id
 _symmetry_equiv_pos_as_xyz
  1  'x, y, z'
loop_
 _atom_site_type_symbol
 _atom_site_label
 _atom_site_symmetry_multiplicity
 _atom_site_fract_x
 _atom_site_fract_y
 _atom_site_fract_z
 _atom_site_occupancy
  Cs  Cs0  1  0.58928451  0.91072152  0.24999190  1
  Cs  Cs1  1  0.91065743  0.24996028  0.58931595  1
  Cs  Cs2  1  0.25000351  0.58927637  0.91070120  1
  Cs  Cs3  1  0.41065419  0.08931109  0.74993372  1
  Cs  Cs4  1  0.08927309  0.75000990  0.41069183  1
  Cs  Cs5  1  0.74997562  0.41071284  0.08926432  1
  Cr  Cr6  1  0.83451537  0.83445651  0.83448133  1
  Cr  Cr7  1  0.66552841  0.66550845  0.66535891  1
  Cr  Cr8  1  0.16550986  0.16549942  0.16554112  1
  Cr  Cr9  1  0.33449069  0.33459450  0.33465076  1
  I  I10  1  0.09554384  0.40454988  0.25004174  1
  I  I11  1  0.40451355  0.25002043  0.09558090  1
  I  I12  1  0.25001750  0.09556512  0.40458914  1
  I  I13  1  0.90459974  0.59551492  0.75005395  1
  I  I14  1  0.59544220  0.75000899  0.90438047  1
  I  I15  1  0.74998672  0.90451711  0.59545112  1
  I  I16  1  0.26158452  0.93527098  0.09495979  1
  I  I17  1  0.93525272  0.09504804  0.26170900  1
  I  I18  1  0.09496147  0.26160805  0.93527984  1
  I  I19  1  0.56473672  0.23827101  0.40496116  1
  I  I20  1  0.23844239  0.40509723  0.56481889  1
  I  I21  1  0.40509948  0.56467519  0.23854084  1
  I  I22  1  0.73827706  0.06472336  0.90492800  1
  I  I23  1  0.06477762  0.90497279  0.73831067  1
  I  I24  1  0.90496065  0.73832619  0.06477778  1
  I  I25  1  0.43528934  0.76154644  0.59487361  1
  I  I26  1  0.76165866  0.59493781  0.43520141  1
  I  I27  1  0.59496312  0.43529560  0.76161066  1
