# generated using pymatgen
data_CsNb(PO4)2
_symmetry_space_group_name_H-M   'P 1'
_cell_length_a   4.93087251
_cell_length_b   8.88652857
_cell_length_c   18.43987213
_cell_angle_alpha   90.00000000
_cell_angle_beta   95.50648202
_cell_angle_gamma   90.00000000
_symmetry_Int_Tables_number   1
_chemical_formula_structural   CsNb(PO4)2
_chemical_formula_sum   'Cs4 Nb4 P8 O32'
_cell_volume   804.27591689
_cell_formula_units_Z   4
loop_
 _symmetry_equiv_pos_site_id
 _symmetry_equiv_pos_as_xyz
  1  'x, y, z'
loop_
 _atom_site_type_symbol
 _atom_site_label
 _atom_site_symmetry_multiplicity
 _atom_site_fract_x
 _atom_site_fract_y
 _atom_site_fract_z
 _atom_site_occupancy
  Cs  Cs0  1  0.21949270  0.28874068  0.06031287  1
  Cs  Cs1  1  0.28050730  0.78874068  0.43968713  1
  Cs  Cs2  1  0.78050730  0.71125932  0.93968713  1
  Cs  Cs3  1  0.71949270  0.21125932  0.56031287  1
  Nb  Nb4  1  0.82979889  0.94395830  0.16657580  1
  Nb  Nb5  1  0.67020111  0.44395830  0.33342420  1
  Nb  Nb6  1  0.17020111  0.05604170  0.83342420  1
  Nb  Nb7  1  0.32979889  0.55604170  0.66657580  1
  P  P8  1  0.30031057  0.71378233  0.10599971  1
  P  P9  1  0.19968943  0.21378233  0.39400029  1
  P  P10  1  0.69968943  0.28621767  0.89400029  1
  P  P11  1  0.80031057  0.78621767  0.60599971  1
  P  P12  1  0.11355120  0.62000077  0.24223984  1
  P  P13  1  0.38644880  0.12000077  0.25776016  1
  P  P14  1  0.88644880  0.37999923  0.75776016  1
  P  P15  1  0.61355120  0.87999923  0.74223984  1
  O  O16  1  0.68829465  0.06980995  0.10018640  1
  O  O17  1  0.81170535  0.56980995  0.39981360  1
  O  O18  1  0.31170535  0.93019005  0.89981360  1
  O  O19  1  0.18829465  0.43019005  0.60018640  1
  O  O20  1  0.56930019  0.77078126  0.14437635  1
  O  O21  1  0.93069981  0.27078126  0.35562365  1
  O  O22  1  0.43069981  0.22921874  0.85562365  1
  O  O23  1  0.06930019  0.72921874  0.64437635  1
  O  O24  1  0.08970762  0.84158488  0.10203654  1
  O  O25  1  0.41029238  0.34158488  0.39796346  1
  O  O26  1  0.91029238  0.15841512  0.89796346  1
  O  O27  1  0.58970762  0.65841512  0.60203654  1
  O  O28  1  0.31944710  0.63521326  0.03652132  1
  O  O29  1  0.18055290  0.13521326  0.46347868  1
  O  O30  1  0.68055290  0.36478674  0.96347868  1
  O  O31  1  0.81944710  0.86478674  0.53652132  1
  O  O32  1  0.19455291  0.59120841  0.16178713  1
  O  O33  1  0.30544709  0.09120841  0.33821287  1
  O  O34  1  0.80544709  0.40879159  0.83821287  1
  O  O35  1  0.69455291  0.90879159  0.66178713  1
  O  O36  1  0.03013082  0.78067709  0.24908714  1
  O  O37  1  0.46986918  0.28067709  0.25091286  1
  O  O38  1  0.96986918  0.21932291  0.75091286  1
  O  O39  1  0.53013082  0.71932291  0.74908714  1
  O  O40  1  0.61262186  0.00591847  0.25001349  1
  O  O41  1  0.88737814  0.50591847  0.24998651  1
  O  O42  1  0.38737814  0.99408153  0.74998651  1
  O  O43  1  0.11262186  0.49408153  0.75001349  1
  O  O44  1  0.13838597  0.08373865  0.20514135  1
  O  O45  1  0.36161403  0.58373865  0.29485865  1
  O  O46  1  0.86161403  0.91626135  0.79485865  1
  O  O47  1  0.63838597  0.41626135  0.70514135  1
