# generated using pymatgen
data_Rb2Ag4Pd3(NO2)12
_symmetry_space_group_name_H-M   'P 1'
_cell_length_a   7.32664416
_cell_length_b   7.80856363
_cell_length_c   24.51252894
_cell_angle_alpha   90.00000000
_cell_angle_beta   90.00000000
_cell_angle_gamma   98.78458644
_symmetry_Int_Tables_number   1
_chemical_formula_structural   Rb2Ag4Pd3(NO2)12
_chemical_formula_sum   'Rb4 Ag8 Pd6 N24 O48'
_cell_volume   1385.92511655
_cell_formula_units_Z   2
loop_
 _symmetry_equiv_pos_site_id
 _symmetry_equiv_pos_as_xyz
  1  'x, y, z'
loop_
 _atom_site_type_symbol
 _atom_site_label
 _atom_site_symmetry_multiplicity
 _atom_site_fract_x
 _atom_site_fract_y
 _atom_site_fract_z
 _atom_site_occupancy
  Rb  Rb0  1  0.09973120  0.41282912  0.86658515  1
  Rb  Rb1  1  0.40026880  0.08717088  0.36658515  1
  Rb  Rb2  1  0.90026880  0.58717088  0.13341485  1
  Rb  Rb3  1  0.59973120  0.91282912  0.63341485  1
  Ag  Ag4  1  0.10741492  0.68220545  0.68292366  1
  Ag  Ag5  1  0.37473812  0.60649940  0.47274138  1
  Ag  Ag6  1  0.60741492  0.18220545  0.81707634  1
  Ag  Ag7  1  0.39258508  0.81779455  0.18292366  1
  Ag  Ag8  1  0.12526188  0.89350060  0.97274138  1
  Ag  Ag9  1  0.62526188  0.39350060  0.52725862  1
  Ag  Ag10  1  0.87473812  0.10649940  0.02725862  1
  Ag  Ag11  1  0.89258508  0.31779455  0.31707634  1
  Pd  Pd12  1  0.88993515  0.71919692  0.32438679  1
  Pd  Pd13  1  0.38993515  0.21919692  0.17561321  1
  Pd  Pd14  1  0.00000000  0.00000000  0.50000000  1
  Pd  Pd15  1  0.11006485  0.28080308  0.67561321  1
  Pd  Pd16  1  0.61006485  0.78080308  0.82438679  1
  Pd  Pd17  1  0.50000000  0.50000000  0.00000000  1
  N  N18  1  0.33398885  0.35047359  0.62384090  1
  N  N19  1  0.28735276  0.20328088  0.73230445  1
  N  N20  1  0.38792741  0.71783716  0.77208399  1
  N  N21  1  0.11495077  0.89801479  0.56717768  1
  N  N22  1  0.66601115  0.64952641  0.37615910  1
  N  N23  1  0.61495077  0.39801479  0.93282232  1
  N  N24  1  0.20228188  0.21812173  0.49660738  1
  N  N25  1  0.79771812  0.78187827  0.50339262  1
  N  N26  1  0.11207259  0.78216284  0.27208399  1
  N  N27  1  0.71264724  0.79671912  0.26769555  1
  N  N28  1  0.93053504  0.35295596  0.61688727  1
  N  N29  1  0.88504923  0.10198521  0.43282232  1
  N  N30  1  0.43053504  0.85295596  0.88311273  1
  N  N31  1  0.16601115  0.14952641  0.12384090  1
  N  N32  1  0.21264724  0.29671912  0.23230445  1
  N  N33  1  0.38504923  0.60198521  0.06717768  1
  N  N34  1  0.70228188  0.71812173  0.00339262  1
  N  N35  1  0.56946496  0.14704404  0.11688727  1
  N  N36  1  0.88792741  0.21783716  0.72791601  1
  N  N37  1  0.06946496  0.64704404  0.38311273  1
  N  N38  1  0.29771812  0.28187827  0.99660738  1
  N  N39  1  0.83398885  0.85047359  0.87615910  1
  N  N40  1  0.78735276  0.70328088  0.76769555  1
  N  N41  1  0.61207259  0.28216284  0.22791601  1
  O  O42  1  0.61335760  0.49452213  0.38711203  1
  O  O43  1  0.03341850  0.89691478  0.61237018  1
  O  O44  1  0.46658150  0.60308522  0.11237018  1
  O  O45  1  0.86206170  0.70092348  0.01848729  1
  O  O46  1  0.22771788  0.70048405  0.79019840  1
  O  O47  1  0.77228212  0.29951595  0.20980160  1
  O  O48  1  0.15814108  0.20274081  0.27240758  1
  O  O49  1  0.25860610  0.83342192  0.56213510  1
  O  O50  1  0.41273164  0.00979009  0.88640002  1
  O  O51  1  0.16157784  0.43933217  0.22560645  1
  O  O52  1  0.24139390  0.66657808  0.06213510  1
  O  O53  1  0.33634564  0.13517645  0.00768546  1
  O  O54  1  0.91190580  0.20383828  0.77848955  1
  O  O55  1  0.84185892  0.79725919  0.72759242  1
  O  O56  1  0.88664240  0.00547787  0.88711203  1
  O  O57  1  0.34185892  0.29725919  0.77240758  1
  O  O58  1  0.66365436  0.86482355  0.99231454  1
  O  O59  1  0.63793830  0.79907652  0.51848729  1
  O  O60  1  0.08809420  0.79616172  0.22151045  1
  O  O61  1  0.65814108  0.70274081  0.22759242  1
  O  O62  1  0.13793830  0.29907652  0.98151271  1
  O  O63  1  0.74139390  0.16657808  0.43786490  1
  O  O64  1  0.72771788  0.20048405  0.70980160  1
  O  O65  1  0.53341850  0.39691478  0.88762982  1
  O  O66  1  0.58809420  0.29616172  0.27848955  1
  O  O67  1  0.27228212  0.79951595  0.29019840  1
  O  O68  1  0.09028484  0.26604098  0.10212920  1
  O  O69  1  0.90971516  0.73395902  0.89787080  1
  O  O70  1  0.33603488  0.74470726  0.91326547  1
  O  O71  1  0.83634564  0.63517645  0.49231454  1
  O  O72  1  0.66396512  0.25529274  0.08673453  1
  O  O73  1  0.58726836  0.99020991  0.11359998  1
  O  O74  1  0.16365436  0.36482355  0.50768546  1
  O  O75  1  0.08726836  0.49020991  0.38640002  1
  O  O76  1  0.83842216  0.56066783  0.77439355  1
  O  O77  1  0.59028484  0.76604098  0.39787080  1
  O  O78  1  0.66157784  0.93933217  0.27439355  1
  O  O79  1  0.33842216  0.06066783  0.72560645  1
  O  O80  1  0.91273164  0.50979009  0.61359998  1
  O  O81  1  0.41190580  0.70383828  0.72151045  1
  O  O82  1  0.75860610  0.33342192  0.93786490  1
  O  O83  1  0.96658150  0.10308522  0.38762982  1
  O  O84  1  0.83603488  0.24470726  0.58673453  1
  O  O85  1  0.11335760  0.99452213  0.11288797  1
  O  O86  1  0.16396512  0.75529274  0.41326547  1
  O  O87  1  0.38664240  0.50547787  0.61288797  1
  O  O88  1  0.36206170  0.20092348  0.48151271  1
  O  O89  1  0.40971516  0.23395902  0.60212920  1
