# generated using pymatgen
data_Re2(HgO2)5
_symmetry_space_group_name_H-M   'P 1'
_cell_length_a   11.68820980
_cell_length_b   6.52531945
_cell_length_c   8.07177140
_cell_angle_alpha   80.97760625
_cell_angle_beta   90.00000000
_cell_angle_gamma   90.00000000
_symmetry_Int_Tables_number   1
_chemical_formula_structural   Re2(HgO2)5
_chemical_formula_sum   'Re4 Hg10 O20'
_cell_volume   608.01128223
_cell_formula_units_Z   2
loop_
 _symmetry_equiv_pos_site_id
 _symmetry_equiv_pos_as_xyz
  1  'x, y, z'
loop_
 _atom_site_type_symbol
 _atom_site_label
 _atom_site_symmetry_multiplicity
 _atom_site_fract_x
 _atom_site_fract_y
 _atom_site_fract_z
 _atom_site_occupancy
  Re  Re0  1  0.34476202  0.61164094  0.47736921  1
  Re  Re1  1  0.84476202  0.38835906  0.02263079  1
  Re  Re2  1  0.65523798  0.38835906  0.52263079  1
  Re  Re3  1  0.15523798  0.61164094  0.97736921  1
  Hg  Hg4  1  0.08854795  -0.00385019  0.30813300  1
  Hg  Hg5  1  0.71830654  0.87779379  0.82855488  1
  Hg  Hg6  1  0.58854795  0.00385019  0.19186700  1
  Hg  Hg7  1  0.78169346  0.87779379  0.32855488  1
  Hg  Hg8  1  0.28169346  0.12220621  0.17144512  1
  Hg  Hg9  1  0.50000000  0.50000000  0.00000000  1
  Hg  Hg10  1  0.91145205  0.00385019  0.69186700  1
  Hg  Hg11  1  0.21830654  0.12220621  0.67144512  1
  Hg  Hg12  1  0.41145205  -0.00385019  0.80813300  1
  Hg  Hg13  1  -0.00000000  0.50000000  0.50000000  1
  O  O14  1  0.17556923  0.39572321  0.87870934  1
  O  O15  1  0.55067765  0.80539810  0.93981982  1
  O  O16  1  0.78983655  0.30502016  0.46694347  1
  O  O17  1  0.32443077  0.39572321  0.37870934  1
  O  O18  1  0.57458038  0.45645326  0.34099199  1
  O  O19  1  0.94932235  0.80539810  0.43981982  1
  O  O20  1  0.67556923  0.60427679  0.62129066  1
  O  O21  1  0.59035630  0.18319920  0.65504522  1
  O  O22  1  0.05067765  0.19460190  0.56018018  1
  O  O23  1  0.92541962  0.45645326  0.84099199  1
  O  O24  1  0.71016345  0.30502016  0.96694347  1
  O  O25  1  0.44932235  0.19460190  0.06018018  1
  O  O26  1  0.40964370  0.81680080  0.34495478  1
  O  O27  1  0.07458038  0.54354674  0.15900801  1
  O  O28  1  0.28983655  0.69497984  0.03305653  1
  O  O29  1  0.42541962  0.54354674  0.65900801  1
  O  O30  1  0.82443077  0.60427679  0.12129066  1
  O  O31  1  0.09035630  0.81680080  0.84495478  1
  O  O32  1  0.21016345  0.69497984  0.53305653  1
  O  O33  1  0.90964370  0.18319920  0.15504522  1
