# generated using pymatgen
data_NClO
_symmetry_space_group_name_H-M   'P 1'
_cell_length_a   3.97210147
_cell_length_b   5.06007680
_cell_length_c   11.39110384
_cell_angle_alpha   90.00000000
_cell_angle_beta   90.00000000
_cell_angle_gamma   90.00000000
_symmetry_Int_Tables_number   1
_chemical_formula_structural   NClO
_chemical_formula_sum   'N4 Cl4 O4'
_cell_volume   228.95137370
_cell_formula_units_Z   4
loop_
 _symmetry_equiv_pos_site_id
 _symmetry_equiv_pos_as_xyz
  1  'x, y, z'
loop_
 _atom_site_type_symbol
 _atom_site_label
 _atom_site_symmetry_multiplicity
 _atom_site_fract_x
 _atom_site_fract_y
 _atom_site_fract_z
 _atom_site_occupancy
  N  N0  1  0.69732201  0.25000000  0.34175675  1
  N  N1  1  0.19732201  0.75000000  0.15824325  1
  N  N2  1  0.30267799  0.75000000  0.65824325  1
  N  N3  1  0.80267799  0.25000000  0.84175675  1
  Cl  Cl4  1  0.50930928  0.25000000  0.15733449  1
  Cl  Cl5  1  0.00930928  0.75000000  0.34266551  1
  Cl  Cl6  1  0.49069072  0.75000000  0.84266551  1
  Cl  Cl7  1  0.99069072  0.25000000  0.65733449  1
  O  O8  1  0.48523459  0.25000000  0.40747382  1
  O  O9  1  0.98523459  0.75000000  0.09252618  1
  O  O10  1  0.51476541  0.75000000  0.59252618  1
  O  O11  1  0.01476541  0.25000000  0.90747382  1
