# generated using pymatgen
data_BaMo2P3O14
_symmetry_space_group_name_H-M   'P 1'
_cell_length_a   8.14819695
_cell_length_b   8.14819695
_cell_length_c   8.65487194
_cell_angle_alpha   82.45493554
_cell_angle_beta   82.45493554
_cell_angle_gamma   72.91947361
_symmetry_Int_Tables_number   1
_chemical_formula_structural   BaMo2P3O14
_chemical_formula_sum   'Ba2 Mo4 P6 O28'
_cell_volume   541.90926107
_cell_formula_units_Z   2
loop_
 _symmetry_equiv_pos_site_id
 _symmetry_equiv_pos_as_xyz
  1  'x, y, z'
loop_
 _atom_site_type_symbol
 _atom_site_label
 _atom_site_symmetry_multiplicity
 _atom_site_fract_x
 _atom_site_fract_y
 _atom_site_fract_z
 _atom_site_occupancy
  Ba  Ba0  1  0.95505267  0.04653260  0.50095345  1
  Ba  Ba1  1  0.04653260  0.95505267  0.00095345  1
  Mo  Mo2  1  0.50556097  0.80523368  0.67197167  1
  Mo  Mo3  1  0.80523368  0.50556097  0.17197167  1
  Mo  Mo4  1  0.51631511  0.18139102  0.84604253  1
  Mo  Mo5  1  0.18139102  0.51631511  0.34604253  1
  P  P6  1  0.11177742  0.32089860  0.69792858  1
  P  P7  1  0.32089860  0.11177742  0.19792858  1
  P  P8  1  0.56184873  0.42445678  0.50506940  1
  P  P9  1  0.66092322  0.89642465  0.30832732  1
  P  P10  1  0.42445678  0.56184873  0.00506940  1
  P  P11  1  0.89642465  0.66092322  0.80832732  1
  O  O12  1  0.92333122  0.31291235  0.11387938  1
  O  O13  1  0.24888221  0.29839535  0.22674096  1
  O  O14  1  0.40830928  0.41448882  0.92200919  1
  O  O15  1  0.36879845  0.09193012  0.02136362  1
  O  O16  1  0.95390266  0.81815372  0.74908579  1
  O  O17  1  0.05481451  0.49585942  0.77796921  1
  O  O18  1  0.74480434  0.63615158  0.74157155  1
  O  O19  1  0.09193012  0.36879845  0.52136362  1
  O  O20  1  0.86936035  0.65638014  0.98861463  1
  O  O21  1  0.72151330  0.40196436  0.38473953  1
  O  O22  1  0.49585942  0.05481451  0.27796921  1
  O  O23  1  0.81815372  0.95390266  0.24908579  1
  O  O24  1  0.14148516  0.69601949  0.43676688  1
  O  O25  1  0.69601949  0.14148516  0.93676688  1
  O  O26  1  0.65638014  0.86936035  0.48861463  1
  O  O27  1  0.56060255  0.96848797  0.76926147  1
  O  O28  1  0.96848797  0.56060255  0.26926147  1
  O  O29  1  0.31291235  0.92333122  0.61387938  1
  O  O30  1  0.20313453  0.00315552  0.25968311  1
  O  O31  1  0.63615158  0.74480434  0.24157155  1
  O  O32  1  0.27635374  0.61694844  0.13449400  1
  O  O33  1  0.61694844  0.27635374  0.63449400  1
  O  O34  1  0.50760447  0.59648249  0.57422873  1
  O  O35  1  0.59648249  0.50760447  0.07422873  1
  O  O36  1  0.00315552  0.20313453  0.75968311  1
  O  O37  1  0.41448882  0.40830928  0.42200919  1
  O  O38  1  0.29839535  0.24888221  0.72674096  1
  O  O39  1  0.40196436  0.72151330  0.88473953  1
