# generated using pymatgen
data_Y2SiO5
_symmetry_space_group_name_H-M   'P 1'
_cell_length_a   6.67560892
_cell_length_b   6.85487271
_cell_length_c   9.03693181
_cell_angle_alpha   90.00000000
_cell_angle_beta   105.94542001
_cell_angle_gamma   90.00000000
_symmetry_Int_Tables_number   1
_chemical_formula_structural   Y2SiO5
_chemical_formula_sum   'Y8 Si4 O20'
_cell_volume   397.62285489
_cell_formula_units_Z   4
loop_
 _symmetry_equiv_pos_site_id
 _symmetry_equiv_pos_as_xyz
  1  'x, y, z'
loop_
 _atom_site_type_symbol
 _atom_site_label
 _atom_site_symmetry_multiplicity
 _atom_site_fract_x
 _atom_site_fract_y
 _atom_site_fract_z
 _atom_site_occupancy
  Y  Y0  1  0.06015265  0.63856039  0.87560274  1
  Y  Y1  1  0.93984735  0.36143961  0.12439726  1
  Y  Y2  1  0.43984735  0.13856039  0.12439726  1
  Y  Y3  1  0.56015265  0.86143961  0.87560274  1
  Y  Y4  1  0.26712714  0.12543412  0.47367372  1
  Y  Y5  1  0.23287286  0.62543412  0.52632628  1
  Y  Y6  1  0.76712714  0.37456588  0.47367372  1
  Y  Y7  1  0.73287286  0.87456588  0.52632628  1
  Si  Si8  1  0.52691565  0.41124711  0.79983803  1
  Si  Si9  1  0.97308435  0.91124711  0.20016197  1
  Si  Si10  1  0.47308435  0.58875289  0.20016197  1
  Si  Si11  1  0.02691565  0.08875289  0.79983803  1
  O  O12  1  0.43918116  0.88140811  0.61375997  1
  O  O13  1  0.99284505  0.13517520  0.61556978  1
  O  O14  1  0.33911697  0.57103192  0.79163856  1
  O  O15  1  0.98067324  0.71735481  0.10461305  1
  O  O16  1  0.56081884  0.11859189  0.38624003  1
  O  O17  1  0.77369941  0.04926569  0.12434841  1
  O  O18  1  0.06081884  0.38140811  0.38624003  1
  O  O19  1  0.66088303  0.42896808  0.20836144  1
  O  O20  1  0.51932676  0.21735481  0.89538695  1
  O  O21  1  0.01932676  0.28264519  0.89538695  1
  O  O22  1  0.72630059  0.54926569  0.87565159  1
  O  O23  1  0.83911697  0.92896808  0.79163856  1
  O  O24  1  0.93918116  0.61859189  0.61375997  1
  O  O25  1  0.22630059  0.95073431  0.87565159  1
  O  O26  1  0.16088303  0.07103192  0.20836144  1
  O  O27  1  0.49284505  0.36482480  0.61556978  1
  O  O28  1  0.50715495  0.63517520  0.38443022  1
  O  O29  1  0.48067324  0.78264519  0.10461305  1
  O  O30  1  0.00715495  0.86482480  0.38443022  1
  O  O31  1  0.27369941  0.45073431  0.12434841  1
