# generated using pymatgen
data_Sm2Se5O13
_symmetry_space_group_name_H-M   'P 1'
_cell_length_a   10.28879489
_cell_length_b   10.07502193
_cell_length_c   12.87990944
_cell_angle_alpha   67.68788460
_cell_angle_beta   90.00000000
_cell_angle_gamma   90.00000000
_symmetry_Int_Tables_number   1
_chemical_formula_structural   Sm2Se5O13
_chemical_formula_sum   'Sm8 Se20 O52'
_cell_volume   1235.16742693
_cell_formula_units_Z   4
loop_
 _symmetry_equiv_pos_site_id
 _symmetry_equiv_pos_as_xyz
  1  'x, y, z'
loop_
 _atom_site_type_symbol
 _atom_site_label
 _atom_site_symmetry_multiplicity
 _atom_site_fract_x
 _atom_site_fract_y
 _atom_site_fract_z
 _atom_site_occupancy
  Sm  Sm0  1  0.25576365  0.18039135  0.09032678  1
  Sm  Sm1  1  0.82140222  0.06221436  0.08011138  1
  Sm  Sm2  1  0.17859778  0.93778564  0.91988862  1
  Sm  Sm3  1  0.74423635  0.81960865  0.90967322  1
  Sm  Sm4  1  0.67859778  0.06221436  0.58011138  1
  Sm  Sm5  1  0.75576365  0.81960865  0.40967322  1
  Sm  Sm6  1  0.24423635  0.18039135  0.59032678  1
  Sm  Sm7  1  0.32140222  0.93778564  0.41988862  1
  Se  Se8  1  0.91739059  0.10392132  0.77343687  1
  Se  Se9  1  0.42098912  0.63907446  0.03938625  1
  Se  Se10  1  0.57901088  0.36092554  0.96061375  1
  Se  Se11  1  0.26872467  0.35021343  0.30439206  1
  Se  Se12  1  0.76872467  0.64978657  0.19560794  1
  Se  Se13  1  0.92098912  0.36092554  0.46061375  1
  Se  Se14  1  0.41739059  0.89607868  0.72656313  1
  Se  Se15  1  0.43352710  0.84460243  0.17903562  1
  Se  Se16  1  0.51901155  0.41654590  0.39726495  1
  Se  Se17  1  0.23127533  0.35021343  0.80439206  1
  Se  Se18  1  0.93352710  0.15539757  0.32096438  1
  Se  Se19  1  0.01901155  0.58345410  0.10273505  1
  Se  Se20  1  0.98098845  0.41654590  0.89726495  1
  Se  Se21  1  0.58260941  0.10392132  0.27343687  1
  Se  Se22  1  0.73127533  0.64978657  0.69560794  1
  Se  Se23  1  0.08260941  0.89607868  0.22656313  1
  Se  Se24  1  0.07901088  0.63907446  0.53938625  1
  Se  Se25  1  0.48098845  0.58345410  0.60273505  1
  Se  Se26  1  0.56647290  0.15539757  0.82096438  1
  Se  Se27  1  0.06647290  0.84460243  0.67903562  1
  O  O28  1  0.26907579  0.33522832  0.68453957  1
  O  O29  1  0.23787500  0.17889568  0.90233225  1
  O  O30  1  0.36833987  0.79435779  0.94402175  1
  O  O31  1  0.42596368  0.08939894  0.23284478  1
  O  O32  1  0.33260810  0.01915228  0.76408054  1
  O  O33  1  0.83260810  0.98084772  0.73591946  1
  O  O34  1  0.56097696  0.98493005  0.41187660  1
  O  O35  1  0.66739190  0.98084772  0.23591946  1
  O  O36  1  0.93902304  0.98493005  0.91187660  1
  O  O37  1  0.43902304  0.01506995  0.58812340  1
  O  O38  1  0.89591173  0.63084386  0.01053892  1
  O  O39  1  0.39591173  0.36915614  0.48946108  1
  O  O40  1  0.60408827  0.63084386  0.51053892  1
  O  O41  1  0.76212500  0.82110432  0.09766775  1
  O  O42  1  0.26212500  0.17889568  0.40233225  1
  O  O43  1  0.68468423  0.05425943  0.90907169  1
  O  O44  1  0.57403632  0.91060106  0.76715522  1
  O  O45  1  0.92596368  0.91060106  0.26715522  1
  O  O46  1  0.58187602  0.65570676  0.01748288  1
  O  O47  1  0.37361597  0.79442497  0.30813103  1
  O  O48  1  0.90255992  0.32984963  0.33091463  1
  O  O49  1  0.13166013  0.79435779  0.44402175  1
  O  O50  1  0.87361597  0.20557503  0.19186897  1
  O  O51  1  0.31531577  0.94574057  0.09092831  1
  O  O52  1  0.55695578  0.63632029  0.71337277  1
  O  O53  1  0.94304422  0.63632029  0.21337277  1
  O  O54  1  0.23092421  0.33522832  0.18453957  1
  O  O55  1  0.37391616  0.71619656  0.56011373  1
  O  O56  1  0.06097696  0.01506995  0.08812340  1
  O  O57  1  0.87391616  0.28380344  0.93988627  1
  O  O58  1  0.05695578  0.36367971  0.78662723  1
  O  O59  1  0.07403632  0.08939894  0.73284478  1
  O  O60  1  0.63166013  0.20564221  0.05597825  1
  O  O61  1  0.10408827  0.36915614  0.98946108  1
  O  O62  1  0.76907579  0.66477168  0.81546043  1
  O  O63  1  0.73787500  0.82110432  0.59766775  1
  O  O64  1  0.73092421  0.66477168  0.31546043  1
  O  O65  1  0.40255992  0.67015037  0.16908537  1
  O  O66  1  0.44304422  0.36367971  0.28662723  1
  O  O67  1  0.59744008  0.32984963  0.83091463  1
  O  O68  1  0.86833987  0.20564221  0.55597825  1
  O  O69  1  0.18468423  0.94574057  0.59092831  1
  O  O70  1  0.62638403  0.20557503  0.69186897  1
  O  O71  1  0.16739190  0.01915228  0.26408054  1
  O  O72  1  0.62608384  0.28380344  0.43988627  1
  O  O73  1  0.91812398  0.65570676  0.51748288  1
  O  O74  1  0.09744008  0.67015037  0.66908537  1
  O  O75  1  0.08187602  0.34429324  0.48251712  1
  O  O76  1  0.12608384  0.71619656  0.06011373  1
  O  O77  1  0.41812398  0.34429324  0.98251712  1
  O  O78  1  0.81531577  0.05425943  0.40907169  1
  O  O79  1  0.12638403  0.79442497  0.80813103  1
