# generated using pymatgen
data_GaN5O14
_symmetry_space_group_name_H-M   'P 1'
_cell_length_a   7.17769108
_cell_length_b   7.17769108
_cell_length_c   8.87638639
_cell_angle_alpha   51.89802866
_cell_angle_beta   51.89802866
_cell_angle_gamma   48.00918465
_symmetry_Int_Tables_number   1
_chemical_formula_structural   GaN5O14
_chemical_formula_sum   'Ga1 N5 O14'
_cell_volume   250.62839538
_cell_formula_units_Z   1
loop_
 _symmetry_equiv_pos_site_id
 _symmetry_equiv_pos_as_xyz
  1  'x, y, z'
loop_
 _atom_site_type_symbol
 _atom_site_label
 _atom_site_symmetry_multiplicity
 _atom_site_fract_x
 _atom_site_fract_y
 _atom_site_fract_z
 _atom_site_occupancy
  Ga  Ga0  1  0.01567563  0.98432437  -0.00000000  1
  N  N1  1  0.86925295  0.46574114  0.68062651  1
  N  N2  1  0.53425886  0.13074705  0.31937349  1
  N  N3  1  0.15608767  0.58013902  0.97165056  1
  N  N4  1  0.41986098  0.84391233  0.02834944  1
  N  N5  1  0.14047799  0.85952201  0.50000000  1
  O  O6  1  0.98569687  0.33194577  0.81407718  1
  O  O7  1  0.66805423  0.01430313  0.18592282  1
  O  O8  1  0.73859668  0.38736054  0.70764300  1
  O  O9  1  0.61263946  0.26140332  0.29235700  1
  O  O10  1  0.90086852  0.66235197  0.53986899  1
  O  O11  1  0.33764803  0.09913148  0.46013101  1
  O  O12  1  0.07918958  0.82653912  0.84136148  1
  O  O13  1  0.17346088  0.92081042  0.15863852  1
  O  O14  1  0.15000365  0.56011129  0.12727935  1
  O  O15  1  0.43988871  0.84999635  0.87272065  1
  O  O16  1  0.22330664  0.39756455  0.94119622  1
  O  O17  1  0.60243545  0.77669336  0.05880378  1
  O  O18  1  0.33417171  0.66582829  0.50000000  1
  O  O19  1  0.94662351  0.05337649  0.50000000  1
