# generated using pymatgen
data_Zr(SeCl6)2
_symmetry_space_group_name_H-M   'P 1'
_cell_length_a   12.75015784
_cell_length_b   12.50956435
_cell_length_c   8.83803471
_cell_angle_alpha   71.00651753
_cell_angle_beta   68.09173392
_cell_angle_gamma   40.97670944
_symmetry_Int_Tables_number   1
_chemical_formula_structural   Zr(SeCl6)2
_chemical_formula_sum   'Zr2 Se4 Cl24'
_cell_volume   855.40716503
_cell_formula_units_Z   2
loop_
 _symmetry_equiv_pos_site_id
 _symmetry_equiv_pos_as_xyz
  1  'x, y, z'
loop_
 _atom_site_type_symbol
 _atom_site_label
 _atom_site_symmetry_multiplicity
 _atom_site_fract_x
 _atom_site_fract_y
 _atom_site_fract_z
 _atom_site_occupancy
  Zr  Zr0  1  0.12392523  0.12408069  0.37604593  1
  Zr  Zr1  1  0.87392560  0.87401104  0.12603296  1
  Se  Se2  1  0.23776292  0.67420994  0.31437859  1
  Se  Se3  1  0.47626439  0.93561847  0.57595871  1
  Se  Se4  1  0.93554233  0.47613606  0.01217376  1
  Se  Se5  1  0.67423931  0.23774952  0.77379902  1
  Cl  Cl6  1  0.00164996  0.09144010  0.65365310  1
  Cl  Cl7  1  0.44434738  0.31621335  0.89915872  1
  Cl  Cl8  1  0.68673636  0.71837783  0.01233540  1
  Cl  Cl9  1  0.75687613  0.15288663  0.07644439  1
  Cl  Cl10  1  0.83812726  0.91242206  0.84921635  1
  Cl  Cl11  1  0.31595994  0.44442894  0.34046498  1
  Cl  Cl12  1  0.58165002  0.47595959  0.74655726  1
  Cl  Cl13  1  0.40067153  0.84997288  0.41166664  1
  Cl  Cl14  1  0.71856578  0.68690963  0.58198202  1
  Cl  Cl15  1  0.99639452  0.59655712  0.15845322  1
  Cl  Cl16  1  0.84988224  0.40062319  0.33773759  1
  Cl  Cl17  1  0.09133002  0.00163865  0.25347519  1
  Cl  Cl18  1  0.15304892  0.75662297  0.01394208  1
  Cl  Cl19  1  0.05378081  0.50336767  0.77397255  1
  Cl  Cl20  1  0.47594462  0.58162722  0.19598819  1
  Cl  Cl21  1  0.91237108  0.83820256  0.40018728  1
  Cl  Cl22  1  0.59648626  0.99664909  0.24846145  1
  Cl  Cl23  1  0.17370059  0.23616451  0.49336413  1
  Cl  Cl24  1  0.90954967  0.35059034  0.93377168  1
  Cl  Cl25  1  0.23768063  0.66790568  0.56320870  1
  Cl  Cl26  1  0.50365914  0.05382479  0.66872658  1
  Cl  Cl27  1  0.23594748  0.17367467  0.09684778  1
  Cl  Cl28  1  0.66796261  0.23752395  0.53131892  1
  Cl  Cl29  1  0.35091831  0.90950987  0.80577584  1
