# generated using pymatgen
data_CdI2
_symmetry_space_group_name_H-M   'P 1'
_cell_length_a   4.28258986
_cell_length_b   4.28259057
_cell_length_c   85.86526602
_cell_angle_alpha   90.00000000
_cell_angle_beta   90.00000000
_cell_angle_gamma   120.00000252
_symmetry_Int_Tables_number   1
_chemical_formula_structural   CdI2
_chemical_formula_sum   'Cd12 I24'
_cell_volume   1363.83295824
_cell_formula_units_Z   12
loop_
 _symmetry_equiv_pos_site_id
 _symmetry_equiv_pos_as_xyz
  1  'x, y, z'
loop_
 _atom_site_type_symbol
 _atom_site_label
 _atom_site_symmetry_multiplicity
 _atom_site_fract_x
 _atom_site_fract_y
 _atom_site_fract_z
 _atom_site_occupancy
  Cd  Cd0  1  0.00000000  -0.00000000  0.27089529  1
  Cd  Cd1  1  0.00000000  -0.00000000  0.93738777  1
  Cd  Cd2  1  0.66666700  0.33333300  0.02082950  1
  Cd  Cd3  1  0.66666700  0.33333300  0.77074520  1
  Cd  Cd4  1  0.00000000  0.00000000  0.10423165  1
  Cd  Cd5  1  0.00000000  0.00000000  0.85416923  1
  Cd  Cd6  1  0.66666700  0.33333300  0.43736932  1
  Cd  Cd7  1  0.66666700  0.33333300  0.18748535  1
  Cd  Cd8  1  0.66666700  0.33333300  0.52089894  1
  Cd  Cd9  1  0.66666700  0.33333300  0.60440799  1
  Cd  Cd10  1  0.66666700  0.33333300  0.35415442  1
  Cd  Cd11  1  -0.00000000  -0.00000000  0.68737299  1
  I  I12  1  0.00000000  0.00000000  0.16743492  1
  I  I13  1  0.66666700  0.33333300  0.83410123  1
  I  I14  1  0.33333300  0.66666700  0.79087167  1
  I  I15  1  0.00000000  0.00000000  0.41728785  1
  I  I16  1  0.66666700  0.33333300  0.08411584  1
  I  I17  1  0.33333300  0.66666700  0.45747097  1
  I  I18  1  0.33333300  0.66666700  0.20755334  1
  I  I19  1  0.33333300  0.66666700  0.95748946  1
  I  I20  1  0.66666700  0.33333300  0.91728845  1
  I  I21  1  0.00000000  -0.00000000  0.58443947  1
  I  I22  1  0.33333300  0.66666700  0.54104482  1
  I  I23  1  0.33333300  0.66666700  0.12437818  1
  I  I24  1  0.33333300  0.66666700  0.04089589  1
  I  I25  1  0.00000000  -0.00000000  0.75062173  1
  I  I26  1  0.33333300  0.66666700  0.29104472  1
  I  I27  1  0.33333300  0.66666700  0.37421728  1
  I  I28  1  0.00000000  -0.00000000  0.33410105  1
  I  I29  1  0.33333300  0.66666700  0.62437974  1
  I  I30  1  0.33333300  0.66666700  0.70747511  1
  I  I31  1  0.00000000  0.00000000  0.00076829  1
  I  I32  1  0.66666700  0.33333300  0.66728847  1
  I  I33  1  0.66666700  0.33333300  0.25078280  1
  I  I34  1  0.33333300  0.66666700  0.87421880  1
  I  I35  1  0.00000000  0.00000000  0.50078227  1
