# generated using pymatgen
data_ZnS
_symmetry_space_group_name_H-M   'P 1'
_cell_length_a   3.80720601
_cell_length_b   3.80720557
_cell_length_c   62.28774208
_cell_angle_alpha   90.00000000
_cell_angle_beta   90.00000000
_cell_angle_gamma   120.00000371
_symmetry_Int_Tables_number   1
_chemical_formula_structural   ZnS
_chemical_formula_sum   'Zn20 S20'
_cell_volume   781.89044937
_cell_formula_units_Z   20
loop_
 _symmetry_equiv_pos_site_id
 _symmetry_equiv_pos_as_xyz
  1  'x, y, z'
loop_
 _atom_site_type_symbol
 _atom_site_label
 _atom_site_symmetry_multiplicity
 _atom_site_fract_x
 _atom_site_fract_y
 _atom_site_fract_z
 _atom_site_occupancy
  Zn  Zn0  1  0.00000000  -0.00000000  0.55001837  1
  Zn  Zn1  1  0.33333300  0.66666700  0.69999496  1
  Zn  Zn2  1  0.33333300  0.66666700  0.19998851  1
  Zn  Zn3  1  0.66666700  0.33333300  0.40000617  1
  Zn  Zn4  1  0.66666700  0.33333300  0.90001234  1
  Zn  Zn5  1  0.00000000  -0.00000000  0.85001357  1
  Zn  Zn6  1  0.33333300  0.66666700  0.94999836  1
  Zn  Zn7  1  0.66666700  0.33333300  0.75001764  1
  Zn  Zn8  1  0.66666700  0.33333300  0.10002039  1
  Zn  Zn9  1  0.00000000  -0.00000000  0.65003820  1
  Zn  Zn10  1  0.33333300  0.66666700  0.80004981  1
  Zn  Zn11  1  0.66666700  0.33333300  0.60001158  1
  Zn  Zn12  1  0.00000000  0.00000000  0.00000991  1
  Zn  Zn13  1  0.00000000  -0.00000000  0.45001801  1
  Zn  Zn14  1  0.33333300  0.66666700  0.05004155  1
  Zn  Zn15  1  -0.00000000  0.00000000  0.15000800  1
  Zn  Zn16  1  0.33333300  0.66666700  0.30004196  1
  Zn  Zn17  1  -0.00000000  0.00000000  0.34998822  1
  Zn  Zn18  1  0.66666700  0.33333300  0.25001180  1
  Zn  Zn19  1  0.33333300  0.66666700  0.50000879  1
  S  S20  1  0.33333300  0.66666700  0.33748552  1
  S  S21  1  0.00000000  -0.00000000  0.58744581  1
  S  S22  1  0.33333300  0.66666700  0.83749787  1
  S  S23  1  0.00000000  -0.00000000  0.03752243  1
  S  S24  1  0.33333300  0.66666700  0.73744572  1
  S  S25  1  0.33333300  0.66666700  0.08749457  1
  S  S26  1  0.66666700  0.33333300  0.28752427  1
  S  S27  1  0.66666700  0.33333300  0.43752122  1
  S  S28  1  0.00000000  -0.00000000  0.88748622  1
  S  S29  1  0.33333300  0.66666700  0.98744191  1
  S  S30  1  0.66666700  0.33333300  0.63752975  1
  S  S31  1  0.00000000  -0.00000000  0.48744376  1
  S  S32  1  0.66666700  0.33333300  0.93748237  1
  S  S33  1  0.33333300  0.66666700  0.23743742  1
  S  S34  1  0.00000000  -0.00000000  0.38743452  1
  S  S35  1  0.66666700  0.33333300  0.78753257  1
  S  S36  1  0.00000000  -0.00000000  0.18747573  1
  S  S37  1  0.33333300  0.66666700  0.53752248  1
  S  S38  1  0.66666700  0.33333300  0.13748669  1
  S  S39  1  0.00000000  -0.00000000  0.68748804  1
