# generated using pymatgen
data_MnSeO4
_symmetry_space_group_name_H-M   'P 1'
_cell_length_a   5.02713541
_cell_length_b   5.02714172
_cell_length_c   6.78005036
_cell_angle_alpha   90.00011563
_cell_angle_beta   89.99986240
_cell_angle_gamma   112.85729188
_symmetry_Int_Tables_number   1
_chemical_formula_structural   MnSeO4
_chemical_formula_sum   'Mn2 Se2 O8'
_cell_volume   157.89133042
_cell_formula_units_Z   2
loop_
 _symmetry_equiv_pos_site_id
 _symmetry_equiv_pos_as_xyz
  1  'x, y, z'
loop_
 _atom_site_type_symbol
 _atom_site_label
 _atom_site_symmetry_multiplicity
 _atom_site_fract_x
 _atom_site_fract_y
 _atom_site_fract_z
 _atom_site_occupancy
  Mn  Mn0  1  0.00000000  0.00000000  -0.00000000  1
  Mn  Mn1  1  0.00000000  0.00000000  0.50000000  1
  Se  Se2  1  0.64757284  0.35242516  0.24999900  1
  Se  Se3  1  0.35242716  0.64757484  0.75000100  1
  O  O4  1  0.75402929  0.24597071  0.45263377  1
  O  O5  1  0.24597071  0.75402929  0.54736523  1
  O  O6  1  0.22449147  0.28539332  0.75000000  1
  O  O7  1  0.77550853  0.71460668  0.25000000  1
  O  O8  1  0.75402929  0.24597171  0.04736723  1
  O  O9  1  0.24597071  0.75402829  0.95263377  1
  O  O10  1  0.71460568  0.77550853  0.75000000  1
  O  O11  1  0.28539432  0.22449147  0.25000000  1
