# generated using pymatgen
data_La2SiS5
_symmetry_space_group_name_H-M   'P 1'
_cell_length_a   12.68343128
_cell_length_b   7.64170337
_cell_length_c   7.92982959
_cell_angle_alpha   78.58429424
_cell_angle_beta   90.00000000
_cell_angle_gamma   90.00000000
_symmetry_Int_Tables_number   1
_chemical_formula_structural   La2SiS5
_chemical_formula_sum   'La8 Si4 S20'
_cell_volume   753.37811723
_cell_formula_units_Z   4
loop_
 _symmetry_equiv_pos_site_id
 _symmetry_equiv_pos_as_xyz
  1  'x, y, z'
loop_
 _atom_site_type_symbol
 _atom_site_label
 _atom_site_symmetry_multiplicity
 _atom_site_fract_x
 _atom_site_fract_y
 _atom_site_fract_z
 _atom_site_occupancy
  La  La0  1  0.59482303  0.74038881  0.45479330  1
  La  La1  1  0.83488943  0.33566956  0.63307485  1
  La  La2  1  0.90517697  0.74038881  0.95479330  1
  La  La3  1  0.33488943  0.66433044  0.86692515  1
  La  La4  1  0.09482303  0.25961119  0.04520670  1
  La  La5  1  0.16511057  0.66433044  0.36692515  1
  La  La6  1  0.66511057  0.33566956  0.13307485  1
  La  La7  1  0.40517697  0.25961119  0.54520670  1
  Si  Si8  1  0.61640263  0.82917627  0.90370704  1
  Si  Si9  1  0.38359737  0.17082373  0.09629296  1
  Si  Si10  1  0.11640263  0.17082373  0.59629296  1
  Si  Si11  1  0.88359737  0.82917627  0.40370704  1
  S  S12  1  0.77437705  0.02240899  0.44883041  1
  S  S13  1  0.62105065  0.36194046  0.49676999  1
  S  S14  1  0.29793214  0.37181650  0.19415852  1
  S  S15  1  0.37894935  0.63805954  0.50323001  1
  S  S16  1  0.87894935  0.36194046  0.99676999  1
  S  S17  1  0.27437705  0.97759101  0.05116959  1
  S  S18  1  0.96963986  0.67611469  0.61122678  1
  S  S19  1  0.00055521  0.92086588  0.21917893  1
  S  S20  1  0.46963986  0.32388531  0.88877322  1
  S  S21  1  0.49944479  0.92086588  0.71917893  1
  S  S22  1  0.70206786  0.62818350  0.80584148  1
  S  S23  1  0.99944479  0.07913412  0.78082107  1
  S  S24  1  0.72562295  0.02240899  0.94883041  1
  S  S25  1  0.53036014  0.67611469  0.11122678  1
  S  S26  1  0.22562295  0.97759101  0.55116959  1
  S  S27  1  0.03036014  0.32388531  0.38877322  1
  S  S28  1  0.50055521  0.07913412  0.28082107  1
  S  S29  1  0.12105065  0.63805954  0.00323001  1
  S  S30  1  0.79793214  0.62818350  0.30584148  1
  S  S31  1  0.20206786  0.37181650  0.69415852  1
