# generated using pymatgen
data_Zn3TeAs2Pb3O14
_symmetry_space_group_name_H-M   'P 1'
_cell_length_a   8.55367542
_cell_length_b   8.55367542
_cell_length_c   5.25045002
_cell_angle_alpha   90.00000000
_cell_angle_beta   90.00000000
_cell_angle_gamma   119.99999862
_symmetry_Int_Tables_number   1
_chemical_formula_structural   Zn3TeAs2Pb3O14
_chemical_formula_sum   'Zn3 Te1 As2 Pb3 O14'
_cell_volume   332.68460123
_cell_formula_units_Z   1
loop_
 _symmetry_equiv_pos_site_id
 _symmetry_equiv_pos_as_xyz
  1  'x, y, z'
loop_
 _atom_site_type_symbol
 _atom_site_label
 _atom_site_symmetry_multiplicity
 _atom_site_fract_x
 _atom_site_fract_y
 _atom_site_fract_z
 _atom_site_occupancy
  Zn  Zn0  1  0.24116379  -0.00000000  0.50000000  1
  Zn  Zn1  1  0.75883621  0.75883621  0.50000000  1
  Zn  Zn2  1  -0.00000000  0.24116379  0.50000000  1
  Te  Te3  1  -0.00000000  -0.00000000  0.00000000  1
  As  As4  1  0.33333300  0.66666700  0.54490133  1
  As  As5  1  0.66666700  0.33333300  0.45509867  1
  Pb  Pb6  1  0.60022640  1.00000000  0.00000000  1
  Pb  Pb7  1  0.39977360  0.39977360  0.00000000  1
  Pb  Pb8  1  1.00000000  0.60022640  0.00000000  1
  O  O9  1  0.53956637  0.72927060  0.67475591  1
  O  O10  1  0.46043363  0.18970422  0.32524409  1
  O  O11  1  0.12284464  0.21160276  0.21126855  1
  O  O12  1  0.27072940  0.81029578  0.67475591  1
  O  O13  1  0.08875812  0.87715536  0.21126855  1
  O  O14  1  0.91124188  0.78839724  0.78873145  1
  O  O15  1  0.66666700  0.33333300  0.77582604  1
  O  O16  1  0.87715536  0.08875812  0.78873145  1
  O  O17  1  0.18970422  0.46043363  0.67475591  1
  O  O18  1  0.78839724  0.91124188  0.21126855  1
  O  O19  1  0.33333300  0.66666700  0.22417396  1
  O  O20  1  0.21160276  0.12284464  0.78873145  1
  O  O21  1  0.81029578  0.27072940  0.32524409  1
  O  O22  1  0.72927060  0.53956637  0.32524409  1
