# generated using pymatgen
data_Tl4V2O7
_symmetry_space_group_name_H-M   'P 1'
_cell_length_a   5.95886293
_cell_length_b   5.95886320
_cell_length_c   7.72352375
_cell_angle_alpha   90.00000000
_cell_angle_beta   90.00000000
_cell_angle_gamma   119.99999844
_symmetry_Int_Tables_number   1
_chemical_formula_structural   Tl4V2O7
_chemical_formula_sum   'Tl4 V2 O7'
_cell_volume   237.50509779
_cell_formula_units_Z   1
loop_
 _symmetry_equiv_pos_site_id
 _symmetry_equiv_pos_as_xyz
  1  'x, y, z'
loop_
 _atom_site_type_symbol
 _atom_site_label
 _atom_site_symmetry_multiplicity
 _atom_site_fract_x
 _atom_site_fract_y
 _atom_site_fract_z
 _atom_site_occupancy
  Tl  Tl0  1  0.33333300  0.66666700  0.07783255  1
  Tl  Tl1  1  0.66666700  0.33333200  0.92216745  1
  Tl  Tl2  1  0.66666700  0.33333200  0.41299925  1
  Tl  Tl3  1  0.33333300  0.66666700  0.58700175  1
  V  V4  1  0.00000000  0.00000000  0.73337849  1
  V  V5  1  -0.00000000  0.00000000  0.26662251  1
  O  O6  1  0.84341071  0.15658929  0.19787634  1
  O  O7  1  0.84341071  0.68682142  0.19787634  1
  O  O8  1  0.31317758  0.15658929  0.19787634  1
  O  O9  1  0.68682042  0.84340971  0.80212466  1
  O  O10  1  0.15658929  0.31317858  0.80212466  1
  O  O11  1  0.15659029  0.84340971  0.80212466  1
  O  O12  1  0.00000000  0.00000000  0.50000000  1
