# generated using pymatgen
data_RbSnS4
_symmetry_space_group_name_H-M   'P 1'
_cell_length_a   9.85313117
_cell_length_b   10.02780367
_cell_length_c   14.54790199
_cell_angle_alpha   90.00000000
_cell_angle_beta   106.65046957
_cell_angle_gamma   90.00000000
_symmetry_Int_Tables_number   1
_chemical_formula_structural   RbSnS4
_chemical_formula_sum   'Rb8 Sn8 S32'
_cell_volume   1377.13953003
_cell_formula_units_Z   8
loop_
 _symmetry_equiv_pos_site_id
 _symmetry_equiv_pos_as_xyz
  1  'x, y, z'
loop_
 _atom_site_type_symbol
 _atom_site_label
 _atom_site_symmetry_multiplicity
 _atom_site_fract_x
 _atom_site_fract_y
 _atom_site_fract_z
 _atom_site_occupancy
  Rb  Rb0  1  0.34660212  0.36516631  0.20325239  1
  Rb  Rb1  1  0.15339788  0.86516631  0.29674761  1
  Rb  Rb2  1  0.65339788  0.63483369  0.79674761  1
  Rb  Rb3  1  0.84660212  0.13483369  0.70325239  1
  Rb  Rb4  1  0.02707320  0.27387090  0.40469776  1
  Rb  Rb5  1  0.47292680  0.77387090  0.09530224  1
  Rb  Rb6  1  0.97292680  0.72612910  0.59530224  1
  Rb  Rb7  1  0.52707320  0.22612910  0.90469776  1
  Sn  Sn8  1  0.02366567  0.17506046  0.01316126  1
  Sn  Sn9  1  0.47633433  0.67506046  0.48683874  1
  Sn  Sn10  1  0.97633433  0.82493954  0.98683874  1
  Sn  Sn11  1  0.52366567  0.32493954  0.51316126  1
  Sn  Sn12  1  0.59498918  0.99985377  0.40513288  1
  Sn  Sn13  1  0.90501082  0.49985377  0.09486712  1
  Sn  Sn14  1  0.40501082  0.00014623  0.59486712  1
  Sn  Sn15  1  0.09498918  0.50014623  0.90513288  1
  S  S16  1  0.21233538  0.27508765  0.96095145  1
  S  S17  1  0.28766462  0.77508765  0.53904855  1
  S  S18  1  0.78766462  0.72491235  0.03904855  1
  S  S19  1  0.71233538  0.22491235  0.46095145  1
  S  S20  1  0.83563238  0.03570918  0.91882669  1
  S  S21  1  0.66436762  0.53570918  0.58117331  1
  S  S22  1  0.16436762  0.96429082  0.08117331  1
  S  S23  1  0.33563238  0.46429082  0.41882669  1
  S  S24  1  0.63607203  0.89777668  0.57358146  1
  S  S25  1  0.86392797  0.39777668  0.92641854  1
  S  S26  1  0.36392797  0.10222332  0.42641854  1
  S  S27  1  0.13607203  0.60222332  0.07358146  1
  S  S28  1  0.51269922  0.06697552  0.22470309  1
  S  S29  1  0.98730078  0.56697552  0.27529691  1
  S  S30  1  0.48730078  0.93302448  0.77529691  1
  S  S31  1  0.01269922  0.43302448  0.72470309  1
  S  S32  1  0.00637634  0.27065680  0.16171286  1
  S  S33  1  0.49362366  0.77065680  0.33828714  1
  S  S34  1  0.99362366  0.72934320  0.83828714  1
  S  S35  1  0.50637634  0.22934320  0.66171286  1
  S  S36  1  0.68884697  0.14219472  0.19718451  1
  S  S37  1  0.81115303  0.64219472  0.30281549  1
  S  S38  1  0.31115303  0.85780528  0.80281549  1
  S  S39  1  0.18884697  0.35780528  0.69718451  1
  S  S40  1  0.69146427  0.34389147  0.22732890  1
  S  S41  1  0.80853573  0.84389147  0.27267110  1
  S  S42  1  0.30853573  0.65610853  0.77267110  1
  S  S43  1  0.19146427  0.15610853  0.72732890  1
  S  S44  1  0.64929057  0.44035357  0.09901178  1
  S  S45  1  0.85070943  0.94035357  0.40098822  1
  S  S46  1  0.35070943  0.55964643  0.90098822  1
  S  S47  1  0.14929057  0.05964643  0.59901178  1
