# generated using pymatgen
data_TiSn6F16
_symmetry_space_group_name_H-M   'P 1'
_cell_length_a   9.83285075
_cell_length_b   9.83285075
_cell_length_c   10.90144025
_cell_angle_alpha   89.27641746
_cell_angle_beta   89.27641746
_cell_angle_gamma   45.68344993
_symmetry_Int_Tables_number   1
_chemical_formula_structural   TiSn6F16
_chemical_formula_sum   'Ti2 Sn12 F32'
_cell_volume   754.06042435
_cell_formula_units_Z   2
loop_
 _symmetry_equiv_pos_site_id
 _symmetry_equiv_pos_as_xyz
  1  'x, y, z'
loop_
 _atom_site_type_symbol
 _atom_site_label
 _atom_site_symmetry_multiplicity
 _atom_site_fract_x
 _atom_site_fract_y
 _atom_site_fract_z
 _atom_site_occupancy
  Ti  Ti0  1  0.33145941  0.66854059  0.75000000  1
  Ti  Ti1  1  0.66854059  0.33145941  0.25000000  1
  Sn  Sn2  1  0.10396933  0.75539287  0.39352691  1
  Sn  Sn3  1  0.53766863  0.75420378  0.46919936  1
  Sn  Sn4  1  0.89603067  0.24460713  0.60647309  1
  Sn  Sn5  1  0.46233137  0.24579622  0.53080064  1
  Sn  Sn6  1  0.70430453  0.88440997  0.17914097  1
  Sn  Sn7  1  0.75539287  0.10396933  0.89352691  1
  Sn  Sn8  1  0.24460713  0.89603067  0.10647309  1
  Sn  Sn9  1  0.11559003  0.29569547  0.32085903  1
  Sn  Sn10  1  0.29569547  0.11559003  0.82085903  1
  Sn  Sn11  1  0.88440997  0.70430453  0.67914097  1
  Sn  Sn12  1  0.75420378  0.53766863  0.96919936  1
  Sn  Sn13  1  0.24579622  0.46233137  0.03080064  1
  F  F14  1  0.39325718  0.13240212  0.40713262  1
  F  F15  1  0.18467904  0.49707889  0.45547855  1
  F  F16  1  0.86759788  0.60674282  0.09286738  1
  F  F17  1  0.98893021  0.71001006  0.25128636  1
  F  F18  1  0.13240212  0.39325718  0.90713262  1
  F  F19  1  0.50292111  0.81532096  0.04452145  1
  F  F20  1  0.43664591  0.42555767  0.79256769  1
  F  F21  1  0.28998994  0.01106979  0.24871364  1
  F  F22  1  0.37434542  0.70161686  0.91017971  1
  F  F23  1  0.62565458  0.29838314  0.08982029  1
  F  F24  1  0.70161686  0.37434542  0.41017971  1
  F  F25  1  0.28700253  0.27148243  0.65867459  1
  F  F26  1  0.81532096  0.50292111  0.54452145  1
  F  F27  1  0.71001006  0.98893021  0.75128636  1
  F  F28  1  0.08948680  0.77407187  0.79676474  1
  F  F29  1  0.01106979  0.28998994  0.74871364  1
  F  F30  1  0.71299747  0.72851757  0.34132541  1
  F  F31  1  0.77407187  0.08948680  0.29676474  1
  F  F32  1  0.22592813  0.91051320  0.70323526  1
  F  F33  1  0.49707889  0.18467904  0.95547855  1
  F  F34  1  0.72851757  0.71299747  0.84132541  1
  F  F35  1  0.13869437  0.11956202  0.98616146  1
  F  F36  1  0.29838314  0.62565458  0.58982029  1
  F  F37  1  0.11956202  0.13869437  0.48616146  1
  F  F38  1  0.88043798  0.86130563  0.51383854  1
  F  F39  1  0.57444233  0.56335409  0.70743231  1
  F  F40  1  0.91051320  0.22592813  0.20323526  1
  F  F41  1  0.42555767  0.43664591  0.29256769  1
  F  F42  1  0.56335409  0.57444233  0.20743231  1
  F  F43  1  0.27148243  0.28700253  0.15867459  1
  F  F44  1  0.60674282  0.86759788  0.59286738  1
  F  F45  1  0.86130563  0.88043798  0.01383854  1
