# generated using pymatgen
data_Cs2DyCl5
_symmetry_space_group_name_H-M   'P 1'
_cell_length_a   7.48892965
_cell_length_b   9.56008240
_cell_length_c   15.32182926
_cell_angle_alpha   90.00000000
_cell_angle_beta   90.00000000
_cell_angle_gamma   90.00000000
_symmetry_Int_Tables_number   1
_chemical_formula_structural   Cs2DyCl5
_chemical_formula_sum   'Cs8 Dy4 Cl20'
_cell_volume   1096.96306466
_cell_formula_units_Z   4
loop_
 _symmetry_equiv_pos_site_id
 _symmetry_equiv_pos_as_xyz
  1  'x, y, z'
loop_
 _atom_site_type_symbol
 _atom_site_label
 _atom_site_symmetry_multiplicity
 _atom_site_fract_x
 _atom_site_fract_y
 _atom_site_fract_z
 _atom_site_occupancy
  Cs  Cs0  1  0.25000000  0.47381543  0.28901886  1
  Cs  Cs1  1  0.75000000  0.52618457  0.71098114  1
  Cs  Cs2  1  0.25000000  0.97381543  0.21098114  1
  Cs  Cs3  1  0.75000000  0.02618457  0.78901886  1
  Cs  Cs4  1  0.75000000  0.33398770  0.08388963  1
  Cs  Cs5  1  0.25000000  0.66601230  0.91611037  1
  Cs  Cs6  1  0.75000000  0.83398770  0.41611037  1
  Cs  Cs7  1  0.25000000  0.16601230  0.58388963  1
  Dy  Dy8  1  0.75000000  0.32032854  0.43412474  1
  Dy  Dy9  1  0.25000000  0.67967146  0.56587526  1
  Dy  Dy10  1  0.75000000  0.82032854  0.06587526  1
  Dy  Dy11  1  0.25000000  0.17967146  0.93412474  1
  Cl  Cl12  1  0.50000000  0.50000000  0.50000000  1
  Cl  Cl13  1  -0.00000000  0.50000000  0.50000000  1
  Cl  Cl14  1  -0.00000000  0.00000000  0.00000000  1
  Cl  Cl15  1  0.50000000  0.00000000  0.00000000  1
  Cl  Cl16  1  0.00560449  0.16376883  0.38090112  1
  Cl  Cl17  1  0.50560449  0.83623117  0.61909888  1
  Cl  Cl18  1  0.49439551  0.66376883  0.11909888  1
  Cl  Cl19  1  0.99439551  0.33623117  0.88090112  1
  Cl  Cl20  1  0.99439551  0.83623117  0.61909888  1
  Cl  Cl21  1  0.49439551  0.16376883  0.38090112  1
  Cl  Cl22  1  0.50560449  0.33623117  0.88090112  1
  Cl  Cl23  1  0.00560449  0.66376883  0.11909888  1
  Cl  Cl24  1  0.25000000  0.29041181  0.09188712  1
  Cl  Cl25  1  0.75000000  0.70958819  0.90811288  1
  Cl  Cl26  1  0.25000000  0.79041181  0.40811288  1
  Cl  Cl27  1  0.75000000  0.20958819  0.59188712  1
  Cl  Cl28  1  0.75000000  0.48184256  0.29831130  1
  Cl  Cl29  1  0.25000000  0.51815744  0.70168870  1
  Cl  Cl30  1  0.75000000  0.98184256  0.20168870  1
  Cl  Cl31  1  0.25000000  0.01815744  0.79831130  1
