# generated using pymatgen
data_P
_symmetry_space_group_name_H-M   'P 1'
_cell_length_a   9.20884424
_cell_length_b   9.24090739
_cell_length_c   22.96251980
_cell_angle_alpha   97.98442996
_cell_angle_beta   90.00000000
_cell_angle_gamma   90.00000000
_symmetry_Int_Tables_number   1
_chemical_formula_structural   P
_chemical_formula_sum   P84
_cell_volume   1935.12326685
_cell_formula_units_Z   84
loop_
 _symmetry_equiv_pos_site_id
 _symmetry_equiv_pos_as_xyz
  1  'x, y, z'
loop_
 _atom_site_type_symbol
 _atom_site_label
 _atom_site_symmetry_multiplicity
 _atom_site_fract_x
 _atom_site_fract_y
 _atom_site_fract_z
 _atom_site_occupancy
  P  P0  1  0.60892629  0.96591206  0.92192386  1
  P  P1  1  0.59385099  0.20090612  0.95154074  1
  P  P2  1  0.20000314  0.62032188  0.32129207  1
  P  P3  1  0.83763744  0.55126367  0.55066010  1
  P  P4  1  0.35608029  0.02193903  0.53533628  1
  P  P5  1  0.86157823  0.71130065  0.92098910  1
  P  P6  1  0.21646281  0.69422946  0.61698236  1
  P  P7  1  0.67847507  0.11931070  0.33022396  1
  P  P8  1  0.61597113  0.52844926  0.67339418  1
  P  P9  1  0.90077863  0.81366056  0.67447107  1
  P  P10  1  0.36521365  0.25770657  0.56678075  1
  P  P11  1  0.03428510  0.94611248  0.11783664  1
  P  P12  1  0.05346194  0.86807133  0.82163786  1
  P  P13  1  0.20000314  0.87967812  0.17870793  1
  P  P14  1  0.54954649  0.39262853  0.83138397  1
  P  P15  1  0.68423844  0.75390168  0.70294297  1
  P  P16  1  0.86157823  0.78869935  0.57901090  1
  P  P17  1  0.09922137  0.18633944  0.32552893  1
  P  P18  1  0.35608029  0.47806097  0.96466372  1
  P  P19  1  0.64391971  0.52193903  0.03533628  1
  P  P20  1  0.96571490  0.05388752  0.88216336  1
  P  P21  1  0.13226525  0.46903993  0.93105810  1
  P  P22  1  0.03428510  0.55388752  0.38216336  1
  P  P23  1  0.48552348  0.91949622  0.60425347  1
  P  P24  1  0.94653806  0.36807133  0.32163786  1
  P  P25  1  0.28027470  0.80547059  0.38316225  1
  P  P26  1  0.94653806  0.13192867  0.17836214  1
  P  P27  1  0.45045351  0.89262853  0.33138397  1
  P  P28  1  0.39107371  0.03408794  0.07807614  1
  P  P29  1  0.38402887  0.02844926  0.17339418  1
  P  P30  1  0.59385099  0.29909388  0.54845926  1
  P  P31  1  0.86773475  0.96903993  0.43105810  1
  P  P32  1  0.45045351  0.60737147  0.16861603  1
  P  P33  1  0.71972530  0.30547059  0.88316225  1
  P  P34  1  0.96571490  0.44611248  0.61783664  1
  P  P35  1  0.35449105  0.24850109  0.66342171  1
  P  P36  1  0.64550895  0.75149891  0.33657829  1
  P  P37  1  0.13226525  0.03095907  0.56894190  1
  P  P38  1  0.86773475  0.53096007  0.06894190  1
  P  P39  1  0.17859019  0.42547336  0.83502310  1
  P  P40  1  0.39107371  0.46591206  0.42192386  1
  P  P41  1  0.83763744  0.94873633  0.94933990  1
  P  P42  1  0.31576156  0.24609832  0.29705703  1
  P  P43  1  0.82140981  0.92547336  0.33502310  1
  P  P44  1  0.16236256  0.05126367  0.05066010  1
  P  P45  1  0.64550895  0.74850109  0.16342171  1
  P  P46  1  0.36521365  0.24229343  0.93321925  1
  P  P47  1  0.40614901  0.70090612  0.45154074  1
  P  P48  1  0.67847507  0.38068930  0.16977604  1
  P  P49  1  0.40614901  0.79909388  0.04845926  1
  P  P50  1  0.21646281  0.80577054  0.88301764  1
  P  P51  1  0.78353719  0.30577054  0.38301764  1
  P  P52  1  0.79999686  0.12032188  0.82129207  1
  P  P53  1  0.32152493  0.88068930  0.66977604  1
  P  P54  1  0.64391971  0.97806097  0.46466372  1
  P  P55  1  0.68423844  0.74609832  0.79705703  1
  P  P56  1  0.48552348  0.58050378  0.89574653  1
  P  P57  1  0.78353719  0.19422946  0.11698236  1
  P  P58  1  0.35449105  0.25149891  0.83657829  1
  P  P59  1  0.28027470  0.69452941  0.11683775  1
  P  P60  1  0.09922137  0.31366056  0.17447107  1
  P  P61  1  0.71972530  0.19452941  0.61683775  1
  P  P62  1  0.54954649  0.10737147  0.66861603  1
  P  P63  1  0.91347020  0.20295740  0.45085405  1
  P  P64  1  0.63478635  0.75770657  0.06678075  1
  P  P65  1  0.31576156  0.25390168  0.20294297  1
  P  P66  1  0.32152493  0.61931070  0.83022396  1
  P  P67  1  0.61597113  0.97155074  0.82660582  1
  P  P68  1  0.08652980  0.70295740  0.95085405  1
  P  P69  1  0.63478635  0.74229343  0.43321925  1
  P  P70  1  0.90077863  0.68633944  0.82552893  1
  P  P71  1  0.17859019  0.07452664  0.66497690  1
  P  P72  1  0.13842177  0.28869935  0.07901090  1
  P  P73  1  0.51447652  0.41949722  0.10425347  1
  P  P74  1  0.51447652  0.08050278  0.39574653  1
  P  P75  1  0.08652980  0.79704260  0.54914595  1
  P  P76  1  0.13842177  0.21130065  0.42098910  1
  P  P77  1  0.82140981  0.57452664  0.16497690  1
  P  P78  1  0.16236256  0.44873633  0.44933990  1
  P  P79  1  0.91347020  0.29704260  0.04914595  1
  P  P80  1  0.38402887  0.47155074  0.32660582  1
  P  P81  1  0.05346194  0.63192867  0.67836214  1
  P  P82  1  0.79999686  0.37967812  0.67870793  1
  P  P83  1  0.60892629  0.53408794  0.57807614  1
