# generated using pymatgen
data_S
_symmetry_space_group_name_H-M   'P 1'
_cell_length_a   9.03526515
_cell_length_b   9.71228958
_cell_length_c   11.03208279
_cell_angle_alpha   116.11560568
_cell_angle_beta   99.61079949
_cell_angle_gamma   90.00000236
_symmetry_Int_Tables_number   1
_chemical_formula_structural   S
_chemical_formula_sum   S32
_cell_volume   854.10551568
_cell_formula_units_Z   32
loop_
 _symmetry_equiv_pos_site_id
 _symmetry_equiv_pos_as_xyz
  1  'x, y, z'
loop_
 _atom_site_type_symbol
 _atom_site_label
 _atom_site_symmetry_multiplicity
 _atom_site_fract_x
 _atom_site_fract_y
 _atom_site_fract_z
 _atom_site_occupancy
  S  S0  1  0.14983172  0.03896007  0.91343807  1
  S  S1  1  0.29738428  0.41114584  0.92223220  1
  S  S2  1  0.03232458  0.76127955  0.39559378  1
  S  S3  1  0.06765307  0.55569144  0.24040555  1
  S  S4  1  0.25382652  0.46077659  0.29492169  1
  S  S5  1  0.31576303  0.45006250  0.59529065  1
  S  S6  1  0.43234693  0.81528589  0.75959445  1
  S  S7  1  0.68423697  0.54993750  0.40470935  1
  S  S8  1  0.75382652  0.33414510  0.29492169  1
  S  S9  1  0.56765307  0.18471411  0.24040555  1
  S  S10  1  0.74617348  0.53922341  0.70507831  1
  S  S11  1  0.35016828  0.62552400  0.08656193  1
  S  S12  1  0.20261572  0.98891364  0.07776780  1
  S  S13  1  0.53046260  0.71352759  0.04233149  1
  S  S14  1  0.85016828  0.96103993  0.08656193  1
  S  S15  1  0.93234693  0.44430856  0.75959445  1
  S  S16  1  0.96953740  0.17119610  0.95766851  1
  S  S17  1  0.64983172  0.37447600  0.91343807  1
  S  S18  1  0.24617348  0.66585490  0.70507831  1
  S  S19  1  0.70261572  0.58885416  0.07776780  1
  S  S20  1  0.68700664  0.97911052  0.40346035  1
  S  S21  1  0.81576303  0.64522714  0.59529065  1
  S  S22  1  0.03046260  0.82880390  0.04233149  1
  S  S23  1  0.18423697  0.35477286  0.40470935  1
  S  S24  1  0.31299336  0.02088948  0.59653965  1
  S  S25  1  0.79738428  0.01108636  0.92223220  1
  S  S26  1  0.53232458  0.13431523  0.39559378  1
  S  S27  1  0.81299336  0.07565217  0.59653965  1
  S  S28  1  0.46953740  0.28647241  0.95766851  1
  S  S29  1  0.46767542  0.86568477  0.60440622  1
  S  S30  1  0.96767542  0.23872045  0.60440622  1
  S  S31  1  0.18700664  0.92434783  0.40346035  1
