# generated using pymatgen
data_Nb3Se10Br3
_symmetry_space_group_name_H-M   'P 1'
_cell_length_a   19.53816402
_cell_length_b   7.62544287
_cell_length_c   12.49820511
_cell_angle_alpha   83.99583380
_cell_angle_beta   90.00000000
_cell_angle_gamma   90.00000000
_symmetry_Int_Tables_number   1
_chemical_formula_structural   Nb3Se10Br3
_chemical_formula_sum   'Nb12 Se40 Br12'
_cell_volume   1851.85721903
_cell_formula_units_Z   4
loop_
 _symmetry_equiv_pos_site_id
 _symmetry_equiv_pos_as_xyz
  1  'x, y, z'
loop_
 _atom_site_type_symbol
 _atom_site_label
 _atom_site_symmetry_multiplicity
 _atom_site_fract_x
 _atom_site_fract_y
 _atom_site_fract_z
 _atom_site_occupancy
  Nb  Nb0  1  0.85156911  0.66027239  0.33042873  1
  Nb  Nb1  1  0.00010342  0.74785913  0.24913062  1
  Nb  Nb2  1  0.50010342  0.25214087  0.75086938  1
  Nb  Nb3  1  0.14825201  0.82167273  0.16384553  1
  Nb  Nb4  1  0.49989658  0.74785913  0.24913062  1
  Nb  Nb5  1  0.35174799  0.82167273  0.16384553  1
  Nb  Nb6  1  0.99989658  0.25214087  0.75086938  1
  Nb  Nb7  1  0.64843089  0.66027239  0.33042873  1
  Nb  Nb8  1  0.35156911  0.33972761  0.66957127  1
  Nb  Nb9  1  0.14843089  0.33972761  0.66957127  1
  Nb  Nb10  1  0.85174799  0.17832727  0.83615447  1
  Nb  Nb11  1  0.64825201  0.17832727  0.83615447  1
  Se  Se12  1  0.58638256  0.96219001  0.34415737  1
  Se  Se13  1  0.60863755  0.71033768  0.12622264  1
  Se  Se14  1  0.25000000  0.09962291  0.71889151  1
  Se  Se15  1  0.08782645  0.99427218  0.30821375  1
  Se  Se16  1  0.75000000  0.90037709  0.28110849  1
  Se  Se17  1  0.54338060  0.95640244  0.86431917  1
  Se  Se18  1  0.75000000  0.13523432  0.69242388  1
  Se  Se19  1  0.08638256  0.03780999  0.65584263  1
  Se  Se20  1  0.41361744  0.03780999  0.65584263  1
  Se  Se21  1  0.25000000  0.22854534  0.54250000  1
  Se  Se22  1  0.60771884  0.46055403  0.70900741  1
  Se  Se23  1  0.89136245  0.71033768  0.12622264  1
  Se  Se24  1  0.54183129  0.72462156  0.45303610  1
  Se  Se25  1  0.25000000  0.06804812  0.15587965  1
  Se  Se26  1  0.57184256  0.42870945  0.89095733  1
  Se  Se27  1  0.58782645  0.00572782  0.69178625  1
  Se  Se28  1  0.92683168  0.45092087  0.23237933  1
  Se  Se29  1  0.10863755  0.28966232  0.87377736  1
  Se  Se30  1  0.42683168  0.54907913  0.76762067  1
  Se  Se31  1  0.07184256  0.57129055  0.10904267  1
  Se  Se32  1  0.04183129  0.27537844  0.54696390  1
  Se  Se33  1  0.10771884  0.53944597  0.29099259  1
  Se  Se34  1  0.75000000  0.93195188  0.84412035  1
  Se  Se35  1  0.42815744  0.57129055  0.10904267  1
  Se  Se36  1  0.25000000  0.86476568  0.30757612  1
  Se  Se37  1  0.57316832  0.45092087  0.23237933  1
  Se  Se38  1  0.91217355  0.00572782  0.69178625  1
  Se  Se39  1  0.41217355  0.99427218  0.30821375  1
  Se  Se40  1  0.92815744  0.42870945  0.89095733  1
  Se  Se41  1  0.04338060  0.04359756  0.13568083  1
  Se  Se42  1  0.95816871  0.72462156  0.45303610  1
  Se  Se43  1  0.07316832  0.54907913  0.76762067  1
  Se  Se44  1  0.89228116  0.46055403  0.70900741  1
  Se  Se45  1  0.75000000  0.77145466  0.45750000  1
  Se  Se46  1  0.45661940  0.04359756  0.13568083  1
  Se  Se47  1  0.39136245  0.28966232  0.87377736  1
  Se  Se48  1  0.95661940  0.95640244  0.86431917  1
  Se  Se49  1  0.39228116  0.53944597  0.29099259  1
  Se  Se50  1  0.45816871  0.27537844  0.54696390  1
  Se  Se51  1  0.91361744  0.96219001  0.34415737  1
  Br  Br52  1  0.64957765  0.37411509  0.47955859  1
  Br  Br53  1  0.14957765  0.62588491  0.52044141  1
  Br  Br54  1  0.25000000  0.60254672  0.10668246  1
  Br  Br55  1  0.35142644  0.90153763  0.94701595  1
  Br  Br56  1  0.35042235  0.62588491  0.52044141  1
  Br  Br57  1  0.75000000  0.46604839  0.25000999  1
  Br  Br58  1  0.64857356  0.09846237  0.05298405  1
  Br  Br59  1  0.25000000  0.53395161  0.74999001  1
  Br  Br60  1  0.75000000  0.39745328  0.89331754  1
  Br  Br61  1  0.85142644  0.09846237  0.05298405  1
  Br  Br62  1  0.85042235  0.37411509  0.47955859  1
  Br  Br63  1  0.14857356  0.90153763  0.94701595  1
