# generated using pymatgen
data_Sr2I2O
_symmetry_space_group_name_H-M   'P 1'
_cell_length_a   6.52888106
_cell_length_b   7.55517505
_cell_length_c   8.21463487
_cell_angle_alpha   117.31288316
_cell_angle_beta   113.24516072
_cell_angle_gamma   90.00405509
_symmetry_Int_Tables_number   1
_chemical_formula_structural   Sr2I2O
_chemical_formula_sum   'Sr4 I4 O2'
_cell_volume   322.55456192
_cell_formula_units_Z   2
loop_
 _symmetry_equiv_pos_site_id
 _symmetry_equiv_pos_as_xyz
  1  'x, y, z'
loop_
 _atom_site_type_symbol
 _atom_site_label
 _atom_site_symmetry_multiplicity
 _atom_site_fract_x
 _atom_site_fract_y
 _atom_site_fract_z
 _atom_site_occupancy
  Sr  Sr0  1  0.91106570  0.58190936  0.82156295  1
  Sr  Sr1  1  0.08893530  0.41809164  0.17843805  1
  Sr  Sr2  1  0.58878840  0.76000240  0.17824676  1
  Sr  Sr3  1  0.41121160  0.23999660  0.82175324  1
  I  I4  1  0.34969612  0.70131691  0.69925436  1
  I  I5  1  0.84986545  0.99877872  0.69922675  1
  I  I6  1  0.65030388  0.29868309  0.30074564  1
  I  I7  1  0.15013555  0.00122228  0.30077425  1
  O  O8  1  0.25005608  0.50008194  0.00001979  1
  O  O9  1  0.74994392  0.49991806  0.99998021  1
