# generated using pymatgen
data_CaMn4(SiO3)5
_symmetry_space_group_name_H-M   'P 1'
_cell_length_a   6.70790258
_cell_length_b   7.71127660
_cell_length_c   11.81953493
_cell_angle_alpha   105.44974463
_cell_angle_beta   92.41347184
_cell_angle_gamma   93.74366062
_symmetry_Int_Tables_number   1
_chemical_formula_structural   CaMn4(SiO3)5
_chemical_formula_sum   'Ca2 Mn8 Si10 O30'
_cell_volume   586.90654953
_cell_formula_units_Z   2
loop_
 _symmetry_equiv_pos_site_id
 _symmetry_equiv_pos_as_xyz
  1  'x, y, z'
loop_
 _atom_site_type_symbol
 _atom_site_label
 _atom_site_symmetry_multiplicity
 _atom_site_fract_x
 _atom_site_fract_y
 _atom_site_fract_z
 _atom_site_occupancy
  Ca  Ca0  1  0.63536155  0.04661077  0.69192500  1
  Ca  Ca1  1  0.36463845  0.95338923  0.30807500  1
  Mn  Mn2  1  0.03317215  0.11727748  0.14794471  1
  Mn  Mn3  1  0.12477946  0.31732976  0.44447230  1
  Mn  Mn4  1  0.80040709  0.30506491  0.97851700  1
  Mn  Mn5  1  0.19959291  0.69493509  0.02148300  1
  Mn  Mn6  1  0.81408789  0.49248086  0.27115938  1
  Mn  Mn7  1  0.96682785  0.88272252  0.85205529  1
  Mn  Mn8  1  0.87522054  0.68267024  0.55552770  1
  Mn  Mn9  1  0.18591211  0.50751914  0.72884062  1
  Si  Si10  1  0.29175738  0.53779404  0.26065414  1
  Si  Si11  1  0.49829840  0.22062344  0.12502958  1
  Si  Si12  1  0.84444152  0.92670678  0.34627031  1
  Si  Si13  1  0.15555848  0.07329322  0.65372969  1
  Si  Si14  1  0.75289377  0.74582735  0.08981694  1
  Si  Si15  1  0.50170160  0.77937656  0.87497042  1
  Si  Si16  1  0.24710623  0.25417265  0.91018306  1
  Si  Si17  1  0.63771983  0.27085241  0.47050536  1
  Si  Si18  1  0.70824262  0.46220596  0.73934586  1
  Si  Si19  1  0.36228017  0.72914759  0.52949464  1
  O  O20  1  0.30218080  0.94391948  0.56421727  1
  O  O21  1  0.88676506  0.75177014  0.38985270  1
  O  O22  1  0.10515889  0.39854266  0.26818900  1
  O  O23  1  0.25347137  0.67205537  0.18162601  1
  O  O24  1  0.26314400  0.79937901  0.86899120  1
  O  O25  1  0.30138113  0.13696684  0.77746188  1
  O  O26  1  0.63244921  0.31757371  0.61350036  1
  O  O27  1  0.96265792  0.95370478  0.67687005  1
  O  O28  1  0.11323494  0.24822986  0.61014730  1
  O  O29  1  0.41759568  0.25924399  0.41251520  1
  O  O30  1  0.05941167  0.15628849  0.95919116  1
  O  O31  1  0.69861887  0.86303316  0.22253812  1
  O  O32  1  0.80992396  0.40096159  0.43572259  1
  O  O33  1  0.89484111  0.60145734  0.73181100  1
  O  O34  1  0.03734208  0.04629522  0.32312995  1
  O  O35  1  0.94058833  0.84371151  0.04080884  1
  O  O36  1  0.19007604  0.59903841  0.56427741  1
  O  O37  1  0.58240432  0.74075601  0.58748480  1
  O  O38  1  0.80780737  0.55142432  0.10079100  1
  O  O39  1  0.44766831  0.25826108  0.99547886  1
  O  O40  1  0.55233169  0.74173892  0.00452114  1
  O  O41  1  0.19219263  0.44857568  0.89920900  1
  O  O42  1  0.51482103  0.57948740  0.77900188  1
  O  O43  1  0.74652863  0.32794463  0.81837399  1
  O  O44  1  0.69781920  0.05608052  0.43578273  1
  O  O45  1  0.65855984  0.92948755  0.85250332  1
  O  O46  1  0.36755079  0.68242629  0.38649964  1
  O  O47  1  0.48517897  0.42051260  0.22099812  1
  O  O48  1  0.73685600  0.20062099  0.13100880  1
  O  O49  1  0.34144016  0.07051245  0.14749668  1
