# generated using pymatgen
data_KLaCr2O8
_symmetry_space_group_name_H-M   'P 1'
_cell_length_a   7.47950005
_cell_length_b   8.68040714
_cell_length_c   11.04350584
_cell_angle_alpha   87.46347003
_cell_angle_beta   90.00000000
_cell_angle_gamma   90.00000000
_symmetry_Int_Tables_number   1
_chemical_formula_structural   KLaCr2O8
_chemical_formula_sum   'K4 La4 Cr8 O32'
_cell_volume   716.29827208
_cell_formula_units_Z   4
loop_
 _symmetry_equiv_pos_site_id
 _symmetry_equiv_pos_as_xyz
  1  'x, y, z'
loop_
 _atom_site_type_symbol
 _atom_site_label
 _atom_site_symmetry_multiplicity
 _atom_site_fract_x
 _atom_site_fract_y
 _atom_site_fract_z
 _atom_site_occupancy
  K  K0  1  0.15322819  0.43113305  0.83701354  1
  K  K1  1  0.65322819  0.56886695  0.66298646  1
  K  K2  1  0.84677181  0.56886695  0.16298646  1
  K  K3  1  0.34677181  0.43113305  0.33701354  1
  La  La4  1  0.83735245  0.05997846  0.65544230  1
  La  La5  1  0.33735245  0.94002154  0.84455770  1
  La  La6  1  0.16264755  0.94002154  0.34455770  1
  La  La7  1  0.66264755  0.05997846  0.15544230  1
  Cr  Cr8  1  0.66584851  0.28508379  0.91126240  1
  Cr  Cr9  1  0.16584851  0.71491621  0.58873760  1
  Cr  Cr10  1  0.33415149  0.71491621  0.08873760  1
  Cr  Cr11  1  0.83415149  0.28508379  0.41126240  1
  Cr  Cr12  1  0.83768982  0.80522161  0.89381266  1
  Cr  Cr13  1  0.33768982  0.19477839  0.60618734  1
  Cr  Cr14  1  0.16231018  0.19477839  0.10618734  1
  Cr  Cr15  1  0.66231018  0.80522161  0.39381266  1
  O  O16  1  0.82152739  0.26416099  0.80616469  1
  O  O17  1  0.32152739  0.73583901  0.69383531  1
  O  O18  1  0.17847261  0.73583901  0.19383531  1
  O  O19  1  0.67847261  0.26416099  0.30616469  1
  O  O20  1  0.56161175  0.11678629  0.93766585  1
  O  O21  1  0.06161175  0.88321371  0.56233415  1
  O  O22  1  0.43838825  0.88321371  0.06233415  1
  O  O23  1  0.93838825  0.11678629  0.43766585  1
  O  O24  1  0.75430905  0.31134687  0.04543031  1
  O  O25  1  0.25430905  0.68865313  0.45456969  1
  O  O26  1  0.24569095  0.68865313  0.95456969  1
  O  O27  1  0.74569095  0.31134687  0.54543031  1
  O  O28  1  0.52534647  0.41800577  0.86993784  1
  O  O29  1  0.02534647  0.58199423  0.63006216  1
  O  O30  1  0.47465353  0.58199423  0.13006216  1
  O  O31  1  0.97465353  0.41800577  0.36993784  1
  O  O32  1  0.66020214  0.85273513  0.80881246  1
  O  O33  1  0.16020214  0.14726487  0.69118754  1
  O  O34  1  0.33979786  0.14726487  0.19118754  1
  O  O35  1  0.83979786  0.85273513  0.30881246  1
  O  O36  1  0.00322463  0.90293023  0.82262519  1
  O  O37  1  0.50322463  0.09706977  0.67737481  1
  O  O38  1  0.99677537  0.09706977  0.17737481  1
  O  O39  1  0.49677537  0.90293023  0.32262519  1
  O  O40  1  0.86788409  0.62159783  0.89494228  1
  O  O41  1  0.36788409  0.37840217  0.60505772  1
  O  O42  1  0.13211591  0.37840217  0.10505772  1
  O  O43  1  0.63211591  0.62159783  0.39494228  1
  O  O44  1  0.81370720  0.85950558  0.03324150  1
  O  O45  1  0.31370720  0.14049442  0.46675850  1
  O  O46  1  0.18629280  0.14049442  0.96675850  1
  O  O47  1  0.68629280  0.85950558  0.53324150  1
