# generated using pymatgen
data_SbF4
_symmetry_space_group_name_H-M   'P 1'
_cell_length_a   11.93503364
_cell_length_b   9.27435759
_cell_length_c   11.57642252
_cell_angle_alpha   72.80936813
_cell_angle_beta   90.00000000
_cell_angle_gamma   90.00000000
_symmetry_Int_Tables_number   1
_chemical_formula_structural   SbF4
_chemical_formula_sum   'Sb16 F64'
_cell_volume   1224.14755395
_cell_formula_units_Z   16
loop_
 _symmetry_equiv_pos_site_id
 _symmetry_equiv_pos_as_xyz
  1  'x, y, z'
loop_
 _atom_site_type_symbol
 _atom_site_label
 _atom_site_symmetry_multiplicity
 _atom_site_fract_x
 _atom_site_fract_y
 _atom_site_fract_z
 _atom_site_occupancy
  Sb  Sb0  1  0.57544633  0.24237441  0.55739511  1
  Sb  Sb1  1  0.07544633  0.75762559  0.94260489  1
  Sb  Sb2  1  0.66080799  0.77444148  0.04295104  1
  Sb  Sb3  1  0.90503689  0.19515471  0.70795546  1
  Sb  Sb4  1  0.92455367  0.24237441  0.05739511  1
  Sb  Sb5  1  0.84609964  0.39570903  0.34938210  1
  Sb  Sb6  1  0.83919201  0.77444148  0.54295104  1
  Sb  Sb7  1  0.33919201  0.22555852  0.95704896  1
  Sb  Sb8  1  0.59496311  0.19515471  0.20795546  1
  Sb  Sb9  1  0.34609964  0.60429097  0.15061790  1
  Sb  Sb10  1  0.42455367  0.75762559  0.44260489  1
  Sb  Sb11  1  0.40503689  0.80484529  0.79204454  1
  Sb  Sb12  1  0.16080799  0.22555852  0.45704896  1
  Sb  Sb13  1  0.65390036  0.39570903  0.84938210  1
  Sb  Sb14  1  0.15390036  0.60429097  0.65061790  1
  Sb  Sb15  1  0.09496311  0.80484529  0.29204454  1
  F  F16  1  0.41864258  0.64643330  0.32573953  1
  F  F17  1  0.68817859  0.62595622  0.96494540  1
  F  F18  1  0.79343431  0.13849283  0.12927111  1
  F  F19  1  0.88846810  0.34333730  0.54097205  1
  F  F20  1  0.45158737  0.35728762  0.48748064  1
  F  F21  1  0.07767450  0.85822168  0.06384890  1
  F  F22  1  0.11894879  0.08250243  0.37951573  1
  F  F23  1  0.81182141  0.62595622  0.46494540  1
  F  F24  1  0.57767450  0.14177832  0.43615110  1
  F  F25  1  0.02093016  0.32755714  0.72914833  1
  F  F26  1  0.67664505  0.38911608  0.45631191  1
  F  F27  1  0.47906984  0.32755714  0.22914833  1
  F  F28  1  0.32335495  0.61088392  0.54368809  1
  F  F29  1  0.65916538  0.18146315  0.89835127  1
  F  F30  1  0.38105121  0.08250243  0.87951573  1
  F  F31  1  0.05593453  0.13653999  0.58509276  1
  F  F32  1  0.49042195  0.08934435  0.66252295  1
  F  F33  1  0.77820980  0.89407428  0.95949383  1
  F  F34  1  0.50957805  0.91065565  0.33747705  1
  F  F35  1  0.27820980  0.10592572  0.54050617  1
  F  F36  1  0.84083462  0.18146315  0.39835127  1
  F  F37  1  0.58135742  0.35356670  0.67426047  1
  F  F38  1  0.94406547  0.86346001  0.41490724  1
  F  F39  1  0.29851194  0.65149056  0.75732434  1
  F  F40  1  0.00957805  0.08934435  0.16252295  1
  F  F41  1  0.17664505  0.61088392  0.04368809  1
  F  F42  1  0.15916538  0.81853685  0.60164873  1
  F  F43  1  0.96409975  0.64926177  0.62743371  1
  F  F44  1  0.22179020  0.10592572  0.04050617  1
  F  F45  1  0.72179020  0.89407428  0.45949383  1
  F  F46  1  0.70656569  0.13849283  0.62927111  1
  F  F47  1  0.61894879  0.91749757  0.12048427  1
  F  F48  1  0.75079013  0.67076295  0.17529376  1
  F  F49  1  0.42232550  0.85822168  0.56384890  1
  F  F50  1  0.52093016  0.67244286  0.77085167  1
  F  F51  1  0.29343431  0.86150717  0.37072889  1
  F  F52  1  0.92232550  0.14177832  0.93615110  1
  F  F53  1  0.11153190  0.65666270  0.45902795  1
  F  F54  1  0.88105121  0.91749757  0.62048427  1
  F  F55  1  0.97906984  0.67244286  0.27085167  1
  F  F56  1  0.31182141  0.37404378  0.03505460  1
  F  F57  1  0.34083462  0.81853685  0.10164873  1
  F  F58  1  0.54841263  0.64271238  0.51251936  1
  F  F59  1  0.04841263  0.35728762  0.98748064  1
  F  F60  1  0.18817859  0.37404378  0.53505460  1
  F  F61  1  0.82335495  0.38911608  0.95631191  1
  F  F62  1  0.55593453  0.86346001  0.91490724  1
  F  F63  1  0.24920987  0.32923705  0.82470624  1
  F  F64  1  0.25079013  0.32923705  0.32470624  1
  F  F65  1  0.70148806  0.34850944  0.24267566  1
  F  F66  1  0.61153190  0.34333730  0.04097205  1
  F  F67  1  0.99042195  0.91065565  0.83747705  1
  F  F68  1  0.46409975  0.35073823  0.87256629  1
  F  F69  1  0.95158737  0.64271238  0.01251936  1
  F  F70  1  0.53590025  0.64926177  0.12743371  1
  F  F71  1  0.74920987  0.67076295  0.67529376  1
  F  F72  1  0.44406547  0.13653999  0.08509276  1
  F  F73  1  0.79851194  0.34850944  0.74267566  1
  F  F74  1  0.03590025  0.35073823  0.37256629  1
  F  F75  1  0.91864258  0.35356670  0.17426047  1
  F  F76  1  0.38846810  0.65666270  0.95902795  1
  F  F77  1  0.08135742  0.64643330  0.82573953  1
  F  F78  1  0.20656569  0.86150717  0.87072889  1
  F  F79  1  0.20148806  0.65149056  0.25732434  1
