# generated using pymatgen
data_Na2Th(PO4)2
_symmetry_space_group_name_H-M   'P 1'
_cell_length_a   6.99375038
_cell_length_b   9.04246469
_cell_length_c   11.40557482
_cell_angle_alpha   83.61875118
_cell_angle_beta   72.13926562
_cell_angle_gamma   68.81077704
_symmetry_Int_Tables_number   1
_chemical_formula_structural   Na2Th(PO4)2
_chemical_formula_sum   'Na8 Th4 P8 O32'
_cell_volume   640.11860442
_cell_formula_units_Z   4
loop_
 _symmetry_equiv_pos_site_id
 _symmetry_equiv_pos_as_xyz
  1  'x, y, z'
loop_
 _atom_site_type_symbol
 _atom_site_label
 _atom_site_symmetry_multiplicity
 _atom_site_fract_x
 _atom_site_fract_y
 _atom_site_fract_z
 _atom_site_occupancy
  Na  Na0  1  0.70347467  0.45659040  0.37886251  1
  Na  Na1  1  0.31067388  0.99773950  0.12506737  1
  Na  Na2  1  0.91583718  0.04443777  0.37854273  1
  Na  Na3  1  0.56384916  0.50236085  0.12486061  1
  Na  Na4  1  0.68932650  0.00225981  0.87493275  1
  Na  Na5  1  0.08416304  0.95556249  0.62145720  1
  Na  Na6  1  0.29652526  0.54340974  0.62113745  1
  Na  Na7  1  0.43615237  0.49763833  0.87513898  1
  Th  Th8  1  0.92686524  0.74997055  0.14621366  1
  Th  Th9  1  0.07313533  0.25002930  0.85378603  1
  Th  Th10  1  0.29627398  0.24998601  0.40710681  1
  Th  Th11  1  0.70372683  0.75001293  0.59289318  1
  P  P12  1  0.11971056  0.37490660  0.13204135  1
  P  P13  1  0.74799945  0.12505170  0.13199539  1
  P  P14  1  0.88028943  0.62509309  0.86795862  1
  P  P15  1  0.13305925  0.64955689  0.37838737  1
  P  P16  1  0.86694062  0.35044346  0.62161235  1
  P  P17  1  0.51154040  0.14958838  0.62152988  1
  P  P18  1  0.25200094  0.87494848  0.86800441  1
  P  P19  1  0.48845953  0.85041173  0.37847031  1
  O  O20  1  0.75667184  0.50937063  0.89443389  1
  O  O21  1  0.21309621  0.76618697  0.97806604  1
  O  O22  1  0.11691311  0.51798553  0.83803732  1
  O  O23  1  0.45015955  0.74709132  0.49409652  1
  O  O24  1  0.42442152  0.24861483  0.73778763  1
  O  O25  1  0.04517625  0.98210062  0.83819821  1
  O  O26  1  0.33644651  0.50828646  0.37854304  1
  O  O27  1  0.39900372  0.76816042  0.75620593  1
  O  O28  1  0.16226866  0.74853508  0.26205798  1
  O  O29  1  0.05112850  0.41351943  0.61108358  1
  O  O30  1  0.34915450  0.99066625  0.89441599  1
  O  O31  1  0.24332719  0.49062982  0.10556623  1
  O  O32  1  0.60099656  0.23183987  0.24379379  1
  O  O33  1  0.54984105  0.25290831  0.50590336  1
  O  O34  1  0.88308647  0.48201424  0.16196269  1
  O  O35  1  0.33785915  0.08649604  0.61107424  1
  O  O36  1  0.66355254  0.49171313  0.62145730  1
  O  O37  1  0.66213849  0.91350632  0.38892686  1
  O  O38  1  0.83773206  0.25146512  0.73794166  1
  O  O39  1  0.57557903  0.75138558  0.26221245  1
  O  O40  1  0.28485644  0.99162399  0.37865923  1
  O  O41  1  0.94402593  0.24722721  0.50602455  1
  O  O42  1  0.94887118  0.58648132  0.38891611  1
  O  O43  1  0.15525920  0.26789986  0.24371592  1
  O  O44  1  0.71514291  0.00837538  0.62134128  1
  O  O45  1  0.95482343  0.01789866  0.16180219  1
  O  O46  1  0.19082869  0.26630777  0.02193207  1
  O  O47  1  0.05597408  0.75277301  0.49397522  1
  O  O48  1  0.80917140  0.73369212  0.97806783  1
  O  O49  1  0.65084517  0.00933449  0.10558408  1
  O  O50  1  0.84474100  0.73209998  0.75628410  1
  O  O51  1  0.78690403  0.23381329  0.02193375  1
