# generated using pymatgen
data_Sb8Br2O11
_symmetry_space_group_name_H-M   'P 1'
_cell_length_a   10.63929779
_cell_length_b   11.33550187
_cell_length_c   14.01806407
_cell_angle_alpha   78.86590683
_cell_angle_beta   76.66778300
_cell_angle_gamma   72.95338145
_symmetry_Int_Tables_number   1
_chemical_formula_structural   Sb8Br2O11
_chemical_formula_sum   'Sb32 Br8 O44'
_cell_volume   1558.38993850
_cell_formula_units_Z   4
loop_
 _symmetry_equiv_pos_site_id
 _symmetry_equiv_pos_as_xyz
  1  'x, y, z'
loop_
 _atom_site_type_symbol
 _atom_site_label
 _atom_site_symmetry_multiplicity
 _atom_site_fract_x
 _atom_site_fract_y
 _atom_site_fract_z
 _atom_site_occupancy
  Sb  Sb0  1  0.81392157  0.33444597  0.20824015  1
  Sb  Sb1  1  0.00688021  0.62119435  0.18676684  1
  Sb  Sb2  1  0.15582898  0.41732786  0.03081487  1
  Sb  Sb3  1  0.01352533  0.61293626  0.55895071  1
  Sb  Sb4  1  0.17526231  0.90956349  0.55660158  1
  Sb  Sb5  1  -0.00200989  0.89657928  0.93118268  1
  Sb  Sb6  1  0.33612947  0.14165214  0.49161482  1
  Sb  Sb7  1  0.72650097  0.61891801  0.36140671  1
  Sb  Sb8  1  0.69942115  0.13277863  0.86496111  1
  Sb  Sb9  1  0.29088478  0.63127941  0.39242264  1
  Sb  Sb10  1  0.69503156  0.87045121  0.13696003  1
  Sb  Sb11  1  0.30496844  0.12954879  0.86303997  1
  Sb  Sb12  1  0.00200989  0.10342072  0.06881732  1
  Sb  Sb13  1  0.84252721  0.85474231  0.68410912  1
  Sb  Sb14  1  0.99311979  0.37880565  0.81323316  1
  Sb  Sb15  1  0.30057885  0.86722137  0.13503889  1
  Sb  Sb16  1  0.15747279  0.14525769  0.31589088  1
  Sb  Sb17  1  0.84417102  0.58267214  0.96918513  1
  Sb  Sb18  1  0.98647467  0.38706374  0.44104929  1
  Sb  Sb19  1  0.02463853  0.85063380  0.31137477  1
  Sb  Sb20  1  0.82473769  0.09043651  0.44339842  1
  Sb  Sb21  1  0.70911522  0.36872059  0.60757736  1
  Sb  Sb22  1  0.18607843  0.66555403  0.79175985  1
  Sb  Sb23  1  0.36290539  0.64518223  0.97387594  1
  Sb  Sb24  1  0.33152343  0.39861702  0.24467254  1
  Sb  Sb25  1  0.63856511  0.11386220  0.27147013  1
  Sb  Sb26  1  0.36143489  0.88613780  0.72852987  1
  Sb  Sb27  1  0.66847657  0.60138298  0.75532746  1
  Sb  Sb28  1  0.27349903  0.38108199  0.63859329  1
  Sb  Sb29  1  0.66387053  0.85834786  0.50838518  1
  Sb  Sb30  1  0.63709461  0.35481777  0.02612406  1
  Sb  Sb31  1  0.97536147  0.14936620  0.68862523  1
  Br  Br32  1  0.49108143  0.63332250  0.58814234  1
  Br  Br33  1  0.45703190  0.17061670  0.09059291  1
  Br  Br34  1  0.50891857  0.36667750  0.41185766  1
  Br  Br35  1  0.54296810  0.82938330  0.90940709  1
  Br  Br36  1  0.52787652  0.10318406  0.65254335  1
  Br  Br37  1  0.48547728  0.37237357  0.83027973  1
  Br  Br38  1  0.51452272  0.62762643  0.16972027  1
  Br  Br39  1  0.47212348  0.89681594  0.34745665  1
  O  O40  1  0.89681725  0.02735510  0.84015251  1
  O  O41  1  0.24016711  0.01295201  0.80877219  1
  O  O42  1  0.16011606  0.13898435  0.97978601  1
  O  O43  1  0.74622632  0.73091194  0.66403061  1
  O  O44  1  0.75623526  0.23232274  0.94066902  1
  O  O45  1  0.77540531  0.20345498  0.72872455  1
  O  O46  1  0.17777131  0.45055326  0.16937658  1
  O  O47  1  0.90877351  0.27205418  0.56854980  1
  O  O48  1  0.01776093  0.73538210  0.64342727  1
  O  O49  1  0.20624647  0.82888802  0.70145323  1
  O  O50  1  0.83988394  0.86101565  0.02021399  1
  O  O51  1  0.97329148  0.52573479  0.08989329  1
  O  O52  1  0.00774723  -0.00269133  0.37899268  1
  O  O53  1  0.69769907  0.26030132  0.15081490  1
  O  O54  1  0.20074150  0.28285203  0.78939461  1
  O  O55  1  0.30230093  0.73969868  0.84918510  1
  O  O56  1  0.79132106  0.42569973  0.03134033  1
  O  O57  1  0.21226116  0.53898585  0.53096018  1
  O  O58  1  0.22368186  0.53307097  0.32288668  1
  O  O59  1  0.79375353  0.17111198  0.29854677  1
  O  O60  1  0.98223907  0.26461790  0.35657273  1
  O  O61  1  0.79925850  0.71714797  0.21060539  1
  O  O62  1  0.78289919  0.72991750  0.42790748  1
  O  O63  1  0.75983289  0.98704799  0.19122781  1
  O  O64  1  0.01102421  0.75857146  0.85761131  1
  O  O65  1  0.17802261  0.09463152  0.45827661  1
  O  O66  1  0.78773884  0.46101415  0.46903982  1
  O  O67  1  0.10318275  0.97264490  0.15984749  1
  O  O68  1  0.24376474  0.76767726  0.05933098  1
  O  O69  1  0.02670852  0.47426521  0.91010671  1
  O  O70  1  0.77631814  0.46692903  0.67711332  1
  O  O71  1  0.21710081  0.27008250  0.57209252  1
  O  O72  1  0.71042396  0.00044456  0.40051774  1
  O  O73  1  0.92547928  0.53158496  0.31211012  1
  O  O74  1  0.25377368  0.26908806  0.33596939  1
  O  O75  1  0.20867894  0.57430027  0.96865967  1
  O  O76  1  0.82222869  0.54944674  0.83062342  1
  O  O77  1  0.22459469  0.79654502  0.27127545  1
  O  O78  1  0.82197739  0.90536848  0.54172339  1
  O  O79  1  0.09122649  0.72794582  0.43145020  1
  O  O80  1  0.99225277  0.00269133  0.62100732  1
  O  O81  1  0.28957604  0.99955544  0.59948226  1
  O  O82  1  0.07452072  0.46841504  0.68788988  1
  O  O83  1  0.98897579  0.24142854  0.14238869  1
