# generated using pymatgen
data_TeI
_symmetry_space_group_name_H-M   'P 1'
_cell_length_a   4.24131142
_cell_length_b   8.27122814
_cell_length_c   9.96998341
_cell_angle_alpha   86.99092424
_cell_angle_beta   77.68887136
_cell_angle_gamma   75.08163196
_symmetry_Int_Tables_number   1
_chemical_formula_structural   TeI
_chemical_formula_sum   'Te4 I4'
_cell_volume   330.19365188
_cell_formula_units_Z   4
loop_
 _symmetry_equiv_pos_site_id
 _symmetry_equiv_pos_as_xyz
  1  'x, y, z'
loop_
 _atom_site_type_symbol
 _atom_site_label
 _atom_site_symmetry_multiplicity
 _atom_site_fract_x
 _atom_site_fract_y
 _atom_site_fract_z
 _atom_site_occupancy
  Te  Te0  1  0.69795396  0.42274694  0.17865708  1
  Te  Te1  1  0.08310759  0.67721260  0.15385426  1
  Te  Te2  1  0.91689241  0.32278740  0.84614574  1
  Te  Te3  1  0.30204604  0.57725306  0.82134292  1
  I  I4  1  0.66670658  0.86280227  0.80725017  1
  I  I5  1  0.10052180  0.23066565  0.57060445  1
  I  I6  1  0.89947820  0.76933435  0.42939555  1
  I  I7  1  0.33329342  0.13719773  0.19274983  1
