# generated using pymatgen
data_Na10U8W5O44
_symmetry_space_group_name_H-M   'P 1'
_cell_length_a   17.29555141
_cell_length_b   17.29555141
_cell_length_c   6.83798702
_cell_angle_alpha   86.59998488
_cell_angle_beta   86.59998488
_cell_angle_gamma   87.28490330
_symmetry_Int_Tables_number   1
_chemical_formula_structural   Na10U8W5O44
_chemical_formula_sum   'Na20 U16 W10 O88'
_cell_volume   2036.31954202
_cell_formula_units_Z   2
loop_
 _symmetry_equiv_pos_site_id
 _symmetry_equiv_pos_as_xyz
  1  'x, y, z'
loop_
 _atom_site_type_symbol
 _atom_site_label
 _atom_site_symmetry_multiplicity
 _atom_site_fract_x
 _atom_site_fract_y
 _atom_site_fract_z
 _atom_site_occupancy
  Na  Na0  1  0.12788000  0.37252300  0.68296800  1
  Na  Na1  1  0.04236200  0.45316600  0.20588000  1
  Na  Na2  1  0.04715400  0.95284600  0.75000000  1
  Na  Na3  1  0.87212000  0.62747700  0.31703200  1
  Na  Na4  1  0.21102600  0.29509500  0.17263500  1
  Na  Na5  1  0.37252300  0.12788000  0.18296800  1
  Na  Na6  1  0.60733300  0.39266700  0.75000000  1
  Na  Na7  1  0.45316600  0.04236200  0.70588000  1
  Na  Na8  1  0.10618500  0.89381500  0.25000000  1
  Na  Na9  1  0.29509500  0.21102600  0.67263500  1
  Na  Na10  1  0.89381500  0.10618500  0.75000000  1
  Na  Na11  1  0.95763800  0.54683400  0.79412000  1
  Na  Na12  1  0.62747700  0.87212000  0.81703200  1
  Na  Na13  1  0.45257300  0.54742700  0.75000000  1
  Na  Na14  1  0.78897400  0.70490500  0.82736500  1
  Na  Na15  1  0.95284600  0.04715400  0.25000000  1
  Na  Na16  1  0.54683400  0.95763800  0.29412000  1
  Na  Na17  1  0.39266700  0.60733300  0.25000000  1
  Na  Na18  1  0.54742700  0.45257300  0.25000000  1
  Na  Na19  1  0.70490500  0.78897400  0.32736500  1
  U  U20  1  0.49785600  0.74932800  0.51584700  1
  U  U21  1  0.40749500  0.33887500  0.95471300  1
  U  U22  1  0.74931600  0.00172500  0.09509000  1
  U  U23  1  0.99827500  0.25068400  0.40491000  1
  U  U24  1  0.00172500  0.74931600  0.59509000  1
  U  U25  1  0.25068400  0.99827500  0.90491000  1
  U  U26  1  0.16139200  0.09368600  0.37362400  1
  U  U27  1  0.33887500  0.40749500  0.45471300  1
  U  U28  1  0.59250500  0.66112500  0.04528700  1
  U  U29  1  0.25067200  0.50214400  0.98415300  1
  U  U30  1  0.09368600  0.16139200  0.87362400  1
  U  U31  1  0.50214400  0.25067200  0.48415300  1
  U  U32  1  0.90631400  0.83860800  0.12637600  1
  U  U33  1  0.83860800  0.90631400  0.62637600  1
  U  U34  1  0.66112500  0.59250500  0.54528700  1
  U  U35  1  0.74932800  0.49785600  0.01584700  1
  W  W36  1  0.33758900  0.93263200  0.37781900  1
  W  W37  1  0.43044300  0.83099200  0.03621600  1
  W  W38  1  0.06736800  0.66241100  0.12218100  1
  W  W39  1  0.56955700  0.16900800  0.96378400  1
  W  W40  1  0.66241100  0.06736800  0.62218100  1
  W  W41  1  0.83099200  0.43044300  0.53621600  1
  W  W42  1  0.16900800  0.56955700  0.46378400  1
  W  W43  1  0.75363000  0.24637000  0.75000000  1
  W  W44  1  0.93263200  0.33758900  0.87781900  1
  W  W45  1  0.24637000  0.75363000  0.25000000  1
  O  O46  1  0.33240200  0.74935400  0.08557900  1
  O  O47  1  0.25737100  0.99985500  0.27669700  1
  O  O48  1  0.32912100  0.06971200  0.87405000  1
  O  O49  1  0.00014500  0.74262900  0.22330300  1
  O  O50  1  0.19426200  0.56886600  0.71955700  1
  O  O51  1  0.34533900  0.90978100  0.06707600  1
  O  O52  1  0.84095200  0.40773300  0.85272600  1
  O  O53  1  0.07188100  0.82784100  0.55705800  1
  O  O54  1  0.40647200  0.31968300  0.63482800  1
  O  O55  1  0.01831700  0.08497200  0.89069200  1
  O  O56  1  0.18577500  0.06447600  0.67994400  1
  O  O57  1  0.93028800  0.67087900  0.62595000  1
  O  O58  1  0.91373800  0.82664200  0.44953700  1
  O  O59  1  0.42998700  0.66879100  0.52442800  1
  O  O60  1  0.93552400  0.81422500  0.82005600  1
  O  O61  1  0.84354400  0.24591800  0.87487200  1
  O  O62  1  0.25064600  0.66759800  0.41442100  1
  O  O63  1  0.31010400  0.93421400  0.64036000  1
  O  O64  1  0.24591800  0.84354400  0.37487200  1
  O  O65  1  0.59226700  0.15904800  0.64727400  1
  O  O66  1  0.75408200  0.15645600  0.62512800  1
  O  O67  1  0.59352800  0.68031700  0.36517200  1
  O  O68  1  0.10231500  0.49296800  0.48598800  1
  O  O69  1  0.48810600  0.74362700  0.14489900  1
  O  O70  1  0.58116500  0.52152400  0.57897200  1
  O  O71  1  0.50703200  0.89768500  0.01401200  1
  O  O72  1  0.06578600  0.68989600  0.85964000  1
  O  O73  1  0.56145100  0.68268300  0.74103000  1
  O  O74  1  0.40773300  0.84095200  0.35272600  1
  O  O75  1  0.31731700  0.43854900  0.75897000  1
  O  O76  1  0.17335800  0.08626200  0.05046300  1
  O  O77  1  0.68268300  0.56145100  0.24103000  1
  O  O78  1  0.23991500  0.16683200  0.35381100  1
  O  O79  1  0.89768500  0.50703200  0.51401200  1
  O  O80  1  0.92811900  0.17215900  0.44294200  1
  O  O81  1  0.82784100  0.07188100  0.05705800  1
  O  O82  1  0.90978100  0.34533900  0.56707600  1
  O  O83  1  0.16951000  0.43315700  0.99966400  1
  O  O84  1  0.66879100  0.42998700  0.02442800  1
  O  O85  1  0.25578900  0.33980900  0.48749800  1
  O  O86  1  0.76008500  0.83316800  0.64618900  1
  O  O87  1  0.15904800  0.59226700  0.14727400  1
  O  O88  1  0.15645600  0.75408200  0.12512800  1
  O  O89  1  0.06447600  0.18577500  0.17994400  1
  O  O90  1  0.68989600  0.06578600  0.35964000  1
  O  O91  1  0.56886600  0.19426200  0.21955700  1
  O  O92  1  0.17215900  0.92811900  0.94294200  1
  O  O93  1  0.06971200  0.32912100  0.37405000  1
  O  O94  1  0.33120900  0.57001300  0.97557200  1
  O  O95  1  0.52152400  0.58116500  0.07897200  1
  O  O96  1  0.09021900  0.65466100  0.43292400  1
  O  O97  1  0.99985500  0.25737100  0.77669700  1
  O  O98  1  0.91502800  0.98168300  0.60930800  1
  O  O99  1  0.93421400  0.31010400  0.14036000  1
  O  O100  1  0.74262900  0.00014500  0.72330300  1
  O  O101  1  0.51189400  0.25637300  0.85510100  1
  O  O102  1  0.67087900  0.93028800  0.12595000  1
  O  O103  1  0.74362700  0.48810600  0.64489900  1
  O  O104  1  0.81422500  0.93552400  0.32005600  1
  O  O105  1  0.41360200  0.00095500  0.36803800  1
  O  O106  1  0.43854900  0.31731700  0.25897000  1
  O  O107  1  0.66019100  0.74421100  0.01250200  1
  O  O108  1  0.98168300  0.91502800  0.10930800  1
  O  O109  1  0.99904500  0.58639800  0.13196200  1
  O  O110  1  0.00095500  0.41360200  0.86803800  1
  O  O111  1  0.80573800  0.43113400  0.28044300  1
  O  O112  1  0.47847600  0.41883500  0.92102800  1
  O  O113  1  0.56684300  0.83049000  0.50033600  1
  O  O114  1  0.83316800  0.76008500  0.14618900  1
  O  O115  1  0.25637300  0.51189400  0.35510100  1
  O  O116  1  0.41883500  0.47847600  0.42102800  1
  O  O117  1  0.83049000  0.56684300  0.00033600  1
  O  O118  1  0.08626200  0.17335800  0.55046300  1
  O  O119  1  0.57001300  0.33120900  0.47557200  1
  O  O120  1  0.31968300  0.40647200  0.13482800  1
  O  O121  1  0.08497200  0.01831700  0.39069200  1
  O  O122  1  0.66759800  0.25064600  0.91442100  1
  O  O123  1  0.43113400  0.80573800  0.78044300  1
  O  O124  1  0.74421100  0.66019100  0.51250200  1
  O  O125  1  0.43315700  0.16951000  0.49966400  1
  O  O126  1  0.16683200  0.23991500  0.85381100  1
  O  O127  1  0.58639800  0.99904500  0.63196200  1
  O  O128  1  0.68031700  0.59352800  0.86517200  1
  O  O129  1  0.74935400  0.33240200  0.58557900  1
  O  O130  1  0.82664200  0.91373800  0.94953700  1
  O  O131  1  0.49296800  0.10231500  0.98598800  1
  O  O132  1  0.65466100  0.09021900  0.93292400  1
  O  O133  1  0.33980900  0.25578900  0.98749800  1
