# generated using pymatgen
data_Dy3Se4O12F
_symmetry_space_group_name_H-M   'P 1'
_cell_length_a   10.35250356
_cell_length_b   10.35250356
_cell_length_c   6.76786428
_cell_angle_alpha   90.00000000
_cell_angle_beta   90.00000000
_cell_angle_gamma   119.99999833
_symmetry_Int_Tables_number   1
_chemical_formula_structural   Dy3Se4O12F
_chemical_formula_sum   'Dy6 Se8 O24 F2'
_cell_volume   628.16401954
_cell_formula_units_Z   2
loop_
 _symmetry_equiv_pos_site_id
 _symmetry_equiv_pos_as_xyz
  1  'x, y, z'
loop_
 _atom_site_type_symbol
 _atom_site_label
 _atom_site_symmetry_multiplicity
 _atom_site_fract_x
 _atom_site_fract_y
 _atom_site_fract_z
 _atom_site_occupancy
  Dy  Dy0  1  0.46192692  0.92385383  0.31727138  1
  Dy  Dy1  1  0.07614617  0.53807308  0.31727138  1
  Dy  Dy2  1  0.53807308  0.46192692  0.81727138  1
  Dy  Dy3  1  0.46192692  0.53807308  0.31727138  1
  Dy  Dy4  1  0.53807308  0.07614617  0.81727138  1
  Dy  Dy5  1  0.92385383  0.46192692  0.81727138  1
  Se  Se6  1  0.69045535  0.84522768  0.08492800  1
  Se  Se7  1  0.15477232  0.84522768  0.08492800  1
  Se  Se8  1  0.84522768  0.69045535  0.58492800  1
  Se  Se9  1  0.84522768  0.15477232  0.58492800  1
  Se  Se10  1  0.33333300  0.66666700  0.75361421  1
  Se  Se11  1  0.30954465  0.15477232  0.58492800  1
  Se  Se12  1  0.66666700  0.33333300  0.25361421  1
  Se  Se13  1  0.15477232  0.30954465  0.08492800  1
  O  O14  1  0.41661769  0.08141998  0.51306414  1
  O  O15  1  0.18302345  0.36604789  0.32546980  1
  O  O16  1  0.81697655  0.18302345  0.82546980  1
  O  O17  1  0.66480129  0.08141998  0.51306414  1
  O  O18  1  0.58338231  0.91858002  0.01306414  1
  O  O19  1  0.66480129  0.58338231  0.51306414  1
  O  O20  1  0.81697655  0.63395211  0.82546980  1
  O  O21  1  0.08141998  0.41661769  0.01306414  1
  O  O22  1  0.41870215  0.58129785  0.63917272  1
  O  O23  1  0.41661769  0.33519871  0.51306414  1
  O  O24  1  0.58129785  0.16259570  0.13917272  1
  O  O25  1  0.41870215  0.83740430  0.63917272  1
  O  O26  1  0.33519871  0.41661769  0.01306414  1
  O  O27  1  0.58129785  0.41870215  0.13917272  1
  O  O28  1  0.83740430  0.41870215  0.13917272  1
  O  O29  1  0.58338231  0.66480129  0.01306414  1
  O  O30  1  0.63395211  0.81697655  0.32546980  1
  O  O31  1  0.91858002  0.58338231  0.51306414  1
  O  O32  1  0.18302345  0.81697655  0.32546980  1
  O  O33  1  0.33519871  0.91858002  0.01306414  1
  O  O34  1  0.91858002  0.33519871  0.51306414  1
  O  O35  1  0.36604789  0.18302345  0.82546980  1
  O  O36  1  0.08141998  0.66480129  0.01306414  1
  O  O37  1  0.16259570  0.58129785  0.63917272  1
  F  F38  1  0.66666700  0.33333300  0.76976327  1
  F  F39  1  0.33333300  0.66666700  0.26976327  1
