# generated using pymatgen
data_K2PdO2
_symmetry_space_group_name_H-M   'P 1'
_cell_length_a   3.13747975
_cell_length_b   5.45175379
_cell_length_c   5.45175355
_cell_angle_alpha   67.31626812
_cell_angle_beta   73.27674530
_cell_angle_gamma   73.27673755
_symmetry_Int_Tables_number   1
_chemical_formula_structural   K2PdO2
_chemical_formula_sum   'K2 Pd1 O2'
_cell_volume   80.73303569
_cell_formula_units_Z   1
loop_
 _symmetry_equiv_pos_site_id
 _symmetry_equiv_pos_as_xyz
  1  'x, y, z'
loop_
 _atom_site_type_symbol
 _atom_site_label
 _atom_site_symmetry_multiplicity
 _atom_site_fract_x
 _atom_site_fract_y
 _atom_site_fract_z
 _atom_site_occupancy
  K  K0  1  0.17522138  0.32477862  0.32477862  1
  K  K1  1  0.82477862  0.67522138  0.67522138  1
  Pd  Pd2  1  0.00000000  -0.00000000  0.00000000  1
  O  O3  1  0.50000000  0.22094380  0.77905620  1
  O  O4  1  0.50000000  0.77905620  0.22094380  1
