# generated using pymatgen
data_Sm4Se3O4
_symmetry_space_group_name_H-M   'P 1'
_cell_length_a   3.95173701
_cell_length_b   6.67497505
_cell_length_c   8.39192345
_cell_angle_alpha   89.99985545
_cell_angle_beta   90.00000000
_cell_angle_gamma   107.21818888
_symmetry_Int_Tables_number   1
_chemical_formula_structural   Sm4Se3O4
_chemical_formula_sum   'Sm4 Se3 O4'
_cell_volume   211.43965112
_cell_formula_units_Z   1
loop_
 _symmetry_equiv_pos_site_id
 _symmetry_equiv_pos_as_xyz
  1  'x, y, z'
loop_
 _atom_site_type_symbol
 _atom_site_label
 _atom_site_symmetry_multiplicity
 _atom_site_fract_x
 _atom_site_fract_y
 _atom_site_fract_z
 _atom_site_occupancy
  Sm  Sm0  1  0.68185046  0.36370193  0.23783975  1
  Sm  Sm1  1  0.68185146  0.36370193  0.76216025  1
  Sm  Sm2  1  0.01695709  0.03391418  0.50000000  1
  Sm  Sm3  1  0.00181474  0.00362947  -0.00000000  1
  Se  Se4  1  0.31433359  0.62866617  0.00000000  1
  Se  Se5  1  0.35423880  0.70847860  0.64918373  1
  Se  Se6  1  0.35423880  0.70847860  0.35081627  1
  O  O7  1  0.61464059  0.22928317  0.50000000  1
  O  O8  1  0.08673320  0.17346340  0.75556483  1
  O  O9  1  0.58918007  0.17836115  0.00000100  1
  O  O10  1  0.08673320  0.17346340  0.24443617  1
