# generated using pymatgen
data_SiC
_symmetry_space_group_name_H-M   'P 1'
_cell_length_a   3.07407789
_cell_length_b   3.07407877
_cell_length_c   90.52691929
_cell_angle_alpha   90.00000000
_cell_angle_beta   90.00000000
_cell_angle_gamma   120.00002235
_symmetry_Int_Tables_number   1
_chemical_formula_structural   SiC
_chemical_formula_sum   'Si36 C36'
_cell_volume   740.86338824
_cell_formula_units_Z   36
loop_
 _symmetry_equiv_pos_site_id
 _symmetry_equiv_pos_as_xyz
  1  'x, y, z'
loop_
 _atom_site_type_symbol
 _atom_site_label
 _atom_site_symmetry_multiplicity
 _atom_site_fract_x
 _atom_site_fract_y
 _atom_site_fract_z
 _atom_site_occupancy
  Si  Si0  1  -0.00000000  0.00000000  0.16666232  1
  Si  Si1  1  0.66666700  0.33333300  0.61110579  1
  Si  Si2  1  0.33333300  0.66666700  0.91664067  1
  Si  Si3  1  -0.00000000  0.00000000  0.41666893  1
  Si  Si4  1  0.33333300  0.66666700  0.36112479  1
  Si  Si5  1  0.66666700  0.33333300  0.27776601  1
  Si  Si6  1  0.33333300  0.66666700  0.80556143  1
  Si  Si7  1  0.33333300  0.66666700  0.30552954  1
  Si  Si8  1  0.66666700  0.33333300  0.77774970  1
  Si  Si9  1  0.33333300  0.66666700  0.13886585  1
  Si  Si10  1  0.00000000  0.00000000  0.66665404  1
  Si  Si11  1  0.33333300  0.66666700  0.02778001  1
  Si  Si12  1  0.66666700  0.33333300  0.52775911  1
  Si  Si13  1  0.33333300  0.66666700  0.63890117  1
  Si  Si14  1  -0.00000000  0.00000000  0.83330992  1
  Si  Si15  1  0.33333300  0.66666700  0.19445532  1
  Si  Si16  1  0.33333300  0.66666700  0.47221595  1
  Si  Si17  1  0.66666700  0.33333300  0.11111946  1
  Si  Si18  1  0.66666700  0.33333300  0.05552727  1
  Si  Si19  1  -0.00000000  0.00000000  0.49997922  1
  Si  Si20  1  0.66666700  0.33333300  0.22219395  1
  Si  Si21  1  -0.00000000  0.00000000  0.55555652  1
  Si  Si22  1  -0.00000000  0.00000000  0.72221892  1
  Si  Si23  1  -0.00000000  0.00000000  0.08330913  1
  Si  Si24  1  0.66666700  0.33333300  0.94443497  1
  Si  Si25  1  0.66666700  0.33333300  0.38886548  1
  Si  Si26  1  0.66666700  0.33333300  0.69444537  1
  Si  Si27  1  0.66666700  0.33333300  0.86111503  1
  Si  Si28  1  -0.00000000  0.00000000  0.33332376  1
  Si  Si29  1  0.33333300  0.66666700  0.58329321  1
  Si  Si30  1  -0.00000000  0.00000000  0.00000864  1
  Si  Si31  1  -0.00000000  0.00000000  0.88889145  1
  Si  Si32  1  0.66666700  0.33333300  0.44447012  1
  Si  Si33  1  0.33333300  0.66666700  0.74996679  1
  Si  Si34  1  -0.00000000  -0.00000000  0.24999158  1
  Si  Si35  1  0.33333300  0.66666700  0.97220980  1
  C  C36  1  -0.00000000  -0.00000000  0.74304691  1
  C  C37  1  -0.00000000  0.00000000  0.27087783  1
  C  C38  1  0.33333300  0.66666700  0.38195278  1
  C  C39  1  -0.00000000  -0.00000000  0.57638129  1
  C  C40  1  0.66666700  0.33333300  0.46530025  1
  C  C41  1  0.66666700  0.33333300  0.13195341  1
  C  C42  1  0.66666700  0.33333300  0.40969988  1
  C  C43  1  0.33333300  0.66666700  0.82639502  1
  C  C44  1  0.00000000  0.00000000  0.43757069  1
  C  C45  1  0.66666700  0.33333300  0.29860077  1
  C  C46  1  -0.00000000  -0.00000000  0.10421445  1
  C  C47  1  0.66666700  0.33333300  0.71533221  1
  C  C48  1  -0.00000000  0.00000000  0.90971952  1
  C  C49  1  0.66666700  0.33333300  0.79865242  1
  C  C50  1  0.00000000  -0.00000000  0.52080405  1
  C  C51  1  0.66666700  0.33333300  0.88199950  1
  C  C52  1  0.66666700  0.33333300  0.07634688  1
  C  C53  1  0.33333300  0.66666700  0.99303131  1
  C  C54  1  0.66666700  0.33333300  0.24302103  1
  C  C55  1  0.00000000  -0.00000000  0.18755701  1
  C  C56  1  0.66666700  0.33333300  0.63200446  1
  C  C57  1  0.33333300  0.66666700  0.04860684  1
  C  C58  1  -0.00000000  0.00000000  0.85414582  1
  C  C59  1  0.33333300  0.66666700  0.60412969  1
  C  C60  1  -0.00000000  0.00000000  0.35422528  1
  C  C61  1  0.33333300  0.66666700  0.15969679  1
  C  C62  1  0.33333300  0.66666700  0.49306081  1
  C  C63  1  0.33333300  0.66666700  0.65973697  1
  C  C64  1  0.33333300  0.66666700  0.93746830  1
  C  C65  1  0.33333300  0.66666700  0.77078970  1
  C  C66  1  0.33333300  0.66666700  0.32635988  1
  C  C67  1  0.66666700  0.33333300  0.54865423  1
  C  C68  1  0.33333300  0.66666700  0.21528274  1
  C  C69  1  -0.00000000  0.00000000  0.02089373  1
  C  C70  1  0.66666700  0.33333300  0.96532235  1
  C  C71  1  -0.00000000  0.00000000  0.68748096  1
