# generated using pymatgen
data_Mn2In2O7
_symmetry_space_group_name_H-M   'P 1'
_cell_length_a   6.87966639
_cell_length_b   6.87967101
_cell_length_c   6.87967165
_cell_angle_alpha   59.99982272
_cell_angle_beta   59.99988386
_cell_angle_gamma   59.99989698
_symmetry_Int_Tables_number   1
_chemical_formula_structural   Mn2In2O7
_chemical_formula_sum   'Mn4 In4 O14'
_cell_volume   230.24301367
_cell_formula_units_Z   2
loop_
 _symmetry_equiv_pos_site_id
 _symmetry_equiv_pos_as_xyz
  1  'x, y, z'
loop_
 _atom_site_type_symbol
 _atom_site_label
 _atom_site_symmetry_multiplicity
 _atom_site_fract_x
 _atom_site_fract_y
 _atom_site_fract_z
 _atom_site_occupancy
  Mn  Mn0  1  0.00000008  -0.00000032  0.50000030  1
  Mn  Mn1  1  -0.00000069  0.49999995  0.00000063  1
  Mn  Mn2  1  0.49999981  -0.00000027  0.00000010  1
  Mn  Mn3  1  0.00000017  -0.00000010  -0.00000010  1
  In  In4  1  0.49999991  0.50000005  -0.00000008  1
  In  In5  1  0.49999987  -0.00000005  0.50000004  1
  In  In6  1  0.00000005  0.49999923  0.50000014  1
  In  In7  1  0.49999986  0.50000013  0.50000016  1
  O  O8  1  0.33010500  0.91989474  0.91989543  1
  O  O9  1  0.91989429  0.33010567  0.33010481  1
  O  O10  1  0.91989410  0.33010602  0.91989429  1
  O  O11  1  0.33010631  0.91989374  0.33010583  1
  O  O12  1  0.91989459  0.91989390  0.33010587  1
  O  O13  1  0.33010632  0.33010628  0.91989362  1
  O  O14  1  0.66989504  0.08010476  0.08010530  1
  O  O15  1  0.08010524  0.66989524  0.66989437  1
  O  O16  1  0.08010553  0.66989425  0.08010633  1
  O  O17  1  0.66989393  0.08010590  0.66989355  1
  O  O18  1  0.08010618  0.08010581  0.66989402  1
  O  O19  1  0.66989421  0.66989399  0.08010563  1
  O  O20  1  0.37499991  0.37499992  0.37499969  1
  O  O21  1  0.62500030  0.62500017  0.62500007  1
