# generated using pymatgen
data_KAuCl4
_symmetry_space_group_name_H-M   'P 1'
_cell_length_a   6.41144408
_cell_length_b   8.74216884
_cell_length_c   12.27075450
_cell_angle_alpha   83.82808027
_cell_angle_beta   90.00000000
_cell_angle_gamma   90.00000000
_symmetry_Int_Tables_number   1
_chemical_formula_structural   KAuCl4
_chemical_formula_sum   'K4 Au4 Cl16'
_cell_volume   683.78839166
_cell_formula_units_Z   4
loop_
 _symmetry_equiv_pos_site_id
 _symmetry_equiv_pos_as_xyz
  1  'x, y, z'
loop_
 _atom_site_type_symbol
 _atom_site_label
 _atom_site_symmetry_multiplicity
 _atom_site_fract_x
 _atom_site_fract_y
 _atom_site_fract_z
 _atom_site_occupancy
  K  K0  1  0.69683599  0.22437485  0.31449717  1
  K  K1  1  0.30316401  0.22437485  0.81449717  1
  K  K2  1  0.19786016  0.80266573  0.17880393  1
  K  K3  1  0.80213984  0.80266573  0.67880393  1
  Au  Au4  1  0.24869720  0.51210509  0.49465613  1
  Au  Au5  1  0.75130280  0.51210509  0.99465613  1
  Au  Au6  1  0.24829660  0.01254068  0.49759572  1
  Au  Au7  1  0.75170340  0.01254068  0.99759572  1
  Cl  Cl8  1  0.50165070  0.34106425  0.56352407  1
  Cl  Cl9  1  0.49834930  0.34106425  0.06352407  1
  Cl  Cl10  1  0.99573144  0.68302654  0.42592393  1
  Cl  Cl11  1  0.00426856  0.68302654  0.92592393  1
  Cl  Cl12  1  0.09912592  0.50687201  0.66530348  1
  Cl  Cl13  1  0.90087408  0.50687201  0.16530348  1
  Cl  Cl14  1  0.39916400  0.51813585  0.32410117  1
  Cl  Cl15  1  0.60083600  0.51813585  0.82410117  1
  Cl  Cl16  1  0.45819771  0.88414623  0.94930988  1
  Cl  Cl17  1  0.54180229  0.88414623  0.44930988  1
  Cl  Cl18  1  0.04583374  0.14026542  0.04567998  1
  Cl  Cl19  1  0.95416626  0.14026542  0.54567998  1
  Cl  Cl20  1  0.80287361  0.10640312  0.81687590  1
  Cl  Cl21  1  0.19712639  0.10640312  0.31687590  1
  Cl  Cl22  1  0.69992919  0.91910124  0.17842865  1
  Cl  Cl23  1  0.30007081  0.91910124  0.67842865  1
