# generated using pymatgen
data_Rb2Cr2O7
_symmetry_space_group_name_H-M   'P 1'
_cell_length_a   7.59202277
_cell_length_b   7.66304025
_cell_length_c   15.21403584
_cell_angle_alpha   63.75816628
_cell_angle_beta   90.00000000
_cell_angle_gamma   90.00000000
_symmetry_Int_Tables_number   1
_chemical_formula_structural   Rb2Cr2O7
_chemical_formula_sum   'Rb8 Cr8 O28'
_cell_volume   793.89741551
_cell_formula_units_Z   4
loop_
 _symmetry_equiv_pos_site_id
 _symmetry_equiv_pos_as_xyz
  1  'x, y, z'
loop_
 _atom_site_type_symbol
 _atom_site_label
 _atom_site_symmetry_multiplicity
 _atom_site_fract_x
 _atom_site_fract_y
 _atom_site_fract_z
 _atom_site_occupancy
  Rb  Rb0  1  0.27355186  0.06139394  0.63656850  1
  Rb  Rb1  1  0.22644814  0.06139394  0.13656850  1
  Rb  Rb2  1  0.11750639  0.51523181  0.84192799  1
  Rb  Rb3  1  0.72644814  0.93860606  0.36343150  1
  Rb  Rb4  1  0.61750639  0.48476819  0.65807201  1
  Rb  Rb5  1  0.88249361  0.48476819  0.15807201  1
  Rb  Rb6  1  0.77355186  0.93860606  0.86343150  1
  Rb  Rb7  1  0.38249361  0.51523181  0.34192799  1
  Cr  Cr8  1  0.66301917  0.39855675  0.91969318  1
  Cr  Cr9  1  0.78629722  0.00565072  0.60992208  1
  Cr  Cr10  1  0.16301917  0.60144325  0.58030682  1
  Cr  Cr11  1  0.83698083  0.39855675  0.41969318  1
  Cr  Cr12  1  0.21370278  0.99434928  0.39007792  1
  Cr  Cr13  1  0.28629722  0.99434928  0.89007792  1
  Cr  Cr14  1  0.33698083  0.60144325  0.08030682  1
  Cr  Cr15  1  0.71370278  0.00565072  0.10992208  1
  O  O16  1  0.91428274  0.85530597  0.69451892  1
  O  O17  1  0.15241829  0.89505269  0.84237649  1
  O  O18  1  0.67521462  0.89558008  0.55892736  1
  O  O19  1  0.58042315  0.18946551  0.02151468  1
  O  O20  1  0.34758171  0.89505269  0.34237649  1
  O  O21  1  0.49805125  0.46645380  0.14237108  1
  O  O22  1  0.82478538  0.89558008  0.05892736  1
  O  O23  1  0.72325449  0.32739882  0.35124593  1
  O  O24  1  0.41957685  0.81053449  0.97848532  1
  O  O25  1  0.77674551  0.32739882  0.85124593  1
  O  O26  1  0.20797311  0.48085533  0.04204979  1
  O  O27  1  0.65241829  0.10494731  0.65762351  1
  O  O28  1  0.50194875  0.53354620  0.85762892  1
  O  O29  1  0.00194875  0.46645380  0.64237108  1
  O  O30  1  0.58571726  0.85530597  0.19451892  1
  O  O31  1  0.70797311  0.51914467  0.45795021  1
  O  O32  1  0.22325449  0.67260118  0.14875407  1
  O  O33  1  0.17521462  0.10441992  0.94107264  1
  O  O34  1  0.29202689  0.48085533  0.54204979  1
  O  O35  1  0.91957685  0.18946551  0.52151468  1
  O  O36  1  0.99805125  0.53354620  0.35762892  1
  O  O37  1  0.41428274  0.14469403  0.80548108  1
  O  O38  1  0.08571726  0.14469403  0.30548108  1
  O  O39  1  0.79202689  0.51914467  0.95795021  1
  O  O40  1  0.32478538  0.10441992  0.44107264  1
  O  O41  1  0.08042315  0.81053449  0.47848532  1
  O  O42  1  0.27674551  0.67260118  0.64875407  1
  O  O43  1  0.84758171  0.10494731  0.15762351  1
