# generated using pymatgen
data_USeO6
_symmetry_space_group_name_H-M   'P 1'
_cell_length_a   5.55511328
_cell_length_b   6.89649147
_cell_length_c   13.33570731
_cell_angle_alpha   75.66700747
_cell_angle_beta   90.00000000
_cell_angle_gamma   90.00000000
_symmetry_Int_Tables_number   1
_chemical_formula_structural   USeO6
_chemical_formula_sum   'U4 Se4 O24'
_cell_volume   494.99884375
_cell_formula_units_Z   4
loop_
 _symmetry_equiv_pos_site_id
 _symmetry_equiv_pos_as_xyz
  1  'x, y, z'
loop_
 _atom_site_type_symbol
 _atom_site_label
 _atom_site_symmetry_multiplicity
 _atom_site_fract_x
 _atom_site_fract_y
 _atom_site_fract_z
 _atom_site_occupancy
  U  U0  1  0.20501304  0.33648104  0.85130775  1
  U  U1  1  0.70501304  0.66351896  0.64869225  1
  U  U2  1  0.79498696  0.66351896  0.14869225  1
  U  U3  1  0.29498696  0.33648104  0.35130775  1
  Se  Se4  1  0.05070916  0.79846790  0.38759048  1
  Se  Se5  1  0.44929084  0.79846790  0.88759048  1
  Se  Se6  1  0.94929084  0.20153210  0.61240952  1
  Se  Se7  1  0.55070916  0.20153210  0.11240952  1
  O  O8  1  0.48440489  0.42989691  0.78187230  1
  O  O9  1  0.28985644  0.65725338  0.38486194  1
  O  O10  1  0.07742570  0.73739994  0.08867240  1
  O  O11  1  0.42257430  0.73739994  0.58867240  1
  O  O12  1  0.57742570  0.26260006  0.41132760  1
  O  O13  1  0.60718337  0.82679894  0.78025119  1
  O  O14  1  0.51559511  0.57010309  0.21812770  1
  O  O15  1  0.36047566  0.01845048  0.89925976  1
  O  O16  1  0.10718337  0.17320106  0.71974881  1
  O  O17  1  0.78985644  0.34274662  0.11513806  1
  O  O18  1  0.92257430  0.26260006  0.91132760  1
  O  O19  1  0.86047566  0.98154952  0.60074024  1
  O  O20  1  0.98440489  0.57010309  0.71812770  1
  O  O21  1  0.63952434  0.98154952  0.10074024  1
  O  O22  1  0.39281663  0.17320106  0.21974881  1
  O  O23  1  0.87643429  0.69585430  0.48583026  1
  O  O24  1  0.13952434  0.01845048  0.39925976  1
  O  O25  1  0.12356571  0.30414570  0.51416974  1
  O  O26  1  0.21014356  0.65725338  0.88486194  1
  O  O27  1  0.62356571  0.69585430  0.98583026  1
  O  O28  1  0.89281663  0.82679894  0.28025119  1
  O  O29  1  0.37643429  0.30414570  0.01416974  1
  O  O30  1  0.01559511  0.42989691  0.28187230  1
  O  O31  1  0.71014356  0.34274662  0.61513806  1
