# generated using pymatgen
data_Rb5Sn(PSe5)3
_symmetry_space_group_name_H-M   'P 1'
_cell_length_a   7.34922827
_cell_length_b   11.89410482
_cell_length_c   19.41265993
_cell_angle_alpha   86.78784032
_cell_angle_beta   100.02021212
_cell_angle_gamma   107.70359358
_symmetry_Int_Tables_number   1
_chemical_formula_structural   Rb5Sn(PSe5)3
_chemical_formula_sum   'Rb10 Sn2 P6 Se30'
_cell_volume   1591.88051948
_cell_formula_units_Z   2
loop_
 _symmetry_equiv_pos_site_id
 _symmetry_equiv_pos_as_xyz
  1  'x, y, z'
loop_
 _atom_site_type_symbol
 _atom_site_label
 _atom_site_symmetry_multiplicity
 _atom_site_fract_x
 _atom_site_fract_y
 _atom_site_fract_z
 _atom_site_occupancy
  Rb  Rb0  1  0.58426079  0.64713093  0.75421210  1
  Rb  Rb1  1  0.29567509  0.13527005  0.96172174  1
  Rb  Rb2  1  0.70432491  0.86472995  0.03827826  1
  Rb  Rb3  1  0.33044711  0.14496433  0.54470734  1
  Rb  Rb4  1  0.66955289  0.85503567  0.45529266  1
  Rb  Rb5  1  0.05733339  0.59471978  0.11697899  1
  Rb  Rb6  1  0.41573921  0.35286907  0.24578790  1
  Rb  Rb7  1  0.00046362  0.38569091  0.62677351  1
  Rb  Rb8  1  -0.00046362  0.61430909  0.37322649  1
  Rb  Rb9  1  0.94266661  0.40528022  0.88302101  1
  Sn  Sn10  1  0.83077923  0.09823405  0.25820396  1
  Sn  Sn11  1  0.16922077  0.90176595  0.74179604  1
  P  P12  1  0.41387218  0.26108731  0.74792757  1
  P  P13  1  0.23212801  0.77638837  0.56390138  1
  P  P14  1  0.76787199  0.22361163  0.43609862  1
  P  P15  1  0.97236465  0.22990267  0.07255557  1
  P  P16  1  0.02763535  0.77009733  0.92744443  1
  P  P17  1  0.58612782  0.73891269  0.25207243  1
  Se  Se18  1  0.94639707  0.68160233  0.60373089  1
  Se  Se19  1  0.14413369  0.16330854  0.36027365  1
  Se  Se20  1  0.05360293  0.31839767  0.39626911  1
  Se  Se21  1  0.58700161  0.09875909  0.35165268  1
  Se  Se22  1  0.82066868  0.12959387  0.53170502  1
  Se  Se23  1  0.12345116  0.66545442  0.77099350  1
  Se  Se24  1  0.59389736  0.64381434  0.16177919  1
  Se  Se25  1  0.41299839  0.90124091  0.64834732  1
  Se  Se26  1  0.13148334  0.12712566  0.70977804  1
  Se  Se27  1  0.86851666  0.87287434  0.29022196  1
  Se  Se28  1  0.94860078  0.89560082  0.84673812  1
  Se  Se29  1  0.05139922  0.10439918  0.15326188  1
  Se  Se30  1  0.87654884  0.33454558  0.22900650  1
  Se  Se31  1  0.80625079  0.14631641  0.97540320  1
  Se  Se32  1  0.47589098  0.62177053  0.33544074  1
  Se  Se33  1  0.66684960  0.37342120  0.44630309  1
  Se  Se34  1  0.77368712  0.62638679  0.94128067  1
  Se  Se35  1  0.62918260  0.15362752  0.76439932  1
  Se  Se36  1  0.50954983  0.00400137  0.16527422  1
  Se  Se37  1  0.19374921  0.85368359  0.02459680  1
  Se  Se38  1  0.74064618  0.29150597  0.11063636  1
  Se  Se39  1  0.17933132  0.87040613  0.46829498  1
  Se  Se40  1  0.22631288  0.37361321  0.05871933  1
  Se  Se41  1  0.33315040  0.62657880  0.55369691  1
  Se  Se42  1  0.25935382  0.70849403  0.88936364  1
  Se  Se43  1  0.40610264  0.35618566  0.83822081  1
  Se  Se44  1  0.52410902  0.37822947  0.66455926  1
  Se  Se45  1  0.49045017  0.99599863  0.83472578  1
  Se  Se46  1  0.85586631  0.83669146  0.63972635  1
  Se  Se47  1  0.37081740  0.84637248  0.23560068  1
