# generated using pymatgen
data_Nd2As4O9
_symmetry_space_group_name_H-M   'P 1'
_cell_length_a   6.90184398
_cell_length_b   7.67147741
_cell_length_c   9.61538915
_cell_angle_alpha   96.43762865
_cell_angle_beta   103.76588852
_cell_angle_gamma   104.50952369
_symmetry_Int_Tables_number   1
_chemical_formula_structural   Nd2As4O9
_chemical_formula_sum   'Nd4 As8 O18'
_cell_volume   470.66223258
_cell_formula_units_Z   2
loop_
 _symmetry_equiv_pos_site_id
 _symmetry_equiv_pos_as_xyz
  1  'x, y, z'
loop_
 _atom_site_type_symbol
 _atom_site_label
 _atom_site_symmetry_multiplicity
 _atom_site_fract_x
 _atom_site_fract_y
 _atom_site_fract_z
 _atom_site_occupancy
  Nd  Nd0  1  0.75027282  0.94347814  0.12049914  1
  Nd  Nd1  1  0.77903259  0.46795915  0.09497192  1
  Nd  Nd2  1  0.24972718  0.05652186  0.87950086  1
  Nd  Nd3  1  0.22096741  0.53204085  0.90502808  1
  As  As4  1  0.82381830  0.22718400  0.44095159  1
  As  As5  1  0.32095072  0.23879548  0.57890410  1
  As  As6  1  0.67904928  0.76120452  0.42109590  1
  As  As7  1  0.17618170  0.77281600  0.55904841  1
  As  As8  1  0.69247704  0.64944364  0.79217594  1
  As  As9  1  0.30752296  0.35055636  0.20782406  1
  As  As10  1  0.25075587  0.92197689  0.21521803  1
  As  As11  1  0.74924413  0.07802311  0.78478197  1
  O  O12  1  0.86218347  0.89575635  0.85456045  1
  O  O13  1  0.12682056  0.45661847  0.12865238  1
  O  O14  1  0.63246870  0.66502390  0.24030106  1
  O  O15  1  0.65770296  0.13073706  0.93828576  1
  O  O16  1  0.10356831  0.31648914  0.49221257  1
  O  O17  1  0.87317944  0.54338153  0.87134762  1
  O  O18  1  -0.00108972  0.22329930  0.82591215  1
  O  O19  1  0.13781653  0.10424365  0.14543955  1
  O  O20  1  0.59176583  0.66688849  0.94647969  1
  O  O21  1  0.81670185  0.98553142  0.38839493  1
  O  O22  1  0.36753130  0.33497610  0.75969894  1
  O  O23  1  0.00108972  0.77670070  0.17408785  1
  O  O24  1  0.22623946  0.74997357  0.74129380  1
  O  O25  1  0.40823417  0.33311151  0.05352031  1
  O  O26  1  0.18329815  0.01446858  0.61160507  1
  O  O27  1  0.34229704  0.86926294  0.06171424  1
  O  O28  1  0.77376054  0.25002643  0.25870620  1
  O  O29  1  0.89643169  0.68351086  0.50778743  1
