# generated using pymatgen
data_Na3Zn(BO2)5
_symmetry_space_group_name_H-M   'P 1'
_cell_length_a   18.14018515
_cell_length_b   6.46047117
_cell_length_c   7.89818032
_cell_angle_alpha   65.95251020
_cell_angle_beta   90.00000000
_cell_angle_gamma   90.00000000
_symmetry_Int_Tables_number   1
_chemical_formula_structural   Na3Zn(BO2)5
_chemical_formula_sum   'Na12 Zn4 B20 O40'
_cell_volume   845.28404132
_cell_formula_units_Z   4
loop_
 _symmetry_equiv_pos_site_id
 _symmetry_equiv_pos_as_xyz
  1  'x, y, z'
loop_
 _atom_site_type_symbol
 _atom_site_label
 _atom_site_symmetry_multiplicity
 _atom_site_fract_x
 _atom_site_fract_y
 _atom_site_fract_z
 _atom_site_occupancy
  Na  Na0  1  0.41913713  0.66473403  0.10906298  1
  Na  Na1  1  0.43114962  0.62702754  0.65796142  1
  Na  Na2  1  0.56885038  0.37297246  0.34203858  1
  Na  Na3  1  0.25922081  0.20465928  0.92000337  1
  Na  Na4  1  0.06885038  0.62702754  0.15796142  1
  Na  Na5  1  0.93114962  0.37297246  0.84203858  1
  Na  Na6  1  0.75922081  0.79534072  0.57999663  1
  Na  Na7  1  0.58086287  0.33526597  0.89093702  1
  Na  Na8  1  0.74077919  0.79534072  0.07999663  1
  Na  Na9  1  0.24077919  0.20465928  0.42000337  1
  Na  Na10  1  0.91913713  0.33526597  0.39093702  1
  Na  Na11  1  0.08086287  0.66473403  0.60906298  1
  Zn  Zn12  1  0.40474819  0.14211270  0.69944318  1
  Zn  Zn13  1  0.90474819  0.85788730  0.80055682  1
  Zn  Zn14  1  0.09525181  0.14211270  0.19944318  1
  Zn  Zn15  1  0.59525181  0.85788730  0.30055682  1
  B  B16  1  0.92324150  0.81608861  0.15786345  1
  B  B17  1  0.07675850  0.18391139  0.84213655  1
  B  B18  1  0.70286236  0.20622430  0.17003738  1
  B  B19  1  0.16598414  0.93767208  0.76955237  1
  B  B20  1  0.80508333  0.45035290  -0.00004523  1
  B  B21  1  0.29713764  0.79377570  0.82996262  1
  B  B22  1  0.57086019  0.82664698  0.96413273  1
  B  B23  1  0.69491667  0.45035290  0.49995477  1
  B  B24  1  0.83401586  0.06232792  0.23044763  1
  B  B25  1  0.19491667  0.54964710  0.00004523  1
  B  B26  1  0.92913981  0.82664698  0.46413273  1
  B  B27  1  0.07086019  0.17335302  0.53586727  1
  B  B28  1  0.20286236  0.79377570  0.32996262  1
  B  B29  1  0.42324150  0.18391139  0.34213655  1
  B  B30  1  0.30508333  0.54964710  0.50004523  1
  B  B31  1  0.57675850  0.81608861  0.65786345  1
  B  B32  1  0.42913981  0.17335302  0.03586727  1
  B  B33  1  0.66598414  0.06232792  0.73044763  1
  B  B34  1  0.33401586  0.93767208  0.26955237  1
  B  B35  1  0.79713764  0.20622430  0.67003738  1
  O  O36  1  0.35692056  0.07040245  0.37384105  1
  O  O37  1  0.12972091  0.02366840  0.58714958  1
  O  O38  1  0.53914986  0.75997719  0.13102459  1
  O  O39  1  0.64307944  0.92959755  0.62615895  1
  O  O40  1  0.62992470  0.17268547  0.19522000  1
  O  O41  1  0.27102259  0.58459784  0.96079355  1
  O  O42  1  0.32663512  0.37524866  0.65211518  1
  O  O43  1  0.46085014  0.24002281  0.86897541  1
  O  O44  1  0.95689059  0.75856734  0.03349088  1
  O  O45  1  0.04310941  0.24143266  0.96650912  1
  O  O46  1  0.64541494  0.30113431  0.62419426  1
  O  O47  1  0.14541494  0.69886569  0.87580574  1
  O  O48  1  0.62972091  0.97633160  0.91285042  1
  O  O49  1  0.22897741  0.58459784  0.46079355  1
  O  O50  1  0.87027909  0.97633160  0.41285042  1
  O  O51  1  0.45477389  0.25759339  0.16340212  1
  O  O52  1  0.72897741  0.41540216  0.03920645  1
  O  O53  1  0.82663512  0.62475134  0.84788482  1
  O  O54  1  0.03914986  0.24002281  0.36897541  1
  O  O55  1  0.37027909  0.02366840  0.08714958  1
  O  O56  1  0.85458506  0.30113431  0.12419426  1
  O  O57  1  0.14307944  0.07040245  0.87384105  1
  O  O58  1  0.67336488  0.62475134  0.34788482  1
  O  O59  1  0.45689059  0.24143266  0.46650912  1
  O  O60  1  0.54310941  0.75856734  0.53349088  1
  O  O61  1  0.77102259  0.41540216  0.53920645  1
  O  O62  1  0.95477389  0.74240661  0.33659788  1
  O  O63  1  0.85692056  0.92959755  0.12615895  1
  O  O64  1  0.04522611  0.25759339  0.66340212  1
  O  O65  1  0.54522611  0.74240661  0.83659788  1
  O  O66  1  0.74587743  0.04026135  0.76034061  1
  O  O67  1  0.87007530  0.17268547  0.69522000  1
  O  O68  1  0.17336488  0.37524866  0.15211518  1
  O  O69  1  0.12992470  0.82731453  0.30478000  1
  O  O70  1  0.75412257  0.04026135  0.26034061  1
  O  O71  1  0.37007530  0.82731453  0.80478000  1
  O  O72  1  0.35458506  0.69886569  0.37580574  1
  O  O73  1  0.25412257  0.95973865  0.23965939  1
  O  O74  1  0.24587743  0.95973865  0.73965939  1
  O  O75  1  0.96085014  0.75997719  0.63102459  1
