# generated using pymatgen
data_TeCl4
_symmetry_space_group_name_H-M   'P 1'
_cell_length_a   10.14311330
_cell_length_b   10.14049441
_cell_length_c   14.93326553
_cell_angle_alpha   95.22438763
_cell_angle_beta   106.42558950
_cell_angle_gamma   116.65930423
_symmetry_Int_Tables_number   1
_chemical_formula_structural   TeCl4
_chemical_formula_sum   'Te8 Cl32'
_cell_volume   1273.40583024
_cell_formula_units_Z   8
loop_
 _symmetry_equiv_pos_site_id
 _symmetry_equiv_pos_as_xyz
  1  'x, y, z'
loop_
 _atom_site_type_symbol
 _atom_site_label
 _atom_site_symmetry_multiplicity
 _atom_site_fract_x
 _atom_site_fract_y
 _atom_site_fract_z
 _atom_site_occupancy
  Te  Te0  1  0.79928679  0.83739013  0.68167149  1
  Te  Te1  1  0.87689436  0.26454338  0.61004307  1
  Te  Te2  1  0.15447606  0.26698961  0.88978433  1
  Te  Te3  1  0.84552394  0.73301039  0.11021567  1
  Te  Te4  1  0.34473834  0.88270418  0.18182137  1
  Te  Te5  1  0.12310564  0.73545662  0.38995693  1
  Te  Te6  1  0.65526166  0.11729582  0.81817863  1
  Te  Te7  1  0.20071321  0.16260987  0.31832851  1
  Cl  Cl8  1  0.86781301  0.99233372  0.87660601  1
  Cl  Cl9  1  0.17424351  0.85663223  0.54643466  1
  Cl  Cl10  1  0.42306532  0.37310377  0.31055825  1
  Cl  Cl11  1  0.50458715  0.23062151  0.75587774  1
  Cl  Cl12  1  0.18952361  0.37177291  0.04639934  1
  Cl  Cl13  1  0.61559974  0.99124681  0.62305213  1
  Cl  Cl14  1  0.10870990  0.48464433  0.62248513  1
  Cl  Cl15  1  0.38440026  0.00875319  0.37694787  1
  Cl  Cl16  1  0.28079075  0.77561490  0.01898478  1
  Cl  Cl17  1  0.06677454  0.12167239  0.68578811  1
  Cl  Cl18  1  0.63770459  0.51352149  0.12228624  1
  Cl  Cl19  1  0.74389831  0.73852427  0.51887771  1
  Cl  Cl20  1  0.93585979  0.38062694  0.81432060  1
  Cl  Cl21  1  0.13218699  0.00766628  0.12339399  1
  Cl  Cl22  1  0.06414021  0.61937306  0.18567940  1
  Cl  Cl23  1  0.43686175  0.88715588  0.81020701  1
  Cl  Cl24  1  0.93322546  0.87832761  0.31421189  1
  Cl  Cl25  1  0.70988309  0.36639580  0.56194296  1
  Cl  Cl26  1  0.69570407  0.85198422  0.06192708  1
  Cl  Cl27  1  0.02549607  0.25131911  0.25607439  1
  Cl  Cl28  1  0.25610169  0.26147573  0.48112229  1
  Cl  Cl29  1  0.30429593  0.14801578  0.93807292  1
  Cl  Cl30  1  0.81047639  0.62822709  0.95360066  1
  Cl  Cl31  1  0.56313825  0.11284412  0.18979299  1
  Cl  Cl32  1  0.57693468  0.62689623  0.68944175  1
  Cl  Cl33  1  0.82575649  0.14336777  0.45356534  1
  Cl  Cl34  1  0.89129010  0.51535567  0.37751487  1
  Cl  Cl35  1  0.97450393  0.74868089  0.74392561  1
  Cl  Cl36  1  0.36229541  0.48647851  0.87771376  1
  Cl  Cl37  1  0.49541285  0.76937849  0.24412226  1
  Cl  Cl38  1  0.71920925  0.22438510  0.98101522  1
  Cl  Cl39  1  0.29011691  0.63360420  0.43805704  1
