# generated using pymatgen
data_RbGa3S5
_symmetry_space_group_name_H-M   'P 1'
_cell_length_a   12.76818290
_cell_length_b   7.18088272
_cell_length_c   10.36995071
_cell_angle_alpha   76.61605239
_cell_angle_beta   90.00000000
_cell_angle_gamma   90.00000000
_symmetry_Int_Tables_number   1
_chemical_formula_structural   RbGa3S5
_chemical_formula_sum   'Rb4 Ga12 S20'
_cell_volume   924.96517816
_cell_formula_units_Z   4
loop_
 _symmetry_equiv_pos_site_id
 _symmetry_equiv_pos_as_xyz
  1  'x, y, z'
loop_
 _atom_site_type_symbol
 _atom_site_label
 _atom_site_symmetry_multiplicity
 _atom_site_fract_x
 _atom_site_fract_y
 _atom_site_fract_z
 _atom_site_occupancy
  Rb  Rb0  1  0.61340003  0.83601089  0.39846786  1
  Rb  Rb1  1  0.11340003  0.16398911  0.10153214  1
  Rb  Rb2  1  0.38659997  0.16398911  0.60153214  1
  Rb  Rb3  1  0.88659997  0.83601089  0.89846786  1
  Ga  Ga4  1  0.92036375  0.79931907  0.40010284  1
  Ga  Ga5  1  0.57963625  0.79931907  0.90010284  1
  Ga  Ga6  1  0.42036375  0.20068093  0.09989716  1
  Ga  Ga7  1  0.39804559  0.55982601  0.80355361  1
  Ga  Ga8  1  0.10195441  0.55982601  0.30355361  1
  Ga  Ga9  1  0.33575711  0.70954142  0.12398910  1
  Ga  Ga10  1  0.60195441  0.44017399  0.19644639  1
  Ga  Ga11  1  0.07963625  0.20068093  0.59989716  1
  Ga  Ga12  1  0.66424289  0.29045858  0.87601090  1
  Ga  Ga13  1  0.89804559  0.44017399  0.69644639  1
  Ga  Ga14  1  0.16424289  0.70954142  0.62398910  1
  Ga  Ga15  1  0.83575711  0.29045858  0.37601090  1
  S  S16  1  0.83165775  0.71844788  0.58926399  1
  S  S17  1  0.10242298  0.80984523  0.40992852  1
  S  S18  1  0.66834225  0.71844788  0.08926399  1
  S  S19  1  0.39757702  0.80984523  0.90992852  1
  S  S20  1  0.33165775  0.28155212  0.91073601  1
  S  S21  1  0.66372278  0.34485697  0.40354192  1
  S  S22  1  0.58015152  0.57137573  0.76818218  1
  S  S23  1  0.60242298  0.19015477  0.09007148  1
  S  S24  1  0.89757702  0.19015477  0.59007148  1
  S  S25  1  0.63445651  0.06697131  0.75899194  1
  S  S26  1  0.36554349  0.93302869  0.24100806  1
  S  S27  1  0.16834225  0.28155212  0.41073601  1
  S  S28  1  0.08015152  0.42862427  0.73181782  1
  S  S29  1  0.91984848  0.57137573  0.26818218  1
  S  S30  1  0.86554349  0.06697131  0.25899194  1
  S  S31  1  0.13445651  0.93302869  0.74100806  1
  S  S32  1  0.83627722  0.34485697  0.90354192  1
  S  S33  1  0.33627722  0.65514303  0.59645808  1
  S  S34  1  0.41984848  0.42862427  0.23181782  1
  S  S35  1  0.16372278  0.65514303  0.09645808  1
