# generated using pymatgen
data_Na2TeO4
_symmetry_space_group_name_H-M   'P 1'
_cell_length_a   5.17118825
_cell_length_b   10.56868365
_cell_length_c   13.74279314
_cell_angle_alpha   76.51452187
_cell_angle_beta   90.00000000
_cell_angle_gamma   90.00000000
_symmetry_Int_Tables_number   1
_chemical_formula_structural   Na2TeO4
_chemical_formula_sum   'Na16 Te8 O32'
_cell_volume   730.37211457
_cell_formula_units_Z   8
loop_
 _symmetry_equiv_pos_site_id
 _symmetry_equiv_pos_as_xyz
  1  'x, y, z'
loop_
 _atom_site_type_symbol
 _atom_site_label
 _atom_site_symmetry_multiplicity
 _atom_site_fract_x
 _atom_site_fract_y
 _atom_site_fract_z
 _atom_site_occupancy
  Na  Na0  1  0.10478857  0.95703410  0.68598211  1
  Na  Na1  1  0.75072348  0.56859440  0.60254302  1
  Na  Na2  1  0.26146285  0.64484461  0.19743005  1
  Na  Na3  1  0.73853715  0.35515539  0.80256995  1
  Na  Na4  1  0.25072348  0.43140560  0.89745698  1
  Na  Na5  1  0.23853715  0.64484461  0.69743005  1
  Na  Na6  1  0.76146285  0.35515539  0.30256995  1
  Na  Na7  1  0.39521143  0.95703410  0.18598211  1
  Na  Na8  1  0.75625801  0.87074307  0.53280433  1
  Na  Na9  1  0.89521143  0.04296590  0.31401789  1
  Na  Na10  1  0.74927652  0.56859440  0.10254302  1
  Na  Na11  1  0.60478857  0.04296590  0.81401789  1
  Na  Na12  1  0.24927652  0.43140560  0.39745698  1
  Na  Na13  1  0.74374199  0.87074307  0.03280433  1
  Na  Na14  1  0.25625801  0.12925693  0.96719567  1
  Na  Na15  1  0.24374199  0.12925693  0.46719567  1
  Te  Te16  1  0.72479603  0.70868346  0.81628108  1
  Te  Te17  1  0.27520397  0.29131654  0.18371892  1
  Te  Te18  1  0.22479603  0.29131654  0.68371892  1
  Te  Te19  1  0.27623320  0.77618286  0.42320461  1
  Te  Te20  1  0.72376680  0.22381714  0.57679539  1
  Te  Te21  1  0.77623320  0.22381714  0.07679539  1
  Te  Te22  1  0.22376680  0.77618286  0.92320461  1
  Te  Te23  1  0.77520397  0.70868346  0.31628108  1
  O  O24  1  0.09461563  0.81534320  0.28649890  1
  O  O25  1  0.63584471  0.76414515  0.18941610  1
  O  O26  1  0.59747881  0.86109408  0.35590960  1
  O  O27  1  0.45102306  0.32268062  0.04799313  1
  O  O28  1  0.34968758  0.93134012  0.94247510  1
  O  O29  1  0.95102306  0.67731938  0.45200687  1
  O  O30  1  0.58410686  0.55691747  0.79565489  1
  O  O31  1  0.91939478  0.28107406  0.95219507  1
  O  O32  1  0.90252119  0.86109408  0.85590960  1
  O  O33  1  0.13584471  0.23585485  0.31058390  1
  O  O34  1  0.08060522  0.71892594  0.04780493  1
  O  O35  1  0.54897694  0.67731938  0.95200687  1
  O  O36  1  0.40538437  0.81534320  0.78649890  1
  O  O37  1  0.36415529  0.23585485  0.81058390  1
  O  O38  1  0.54915515  0.37012938  0.62274316  1
  O  O39  1  0.58060522  0.28107406  0.45219507  1
  O  O40  1  0.59461563  0.18465680  0.21350110  1
  O  O41  1  0.04897694  0.32268062  0.54799313  1
  O  O42  1  0.84968758  0.06865988  0.55752490  1
  O  O43  1  0.04915515  0.62987062  0.87725684  1
  O  O44  1  0.41589314  0.44308253  0.20434511  1
  O  O45  1  0.90538437  0.18465680  0.71350110  1
  O  O46  1  0.41939478  0.71892594  0.54780493  1
  O  O47  1  0.09747881  0.13890592  0.14409040  1
  O  O48  1  0.08410686  0.44308253  0.70434511  1
  O  O49  1  0.15031242  0.93134012  0.44247510  1
  O  O50  1  0.40252119  0.13890592  0.64409040  1
  O  O51  1  0.65031242  0.06865988  0.05752490  1
  O  O52  1  0.45084485  0.62987062  0.37725684  1
  O  O53  1  0.95084485  0.37012938  0.12274316  1
  O  O54  1  0.91589314  0.55691747  0.29565489  1
  O  O55  1  0.86415529  0.76414515  0.68941610  1
