# generated using pymatgen
data_DyPS4
_symmetry_space_group_name_H-M   'P 1'
_cell_length_a   12.16907522
_cell_length_b   12.16911832
_cell_length_c   12.16913419
_cell_angle_alpha   127.79358167
_cell_angle_beta   127.79353672
_cell_angle_gamma   76.95966726
_symmetry_Int_Tables_number   1
_chemical_formula_structural   DyPS4
_chemical_formula_sum   'Dy8 P8 S32'
_cell_volume   1092.41382125
_cell_formula_units_Z   8
loop_
 _symmetry_equiv_pos_site_id
 _symmetry_equiv_pos_as_xyz
  1  'x, y, z'
loop_
 _atom_site_type_symbol
 _atom_site_label
 _atom_site_symmetry_multiplicity
 _atom_site_fract_x
 _atom_site_fract_y
 _atom_site_fract_z
 _atom_site_occupancy
  Dy  Dy0  1  0.50000902  0.50001649  0.00002464  1
  Dy  Dy1  1  0.24998992  0.74998357  0.49997446  1
  Dy  Dy2  1  0.75001726  0.25000519  0.50002270  1
  Dy  Dy3  1  -0.00001743  -0.00000400  -0.00002135  1
  Dy  Dy4  1  0.24998655  0.25000794  -0.00000429  1
  Dy  Dy5  1  -0.00001401  0.50001015  0.49999548  1
  Dy  Dy6  1  0.50001258  -0.00000832  0.50000348  1
  Dy  Dy7  1  0.75001466  0.74998945  0.00000402  1
  P  P8  1  0.62499700  0.91297728  0.78797262  1
  P  P9  1  0.62500605  0.41300247  0.28799928  1
  P  P10  1  0.16296875  0.37499549  0.28796461  1
  P  P11  1  0.08699335  0.87499691  0.71199692  1
  P  P12  1  0.12500277  0.33702305  0.71202778  1
  P  P13  1  0.12499391  0.83699815  0.21200116  1
  P  P14  1  0.58703112  0.87500459  0.21203569  1
  P  P15  1  0.66300596  0.37500322  0.78800265  1
  S  S16  1  0.98484803  0.70956834  0.45121792  1
  S  S17  1  0.25835141  0.53365986  0.54878308  1
  S  S18  1  0.28365662  0.23486740  0.77530575  1
  S  S19  1  0.45957661  0.50836767  0.22471396  1
  S  S20  1  0.99163113  0.04042436  0.77528346  1
  S  S21  1  0.26512695  0.21634271  0.22469055  1
  S  S22  1  0.79043799  0.51515123  0.54878041  1
  S  S23  1  0.96633836  0.24164354  0.45121244  1
  S  S24  1  0.77980821  0.96841069  0.31997707  1
  S  S25  1  0.71841564  0.89845262  0.68861177  1
  S  S26  1  0.20982622  0.02976628  0.31134557  1
  S  S27  1  0.47023816  0.29017227  0.68865836  1
  S  S28  1  0.60155543  0.78158417  0.31139295  1
  S  S29  1  0.04016274  0.85153697  0.31995393  1
  S  S30  1  0.53158812  0.72019901  0.68002586  1
  S  S31  1  0.64846925  0.45983680  0.68005147  1
  S  S32  1  0.97019181  0.28158879  0.18002306  1
  S  S33  1  0.03158328  0.35154730  0.81138932  1
  S  S34  1  0.54017396  0.22023508  0.18865487  1
  S  S35  1  0.27976110  0.95982753  0.81134158  1
  S  S36  1  0.14844774  0.46841512  0.18860859  1
  S  S37  1  0.70983680  0.39846334  0.18004650  1
  S  S38  1  0.21841265  0.52980235  0.81997500  1
  S  S39  1  0.10153090  0.79016368  0.81994806  1
  S  S40  1  0.49164773  0.71633996  0.95121659  1
  S  S41  1  0.46634465  0.01513125  0.72469419  1
  S  S42  1  0.29042437  0.74163163  0.27528596  1
  S  S43  1  0.75836912  0.20957481  0.72471618  1
  S  S44  1  0.48487277  0.03365733  0.27530947  1
  S  S45  1  0.95956349  0.73484793  0.95121868  1
  S  S46  1  0.78365947  0.00835596  0.04878473  1
  S  S47  1  0.76515184  0.54043239  0.04878279  1
