# generated using pymatgen
data_RbNO3
_symmetry_space_group_name_H-M   'P 1'
_cell_length_a   10.33967689
_cell_length_b   10.33967640
_cell_length_c   7.32885327
_cell_angle_alpha   90.00000000
_cell_angle_beta   90.00000000
_cell_angle_gamma   120.00000063
_symmetry_Int_Tables_number   1
_chemical_formula_structural   RbNO3
_chemical_formula_sum   'Rb9 N9 O27'
_cell_volume   678.54799254
_cell_formula_units_Z   9
loop_
 _symmetry_equiv_pos_site_id
 _symmetry_equiv_pos_as_xyz
  1  'x, y, z'
loop_
 _atom_site_type_symbol
 _atom_site_label
 _atom_site_symmetry_multiplicity
 _atom_site_fract_x
 _atom_site_fract_y
 _atom_site_fract_z
 _atom_site_occupancy
  Rb  Rb0  1  0.44779870  0.21833899  0.28627252  1
  Rb  Rb1  1  0.77054129  0.55220130  0.95293952  1
  Rb  Rb2  1  0.78166101  0.22945871  0.61960552  1
  Rb  Rb3  1  0.09284799  0.87491605  0.66661099  1
  Rb  Rb4  1  0.78206906  0.90715201  0.33327699  1
  Rb  Rb5  1  0.12508395  0.21793094  -0.00005601  1
  Rb  Rb6  1  0.11274826  0.55221673  0.30510410  1
  Rb  Rb7  1  0.43946747  0.88725174  0.97177110  1
  Rb  Rb8  1  0.44778427  0.56053253  0.63843810  1
  N  N9  1  0.46194660  0.24032695  0.75719892  1
  N  N10  1  0.77837935  0.53805340  0.42386592  1
  N  N11  1  0.75967305  0.22162065  0.09053292  1
  N  N12  1  0.10954128  0.90574168  0.19482880  1
  N  N13  1  0.79620040  0.89045872  0.86149580  1
  N  N14  1  0.09425832  0.20379960  0.52816180  1
  N  N15  1  0.13220746  0.53766727  0.83458465  1
  N  N16  1  0.40546181  0.86779254  0.50125165  1
  N  N17  1  0.46233273  0.59453819  0.16791765  1
  O  O18  1  0.72022653  0.14100909  0.23027163  1
  O  O19  1  0.85899091  0.57921744  0.56360563  1
  O  O20  1  0.42078256  0.27977347  0.89693863  1
  O  O21  1  0.89496937  0.30410303  0.05015821  1
  O  O22  1  0.69589697  0.59086634  0.38349121  1
  O  O23  1  0.40913366  0.10503063  0.71682521  1
  O  O24  1  0.66005982  0.21997280  0.98768281  1
  O  O25  1  0.78002720  0.44008802  0.32101681  1
  O  O26  1  0.55991198  0.33994018  0.65434981  1
  O  O27  1  0.45899353  0.69401374  0.26632865  1
  O  O28  1  0.30598626  0.76498080  0.59966265  1
  O  O29  1  0.23501920  0.54100647  0.93299565  1
  O  O30  1  0.38351390  0.46006064  0.21140518  1
  O  O31  1  0.53993936  0.92345326  0.54473918  1
  O  O32  1  0.07654674  0.61648610  0.87807218  1
  O  O33  1  0.54497975  0.63431244  0.02920754  1
  O  O34  1  0.36568756  0.91066631  0.36254154  1
  O  O35  1  0.08933369  0.45502025  0.69587454  1
  O  O36  1  0.99306166  0.10668539  0.63028434  1
  O  O37  1  0.89331461  0.88637427  0.96361834  1
  O  O38  1  0.11362573  0.00693834  0.29695134  1
  O  O39  1  0.22873105  0.25053845  0.56592137  1
  O  O40  1  0.74946155  0.97819359  0.89925437  1
  O  O41  1  0.02180641  0.77126895  0.23258837  1
  O  O42  1  0.05654290  0.25021847  0.39113528  1
  O  O43  1  0.74978153  0.80632442  0.72446928  1
  O  O44  1  0.19367558  0.94345710  0.05780228  1
