# generated using pymatgen
data_Al2VCl8
_symmetry_space_group_name_H-M   'P 1'
_cell_length_a   9.40497040
_cell_length_b   9.40499154
_cell_length_c   11.67031168
_cell_angle_alpha   53.98517565
_cell_angle_beta   53.98491580
_cell_angle_gamma   50.30489304
_symmetry_Int_Tables_number   1
_chemical_formula_structural   Al2VCl8
_chemical_formula_sum   'Al4 V2 Cl16'
_cell_volume   603.88888760
_cell_formula_units_Z   2
loop_
 _symmetry_equiv_pos_site_id
 _symmetry_equiv_pos_as_xyz
  1  'x, y, z'
loop_
 _atom_site_type_symbol
 _atom_site_label
 _atom_site_symmetry_multiplicity
 _atom_site_fract_x
 _atom_site_fract_y
 _atom_site_fract_z
 _atom_site_occupancy
  Al  Al0  1  0.33138645  0.83900417  0.46741428  1
  Al  Al1  1  0.16099249  0.66861555  0.03258668  1
  Al  Al2  1  0.66861119  0.16099727  0.53258801  1
  Al  Al3  1  0.83900776  0.33138506  0.96741182  1
  V  V4  1  0.00175554  0.99824480  0.74999984  1
  V  V5  1  0.99824319  0.00175640  0.25000078  1
  Cl  Cl6  1  0.62610889  0.68689146  0.44867550  1
  Cl  Cl7  1  0.37388979  0.31309408  0.55133081  1
  Cl  Cl8  1  0.86940322  0.81978820  0.02299201  1
  Cl  Cl9  1  0.29170598  0.84752923  0.81518694  1
  Cl  Cl10  1  0.13058803  0.18020611  0.97701796  1
  Cl  Cl11  1  0.15246822  0.70829411  0.68481471  1
  Cl  Cl12  1  0.68691479  0.62610618  0.94866849  1
  Cl  Cl13  1  0.70830146  0.15246867  0.18481591  1
  Cl  Cl14  1  0.14413918  0.68583397  0.21787978  1
  Cl  Cl15  1  0.81978438  0.86942038  0.52298126  1
  Cl  Cl16  1  0.85586038  0.31417739  0.78211848  1
  Cl  Cl17  1  0.84753470  0.29169878  0.31518257  1
  Cl  Cl18  1  0.18021106  0.13059598  0.47700734  1
  Cl  Cl19  1  0.31416936  0.85584774  0.28212445  1
  Cl  Cl20  1  0.31310550  0.37389585  0.05132489  1
  Cl  Cl21  1  0.68581944  0.14414562  0.71787850  1
