# generated using pymatgen
data_Mg2Mn(PO4)2
_symmetry_space_group_name_H-M   'P 1'
_cell_length_a   8.94995832
_cell_length_b   9.81198305
_cell_length_c   9.46808511
_cell_angle_alpha   72.23973394
_cell_angle_beta   112.94976305
_cell_angle_gamma   74.46464941
_symmetry_Int_Tables_number   1
_chemical_formula_structural   Mg2Mn(PO4)2
_chemical_formula_sum   'Mg8 Mn4 P8 O32'
_cell_volume   654.40830131
_cell_formula_units_Z   4
loop_
 _symmetry_equiv_pos_site_id
 _symmetry_equiv_pos_as_xyz
  1  'x, y, z'
loop_
 _atom_site_type_symbol
 _atom_site_label
 _atom_site_symmetry_multiplicity
 _atom_site_fract_x
 _atom_site_fract_y
 _atom_site_fract_z
 _atom_site_occupancy
  Mg  Mg0  1  0.53053244  0.64079148  0.42310593  1
  Mg  Mg1  1  0.03053489  0.64078946  0.92310535  1
  Mg  Mg2  1  0.42100786  0.85912725  0.81381162  1
  Mg  Mg3  1  0.92101574  0.85912990  0.31381532  1
  Mg  Mg4  1  0.96947021  0.35920906  0.07689335  1
  Mg  Mg5  1  0.46946083  0.35921191  0.57689378  1
  Mg  Mg6  1  0.07898823  0.14087773  0.68618693  1
  Mg  Mg7  1  0.57898216  0.14087437  0.18618607  1
  Mn  Mn8  1  -0.00001079  0.50001590  0.49997140  1
  Mn  Mn9  1  0.24998919  -0.00000298  0.24999570  1
  Mn  Mn10  1  0.50001101  0.49998612  0.00003786  1
  Mn  Mn11  1  0.74999562  -0.00000815  0.75000443  1
  P  P12  1  0.76831431  0.69829110  0.06597165  1
  P  P13  1  0.26831902  0.69828484  0.56598057  1
  P  P14  1  0.21680242  0.80165878  0.01448899  1
  P  P15  1  0.71680055  0.80166230  0.51448455  1
  P  P16  1  0.73168631  0.30170464  0.43403705  1
  P  P17  1  0.23169034  0.30170848  0.93402904  1
  P  P18  1  0.28319942  0.19833804  0.48550500  1
  P  P19  1  0.78320331  0.19833867  0.98551650  1
  O  O20  1  0.61594776  0.65174724  0.05940935  1
  O  O21  1  0.11594352  0.65174389  0.55939903  1
  O  O22  1  0.51789364  0.84811477  0.46134971  1
  O  O23  1  0.01789601  0.84811361  0.96135082  1
  O  O24  1  0.88405448  0.34825800  0.44059369  1
  O  O25  1  0.38405901  0.34825750  0.94060039  1
  O  O26  1  0.98210278  0.15188471  0.03864378  1
  O  O27  1  0.48210927  0.15188300  0.53865583  1
  O  O28  1  0.86914655  0.70641890  0.23292162  1
  O  O29  1  0.36914554  0.70640194  0.73293955  1
  O  O30  1  0.32567309  0.79362966  0.18953668  1
  O  O31  1  0.82567888  0.79361960  0.68953222  1
  O  O32  1  0.63085131  0.29358906  0.26708046  1
  O  O33  1  0.13085283  0.29360534  0.76705348  1
  O  O34  1  0.17432861  0.20636212  0.31046411  1
  O  O35  1  0.67431479  0.20637429  0.81046842  1
  O  O36  1  0.66622514  0.86276947  0.90405713  1
  O  O37  1  0.16623416  0.86277016  0.40407601  1
  O  O38  1  0.77937016  0.63719934  0.51715475  1
  O  O39  1  0.27937859  0.63719690  0.01717520  1
  O  O40  1  0.83377739  0.13722359  0.59594146  1
  O  O41  1  0.33376650  0.13722377  0.09591880  1
  O  O42  1  0.72063211  0.36280830  0.98283183  1
  O  O43  1  0.22061293  0.36281106  0.48279941  1
  O  O44  1  0.90513980  0.57889017  0.05030545  1
  O  O45  1  0.40514566  0.57888959  0.55031192  1
  O  O46  1  0.23422861  0.92110480  0.87936443  1
  O  O47  1  0.73422612  0.92110463  0.37936488  1
  O  O48  1  0.59486709  0.42110458  0.44970742  1
  O  O49  1  0.09486169  0.42110499  0.94969477  1
  O  O50  1  0.26577312  0.07890146  0.62063687  1
  O  O51  1  0.76577178  0.07890468  0.12063845  1
