# generated using pymatgen
data_RuO4
_symmetry_space_group_name_H-M   'P 1'
_cell_length_a   4.37411474
_cell_length_b   5.10455618
_cell_length_c   7.84446298
_cell_angle_alpha   77.22705233
_cell_angle_beta   73.83537227
_cell_angle_gamma   64.61811513
_symmetry_Int_Tables_number   1
_chemical_formula_structural   RuO4
_chemical_formula_sum   'Ru2 O8'
_cell_volume   150.93881260
_cell_formula_units_Z   2
loop_
 _symmetry_equiv_pos_site_id
 _symmetry_equiv_pos_as_xyz
  1  'x, y, z'
loop_
 _atom_site_type_symbol
 _atom_site_label
 _atom_site_symmetry_multiplicity
 _atom_site_fract_x
 _atom_site_fract_y
 _atom_site_fract_z
 _atom_site_occupancy
  Ru  Ru0  1  0.24493010  0.74980588  0.24989495  1
  Ru  Ru1  1  0.75507622  0.25020571  0.75010080  1
  O  O2  1  0.90464537  0.80935838  0.42489459  1
  O  O3  1  0.41309655  0.54510142  0.69278720  1
  O  O4  1  0.13884538  0.69034690  0.07488321  1
  O  O5  1  0.58692992  0.45487971  0.30722198  1
  O  O6  1  0.65081752  0.95531821  0.80749410  1
  O  O7  1  0.86114261  0.30962558  0.92512183  1
  O  O8  1  0.34919049  0.04469865  0.19249842  1
  O  O9  1  0.09532585  0.19066056  0.57509992  1
