# generated using pymatgen
data_NiPtF6
_symmetry_space_group_name_H-M   'P 1'
_cell_length_a   5.35113071
_cell_length_b   5.34979608
_cell_length_c   5.35264513
_cell_angle_alpha   54.53551763
_cell_angle_beta   54.49174231
_cell_angle_gamma   54.51440503
_symmetry_Int_Tables_number   1
_chemical_formula_structural   NiPtF6
_chemical_formula_sum   'Ni1 Pt1 F6'
_cell_volume   94.49433325
_cell_formula_units_Z   1
loop_
 _symmetry_equiv_pos_site_id
 _symmetry_equiv_pos_as_xyz
  1  'x, y, z'
loop_
 _atom_site_type_symbol
 _atom_site_label
 _atom_site_symmetry_multiplicity
 _atom_site_fract_x
 _atom_site_fract_y
 _atom_site_fract_z
 _atom_site_occupancy
  Ni  Ni0  1  -0.00000000  0.00000000  0.00000000  1
  Pt  Pt1  1  0.50000000  0.50000000  0.50000000  1
  F  F2  1  0.90387815  0.25259730  0.59311281  1
  F  F3  1  0.25205952  0.59209775  0.90476780  1
  F  F4  1  0.40795525  0.09544717  0.74612069  1
  F  F5  1  0.74794048  0.40790225  0.09523220  1
  F  F6  1  0.09612185  0.74740270  0.40688719  1
  F  F7  1  0.59204475  0.90455283  0.25387931  1
