# generated using pymatgen
data_Na4Sc2Si4O13
_symmetry_space_group_name_H-M   'P 1'
_cell_length_a   5.27715248
_cell_length_b   14.16320765
_cell_length_c   14.41127100
_cell_angle_alpha   90.00000000
_cell_angle_beta   90.00000000
_cell_angle_gamma   90.00000000
_symmetry_Int_Tables_number   1
_chemical_formula_structural   Na4Sc2Si4O13
_chemical_formula_sum   'Na16 Sc8 Si16 O52'
_cell_volume   1077.11866219
_cell_formula_units_Z   4
loop_
 _symmetry_equiv_pos_site_id
 _symmetry_equiv_pos_as_xyz
  1  'x, y, z'
loop_
 _atom_site_type_symbol
 _atom_site_label
 _atom_site_symmetry_multiplicity
 _atom_site_fract_x
 _atom_site_fract_y
 _atom_site_fract_z
 _atom_site_occupancy
  Na  Na0  1  0.80838824  0.94847420  0.21111422  1
  Na  Na1  1  0.17310292  0.42138217  0.91665147  1
  Na  Na2  1  0.78084614  0.30188771  0.83557430  1
  Na  Na3  1  0.21915386  0.69811229  0.33557430  1
  Na  Na4  1  0.82743246  0.67039790  0.62229480  1
  Na  Na5  1  0.69161176  0.44847420  0.21111422  1
  Na  Na6  1  0.17256754  0.32960210  0.12229480  1
  Na  Na7  1  0.30838824  0.55152580  0.71111422  1
  Na  Na8  1  0.67310292  0.07861783  0.41665147  1
  Na  Na9  1  0.32689708  0.92138217  0.91665147  1
  Na  Na10  1  0.82689708  0.57861783  0.41665147  1
  Na  Na11  1  0.28084614  0.19811229  0.33557430  1
  Na  Na12  1  0.71915386  0.80188771  0.83557430  1
  Na  Na13  1  0.19161176  0.05152580  0.71111422  1
  Na  Na14  1  0.67256754  0.17039790  0.62229480  1
  Na  Na15  1  0.32743246  0.82960210  0.12229480  1
  Sc  Sc16  1  0.68974505  0.33006032  0.42114334  1
  Sc  Sc17  1  0.81025495  0.83006032  0.42114334  1
  Sc  Sc18  1  0.34992369  0.07900658  0.12649758  1
  Sc  Sc19  1  0.18974505  0.16993968  0.92114334  1
  Sc  Sc20  1  0.15007631  0.57900658  0.12649758  1
  Sc  Sc21  1  0.65007631  0.92099342  0.62649758  1
  Sc  Sc22  1  0.84992369  0.42099342  0.62649758  1
  Sc  Sc23  1  0.31025495  0.66993968  0.92114334  1
  Si  Si24  1  0.35073958  0.52321627  0.49934955  1
  Si  Si25  1  0.29994308  0.94164748  0.31933094  1
  Si  Si26  1  0.32707861  0.72635437  0.54634737  1
  Si  Si27  1  0.70005692  0.05835252  0.81933094  1
  Si  Si28  1  0.14926042  0.02321627  0.49934955  1
  Si  Si29  1  0.64926042  0.47678373  -0.00065045  1
  Si  Si30  1  0.67292139  0.27364563  0.04634737  1
  Si  Si31  1  0.17292139  0.22635437  0.54634737  1
  Si  Si32  1  0.82698482  0.19350485  0.22840522  1
  Si  Si33  1  0.82707861  0.77364563  0.04634737  1
  Si  Si34  1  0.20005692  0.44164748  0.31933094  1
  Si  Si35  1  0.67301518  0.69350485  0.22840522  1
  Si  Si36  1  0.79994308  0.55835252  0.81933094  1
  Si  Si37  1  0.17301518  0.80649515  0.72840522  1
  Si  Si38  1  0.32698482  0.30649515  0.72840522  1
  Si  Si39  1  0.85073958  0.97678373  -0.00065045  1
  O  O40  1  0.88293956  0.14600063  0.84123053  1
  O  O41  1  0.48524864  0.62672489  0.52415466  1
  O  O42  1  0.56564224  0.77279177  0.98953766  1
  O  O43  1  0.79370925  0.96697283  0.88636104  1
  O  O44  1  0.67983956  0.72324337  0.33714330  1
  O  O45  1  0.32016044  0.27675663  0.83714330  1
  O  O46  1  0.20629075  0.03302717  0.38636104  1
  O  O47  1  0.70629075  0.46697283  0.88636104  1
  O  O48  1  0.11386551  0.17511298  0.19361887  1
  O  O49  1  0.63731587  0.10570364  0.21675112  1
  O  O50  1  0.75305781  0.53237613  0.71101265  1
  O  O51  1  0.96669208  0.30929115  0.53042385  1
  O  O52  1  0.43435776  0.22720823  0.48953766  1
  O  O53  1  0.93435776  0.27279177  0.98953766  1
  O  O54  1  0.59407598  0.92681673  0.34654381  1
  O  O55  1  0.07132480  0.05448766  0.01570999  1
  O  O56  1  0.92867520  0.94551234  0.51570999  1
  O  O57  1  0.09407598  0.57318327  0.84654381  1
  O  O58  1  0.72794840  0.28283582  0.15982196  1
  O  O59  1  0.06564224  0.72720823  0.48953766  1
  O  O60  1  0.38613449  0.67511298  0.19361887  1
  O  O61  1  0.46669208  0.19070885  0.03042385  1
  O  O62  1  0.57132480  0.44551234  0.51570999  1
  O  O63  1  0.24694219  0.46762387  0.21101265  1
  O  O64  1  0.59377822  0.98296837  0.05707977  1
  O  O65  1  0.01475136  0.12672489  0.52415466  1
  O  O66  1  0.88613449  0.82488702  0.69361887  1
  O  O67  1  0.42867520  0.55448766  0.01570999  1
  O  O68  1  0.90622178  0.48296837  0.05707977  1
  O  O69  1  0.11706044  0.85399937  0.34123053  1
  O  O70  1  0.36268413  0.89429636  0.71675112  1
  O  O71  1  0.40592402  0.07318327  0.84654381  1
  O  O72  1  0.27205160  0.71716418  0.65982196  1
  O  O73  1  0.90592402  0.42681673  0.34654381  1
  O  O74  1  0.09377822  0.51703163  0.55707977  1
  O  O75  1  0.61386551  0.32488702  0.69361887  1
  O  O76  1  0.74694219  0.03237613  0.71101265  1
  O  O77  1  0.17983956  0.77675663  0.83714330  1
  O  O78  1  0.77205160  0.78283582  0.15982196  1
  O  O79  1  0.22794840  0.21716418  0.65982196  1
  O  O80  1  0.38293956  0.35399937  0.34123053  1
  O  O81  1  0.25305781  0.96762387  0.21101265  1
  O  O82  1  0.82016044  0.22324337  0.33714330  1
  O  O83  1  0.86268413  0.60570364  0.21675112  1
  O  O84  1  0.98524864  0.87327511  0.02415466  1
  O  O85  1  0.13731587  0.39429636  0.71675112  1
  O  O86  1  0.53330792  0.80929115  0.53042385  1
  O  O87  1  0.03330792  0.69070885  0.03042385  1
  O  O88  1  0.40622178  0.01703163  0.55707977  1
  O  O89  1  0.61706044  0.64600063  0.84123053  1
  O  O90  1  0.51475136  0.37327511  0.02415466  1
  O  O91  1  0.29370925  0.53302717  0.38636104  1
