# generated using pymatgen
data_Rb2MnF6
_symmetry_space_group_name_H-M   'P 1'
_cell_length_a   5.88600578
_cell_length_b   5.88600919
_cell_length_c   9.56659595
_cell_angle_alpha   90.00009084
_cell_angle_beta   89.99989664
_cell_angle_gamma   120.00014301
_symmetry_Int_Tables_number   1
_chemical_formula_structural   Rb2MnF6
_chemical_formula_sum   'Rb4 Mn2 F12'
_cell_volume   287.03116740
_cell_formula_units_Z   2
loop_
 _symmetry_equiv_pos_site_id
 _symmetry_equiv_pos_as_xyz
  1  'x, y, z'
loop_
 _atom_site_type_symbol
 _atom_site_label
 _atom_site_symmetry_multiplicity
 _atom_site_fract_x
 _atom_site_fract_y
 _atom_site_fract_z
 _atom_site_occupancy
  Rb  Rb0  1  0.66666680  0.33333255  0.37436502  1
  Rb  Rb1  1  0.33333337  0.66666756  0.87437990  1
  Rb  Rb2  1  0.00000009  0.99999969  0.59955148  1
  Rb  Rb3  1  0.00000142  0.00000060  0.09973246  1
  Mn  Mn4  1  0.33333334  0.66666657  0.25619960  1
  Mn  Mn5  1  0.66666700  0.33333271  0.75629057  1
  F  F6  1  0.52215104  0.47784925  0.64509591  1
  F  F7  1  0.04423133  0.52211514  0.14506851  1
  F  F8  1  0.47788472  0.95576832  0.14506848  1
  F  F9  1  0.52214857  0.04429733  0.64509642  1
  F  F10  1  0.95570277  0.47785131  0.64509663  1
  F  F11  1  0.47788352  0.52211687  0.14506786  1
  F  F12  1  0.18488107  0.81511798  0.36148860  1
  F  F13  1  0.36977211  0.18489057  0.86150522  1
  F  F14  1  0.81510948  0.63022732  0.86150517  1
  F  F15  1  0.18488434  0.36976382  0.36148884  1
  F  F16  1  0.63023613  0.81511621  0.36148877  1
  F  F17  1  0.81511490  0.18488420  0.86150356  1
