# generated using pymatgen
data_TiTe3O8
_symmetry_space_group_name_H-M   'P 1'
_cell_length_a   9.53573741
_cell_length_b   9.53564435
_cell_length_c   9.53570518
_cell_angle_alpha   109.47124752
_cell_angle_beta   109.47068760
_cell_angle_gamma   109.47161738
_symmetry_Int_Tables_number   1
_chemical_formula_structural   TiTe3O8
_chemical_formula_sum   'Ti4 Te12 O32'
_cell_volume   667.47628337
_cell_formula_units_Z   4
loop_
 _symmetry_equiv_pos_site_id
 _symmetry_equiv_pos_as_xyz
  1  'x, y, z'
loop_
 _atom_site_type_symbol
 _atom_site_label
 _atom_site_symmetry_multiplicity
 _atom_site_fract_x
 _atom_site_fract_y
 _atom_site_fract_z
 _atom_site_occupancy
  Ti  Ti0  1  0.50000535  0.00001480  -0.00000410  1
  Ti  Ti1  1  -0.00000562  -0.00000988  0.49999460  1
  Ti  Ti2  1  0.49999046  0.49999682  0.50000331  1
  Ti  Ti3  1  -0.00000561  0.49999687  -0.00001000  1
  Te  Te4  1  0.79047317  0.54040747  0.25006940  1
  Te  Te5  1  0.54043150  0.25005776  0.79041965  1
  Te  Te6  1  0.04042725  0.24998344  0.29040310  1
  Te  Te7  1  0.74999561  0.20955815  0.45956367  1
  Te  Te8  1  0.29043830  0.04042932  0.25000488  1
  Te  Te9  1  0.24999949  0.29041451  0.04043097  1
  Te  Te10  1  0.20956230  0.45955656  0.74997236  1
  Te  Te11  1  0.45954940  0.74997662  0.20954010  1
  Te  Te12  1  0.74998183  0.70957600  0.95962194  1
  Te  Te13  1  0.70957336  0.95955983  0.74999785  1
  Te  Te14  1  0.25005655  0.79049133  0.54046032  1
  Te  Te15  1  0.95954721  0.74998897  0.70958782  1
  O  O16  1  0.65557687  0.50000528  0.00001001  1
  O  O17  1  0.84442256  0.84443804  0.84442920  1
  O  O18  1  0.00000192  0.65556127  0.50000401  1
  O  O19  1  0.49999821  0.00000423  0.65555894  1
  O  O20  1  0.34442464  0.50000395  0.99999096  1
  O  O21  1  0.15557474  0.15556674  0.15556844  1
  O  O22  1  -0.00000173  0.34442133  0.49999237  1
  O  O23  1  0.50000124  -0.00000099  0.34442259  1
  O  O24  1  0.16271195  0.23393925  0.69456509  1
  O  O25  1  0.03938851  0.46814535  0.80543083  1
  O  O26  1  0.33728994  0.03187271  0.07123150  1
  O  O27  1  0.80542505  0.03935626  0.46813013  1
  O  O28  1  0.23394985  0.69457802  0.16271455  1
  O  O29  1  0.26604968  0.42875960  0.46062646  1
  O  O30  1  0.42876377  0.46062103  0.26605237  1
  O  O31  1  0.46814577  0.80543689  0.03936689  1
  O  O32  1  0.53936947  0.73394247  0.57123089  1
  O  O33  1  0.30542211  0.83728840  0.76606000  1
  O  O34  1  0.96814077  0.92876900  0.66272161  1
  O  O35  1  0.92877941  0.66274376  0.96818538  1
  O  O36  1  0.53183051  0.19454817  0.96059758  1
  O  O37  1  0.57123876  0.53938942  0.73394437  1
  O  O38  1  0.73392620  0.57122737  0.53936512  1
  O  O39  1  0.76605935  0.30544322  0.83726039  1
  O  O40  1  0.19457407  0.96063937  0.53185356  1
  O  O41  1  0.66271365  0.96814777  0.92876054  1
  O  O42  1  0.96063650  0.53181555  0.19456525  1
  O  O43  1  0.83729721  0.76605054  0.30545501  1
  O  O44  1  0.46062301  0.26605413  0.42877792  1
  O  O45  1  0.69457243  0.16273583  0.23394673  1
  O  O46  1  0.03183524  0.07121513  0.33726774  1
  O  O47  1  0.07123878  0.33728133  0.03185770  1
