# generated using pymatgen
data_BiAsO4
_symmetry_space_group_name_H-M   'P 1'
_cell_length_a   5.09986735
_cell_length_b   5.09986651
_cell_length_c   6.85357723
_cell_angle_alpha   111.84263807
_cell_angle_beta   111.84263559
_cell_angle_gamma   90.00001598
_symmetry_Int_Tables_number   1
_chemical_formula_structural   BiAsO4
_chemical_formula_sum   'Bi2 As2 O8'
_cell_volume   151.58198113
_cell_formula_units_Z   2
loop_
 _symmetry_equiv_pos_site_id
 _symmetry_equiv_pos_as_xyz
  1  'x, y, z'
loop_
 _atom_site_type_symbol
 _atom_site_label
 _atom_site_symmetry_multiplicity
 _atom_site_fract_x
 _atom_site_fract_y
 _atom_site_fract_z
 _atom_site_occupancy
  Bi  Bi0  1  0.62500000  0.87500000  0.25000000  1
  Bi  Bi1  1  0.37500000  0.12500000  0.75000000  1
  As  As2  1  0.12500000  0.37500000  0.25000000  1
  As  As3  1  0.87500000  0.62500000  0.75000000  1
  O  O4  1  0.06112437  0.69873406  0.40580704  1
  O  O5  1  0.93887563  0.30126594  0.59419296  1
  O  O6  1  0.80126594  0.15531533  0.09419296  1
  O  O7  1  0.34468467  0.20707197  0.40580704  1
  O  O8  1  0.70707197  0.56112437  0.90580704  1
  O  O9  1  0.29292803  0.43887563  0.09419296  1
  O  O10  1  0.65531533  0.79292803  0.59419296  1
  O  O11  1  0.19873406  0.84468467  0.90580704  1
