# generated using pymatgen
data_In(PO3)3
_symmetry_space_group_name_H-M   'P 1'
_cell_length_a   7.55667305
_cell_length_b   7.55667305
_cell_length_c   9.67983658
_cell_angle_alpha   56.82159295
_cell_angle_beta   56.82159295
_cell_angle_gamma   51.86822753
_symmetry_Int_Tables_number   1
_chemical_formula_structural   In(PO3)3
_chemical_formula_sum   'In2 P6 O18'
_cell_volume   345.01965811
_cell_formula_units_Z   2
loop_
 _symmetry_equiv_pos_site_id
 _symmetry_equiv_pos_as_xyz
  1  'x, y, z'
loop_
 _atom_site_type_symbol
 _atom_site_label
 _atom_site_symmetry_multiplicity
 _atom_site_fract_x
 _atom_site_fract_y
 _atom_site_fract_z
 _atom_site_occupancy
  In  In0  1  0.48760552  0.01593463  0.50135834  1
  In  In1  1  0.01593463  0.48760552  0.00135834  1
  P  P2  1  0.81347482  0.98005257  0.67253165  1
  P  P3  1  0.00294410  0.21093181  0.82977684  1
  P  P4  1  0.57852752  0.43686259  0.73087662  1
  P  P5  1  0.98005257  0.81347482  0.17253165  1
  P  P6  1  0.21093181  0.00294410  0.32977684  1
  P  P7  1  0.43686259  0.57852752  0.23087662  1
  O  O8  1  0.76244854  0.40117353  0.78716388  1
  O  O9  1  0.50993935  0.67318751  0.59829173  1
  O  O10  1  0.72920899  0.25123530  0.62960687  1
  O  O11  1  0.25123530  0.72920899  0.12960687  1
  O  O12  1  0.84098683  0.87086598  0.33773052  1
  O  O13  1  0.38232449  0.39026297  0.39153917  1
  O  O14  1  0.33507255  0.09474776  0.33173832  1
  O  O15  1  0.06866303  0.16343913  0.20913313  1
  O  O16  1  0.87086598  0.84098683  0.83773052  1
  O  O17  1  0.95874658  0.63884271  0.16222858  1
  O  O18  1  0.63884271  0.95874658  0.66222858  1
  O  O19  1  0.91233154  0.05278963  0.01932435  1
  O  O20  1  0.67318751  0.50993935  0.09829173  1
  O  O21  1  0.16343913  0.06866303  0.70913313  1
  O  O22  1  0.09474776  0.33507255  0.83173832  1
  O  O23  1  0.39026297  0.38232449  0.89153917  1
  O  O24  1  0.40117353  0.76244854  0.28716388  1
  O  O25  1  0.05278963  0.91233154  0.51932435  1
