# generated using pymatgen
data_Na2Zn2O3
_symmetry_space_group_name_H-M   'P 1'
_cell_length_a   6.15717705
_cell_length_b   6.15717705
_cell_length_c   9.34317363
_cell_angle_alpha   90.00000000
_cell_angle_beta   90.00000000
_cell_angle_gamma   90.00000000
_symmetry_Int_Tables_number   1
_chemical_formula_structural   Na2Zn2O3
_chemical_formula_sum   'Na8 Zn8 O12'
_cell_volume   354.20745991
_cell_formula_units_Z   4
loop_
 _symmetry_equiv_pos_site_id
 _symmetry_equiv_pos_as_xyz
  1  'x, y, z'
loop_
 _atom_site_type_symbol
 _atom_site_label
 _atom_site_symmetry_multiplicity
 _atom_site_fract_x
 _atom_site_fract_y
 _atom_site_fract_z
 _atom_site_occupancy
  Na  Na0  1  0.74672633  0.53369860  0.64686789  1
  Na  Na1  1  0.96630140  0.24672633  0.39686789  1
  Na  Na2  1  0.46630140  0.25327367  0.85313211  1
  Na  Na3  1  0.25327367  0.46630140  0.14686789  1
  Na  Na4  1  0.03369860  0.75327367  0.89686789  1
  Na  Na5  1  0.75327367  0.03369860  0.10313211  1
  Na  Na6  1  0.53369860  0.74672633  0.35313211  1
  Na  Na7  1  0.24672633  0.96630140  0.60313211  1
  Zn  Zn8  1  0.25530501  0.45691439  0.61427666  1
  Zn  Zn9  1  0.04308561  0.75530501  0.36427666  1
  Zn  Zn10  1  0.45691439  0.25530501  0.38572334  1
  Zn  Zn11  1  0.75530501  0.04308561  0.63572334  1
  Zn  Zn12  1  0.24469499  0.95691439  0.13572334  1
  Zn  Zn13  1  0.54308561  0.74469499  0.88572334  1
  Zn  Zn14  1  0.95691439  0.24469499  0.86427666  1
  Zn  Zn15  1  0.74469499  0.54308561  0.11427666  1
  O  O16  1  0.32071774  0.67928226  0.75000000  1
  O  O17  1  0.24297482  0.51340979  0.40529433  1
  O  O18  1  0.48659021  0.75702518  0.09470567  1
  O  O19  1  0.75702518  0.48659021  0.90529433  1
  O  O20  1  0.67928226  0.32071774  0.25000000  1
  O  O21  1  0.98659021  0.74297482  0.15529433  1
  O  O22  1  0.82071774  0.82071774  0.50000000  1
  O  O23  1  0.51340979  0.24297482  0.59470567  1
  O  O24  1  0.01340979  0.25702518  0.65529433  1
  O  O25  1  0.25702518  0.01340979  0.34470567  1
  O  O26  1  0.74297482  0.98659021  0.84470567  1
  O  O27  1  0.17928226  0.17928226  -0.00000000  1
