# generated using pymatgen
data_SrAlH5
_symmetry_space_group_name_H-M   'P 1'
_cell_length_a   4.47477553
_cell_length_b   5.19432111
_cell_length_c   12.63421364
_cell_angle_alpha   90.00000000
_cell_angle_beta   90.00000000
_cell_angle_gamma   90.00000000
_symmetry_Int_Tables_number   1
_chemical_formula_structural   SrAlH5
_chemical_formula_sum   'Sr4 Al4 H20'
_cell_volume   293.66234661
_cell_formula_units_Z   4
loop_
 _symmetry_equiv_pos_site_id
 _symmetry_equiv_pos_as_xyz
  1  'x, y, z'
loop_
 _atom_site_type_symbol
 _atom_site_label
 _atom_site_symmetry_multiplicity
 _atom_site_fract_x
 _atom_site_fract_y
 _atom_site_fract_z
 _atom_site_occupancy
  Sr  Sr0  1  0.28654544  0.14577036  0.65801066  1
  Sr  Sr1  1  0.78654544  0.35422964  0.34198934  1
  Sr  Sr2  1  0.21345456  0.85422964  0.15801066  1
  Sr  Sr3  1  0.71345456  0.64577036  0.84198934  1
  Al  Al4  1  0.32117562  0.13262921  0.91552563  1
  Al  Al5  1  0.82117562  0.36737079  0.08447437  1
  Al  Al6  1  0.17882438  0.86737079  0.41552563  1
  Al  Al7  1  0.67882438  0.63262921  0.58447437  1
  H  H8  1  0.52662824  0.39451587  0.51232855  1
  H  H9  1  0.02662824  0.10548413  0.48767145  1
  H  H10  1  0.97337176  0.60548413  0.01232855  1
  H  H11  1  0.47337176  0.89451587  0.98767145  1
  H  H12  1  0.17126981  0.91138060  0.82986971  1
  H  H13  1  0.67126981  0.58861940  0.17013029  1
  H  H14  1  0.32873019  0.08861940  0.32986971  1
  H  H15  1  0.82873019  0.41138060  0.67013029  1
  H  H16  1  0.19315122  0.38543648  0.84233245  1
  H  H17  1  0.69315122  0.11456352  0.15766755  1
  H  H18  1  0.30684878  0.61456352  0.34233245  1
  H  H19  1  0.80684878  0.88543648  0.65766755  1
  H  H20  1  0.62419365  0.13630938  0.83014182  1
  H  H21  1  0.12419365  0.36369062  0.16985818  1
  H  H22  1  0.87580635  0.86369062  0.33014182  1
  H  H23  1  0.37580635  0.63630938  0.66985818  1
  H  H24  1  0.01684122  0.13531062  0.00389400  1
  H  H25  1  0.51684122  0.36468938  0.99610600  1
  H  H26  1  0.48315878  0.86468938  0.50389400  1
  H  H27  1  0.98315878  0.63531062  0.49610600  1
