# generated using pymatgen
data_KFeF4
_symmetry_space_group_name_H-M   'P 1'
_cell_length_a   3.94861507
_cell_length_b   6.32672728
_cell_length_c   7.65146675
_cell_angle_alpha   90.00000000
_cell_angle_beta   90.00000000
_cell_angle_gamma   108.18332441
_symmetry_Int_Tables_number   1
_chemical_formula_structural   KFeF4
_chemical_formula_sum   'K2 Fe2 F8'
_cell_volume   181.60214508
_cell_formula_units_Z   2
loop_
 _symmetry_equiv_pos_site_id
 _symmetry_equiv_pos_as_xyz
  1  'x, y, z'
loop_
 _atom_site_type_symbol
 _atom_site_label
 _atom_site_symmetry_multiplicity
 _atom_site_fract_x
 _atom_site_fract_y
 _atom_site_fract_z
 _atom_site_occupancy
  K  K0  1  0.72919603  0.45839306  0.75000000  1
  K  K1  1  0.27080397  0.54160694  0.25000000  1
  Fe  Fe2  1  -0.00000000  -0.00000000  0.00000000  1
  Fe  Fe3  1  -0.00000000  -0.00000000  0.50000000  1
  F  F4  1  0.15261710  0.30523620  0.55309463  1
  F  F5  1  0.84738290  0.69476380  0.44690437  1
  F  F6  1  0.84738290  0.69476380  0.05309463  1
  F  F7  1  0.15261710  0.30523620  0.94690537  1
  F  F8  1  0.50000000  -0.00000000  0.00000000  1
  F  F9  1  0.50000000  -0.00000000  0.50000000  1
  F  F10  1  0.95880813  0.91761827  0.75000000  1
  F  F11  1  0.04119187  0.08238173  0.25000000  1
