# generated using pymatgen
data_Sn2P2O7
_symmetry_space_group_name_H-M   'P 1'
_cell_length_a   5.28754536
_cell_length_b   11.52563086
_cell_length_c   11.65664704
_cell_angle_alpha   101.64672415
_cell_angle_beta   99.07837635
_cell_angle_gamma   98.64644755
_symmetry_Int_Tables_number   1
_chemical_formula_structural   Sn2P2O7
_chemical_formula_sum   'Sn8 P8 O28'
_cell_volume   674.74066689
_cell_formula_units_Z   4
loop_
 _symmetry_equiv_pos_site_id
 _symmetry_equiv_pos_as_xyz
  1  'x, y, z'
loop_
 _atom_site_type_symbol
 _atom_site_label
 _atom_site_symmetry_multiplicity
 _atom_site_fract_x
 _atom_site_fract_y
 _atom_site_fract_z
 _atom_site_occupancy
  Sn  Sn0  1  0.26734659  0.50040346  0.14069266  1
  Sn  Sn1  1  0.82710503  0.15218489  0.02249085  1
  Sn  Sn2  1  0.73265318  0.49959629  0.85930752  1
  Sn  Sn3  1  0.17289534  0.84781543  0.97750924  1
  Sn  Sn4  1  0.23371066  0.36569677  0.46877427  1
  Sn  Sn5  1  0.68648906  0.94574792  0.36937155  1
  Sn  Sn6  1  0.31351129  0.05425203  0.63062809  1
  Sn  Sn7  1  0.76628933  0.63430355  0.53122570  1
  P  P8  1  0.82352933  0.27955376  0.64888859  1
  P  P9  1  0.79380501  0.73044656  0.14606502  1
  P  P10  1  0.30919326  0.67312550  0.74340315  1
  P  P11  1  0.69080705  0.32687451  0.25659692  1
  P  P12  1  0.71552676  0.88386719  0.74556285  1
  P  P13  1  0.28447416  0.11613304  0.25443715  1
  P  P14  1  0.17647036  0.72044595  0.35111189  1
  P  P15  1  0.20619399  0.26955326  0.85393424  1
  O  O16  1  0.58513648  0.18460040  0.58495997  1
  O  O17  1  0.43782162  0.81218195  0.75664588  1
  O  O18  1  0.34701089  0.17358763  0.79946833  1
  O  O19  1  0.89038157  0.91452564  0.86893618  1
  O  O20  1  0.41486378  0.81539938  0.41503961  1
  O  O21  1  0.82748095  0.80721068  0.65306351  1
  O  O22  1  0.17252015  0.19278953  0.34693671  1
  O  O23  1  0.34745887  0.00203210  0.28734223  1
  O  O24  1  0.15355146  0.25443320  0.97557426  1
  O  O25  1  0.04803575  0.27094027  0.58345362  1
  O  O26  1  0.95196393  0.72906029  0.41654630  1
  O  O27  1  0.33887964  0.39632535  0.85816326  1
  O  O28  1  0.75820334  0.40460205  0.67954428  1
  O  O29  1  0.84453348  0.37440045  0.38293344  1
  O  O30  1  0.65298976  0.82641239  0.20053120  1
  O  O31  1  0.65254137  0.99796800  0.71265773  1
  O  O32  1  0.53213349  0.60698332  0.76413520  1
  O  O33  1  0.66112007  0.60367448  0.14183668  1
  O  O34  1  0.13933017  0.68091629  0.83782984  1
  O  O35  1  0.86067078  0.31908399  0.16217050  1
  O  O36  1  0.24179471  0.59539776  0.32045563  1
  O  O37  1  0.91795222  0.24711049  0.77480954  1
  O  O38  1  0.56217884  0.18781810  0.24335386  1
  O  O39  1  0.08204867  0.75288955  0.22519024  1
  O  O40  1  0.10961814  0.08547450  0.13106399  1
  O  O41  1  0.15546590  0.62559943  0.61706671  1
  O  O42  1  0.46786682  0.39301663  0.23586474  1
  O  O43  1  0.84644875  0.74556602  0.02442589  1
