# generated using pymatgen
data_Rb2Mo3O10
_symmetry_space_group_name_H-M   'P 1'
_cell_length_a   8.17281168
_cell_length_b   8.17281168
_cell_length_c   9.18705955
_cell_angle_alpha   83.01641602
_cell_angle_beta   83.01641602
_cell_angle_gamma   59.83957002
_symmetry_Int_Tables_number   1
_chemical_formula_structural   Rb2Mo3O10
_chemical_formula_sum   'Rb4 Mo6 O20'
_cell_volume   525.32733934
_cell_formula_units_Z   2
loop_
 _symmetry_equiv_pos_site_id
 _symmetry_equiv_pos_as_xyz
  1  'x, y, z'
loop_
 _atom_site_type_symbol
 _atom_site_label
 _atom_site_symmetry_multiplicity
 _atom_site_fract_x
 _atom_site_fract_y
 _atom_site_fract_z
 _atom_site_occupancy
  Rb  Rb0  1  0.40419876  0.23219794  0.15893832  1
  Rb  Rb1  1  0.76780206  0.59580124  0.34106168  1
  Rb  Rb2  1  0.59580124  0.76780206  0.84106168  1
  Rb  Rb3  1  0.23219794  0.40419876  0.65893832  1
  Mo  Mo4  1  0.18060571  0.03507416  0.47821212  1
  Mo  Mo5  1  0.96492584  0.81939429  0.02178788  1
  Mo  Mo6  1  0.81939429  0.96492584  0.52178788  1
  Mo  Mo7  1  0.03507416  0.18060571  0.97821212  1
  Mo  Mo8  1  0.28989693  0.71010307  0.25000000  1
  Mo  Mo9  1  0.71010307  0.28989693  0.75000000  1
  O  O10  1  0.34662029  0.89208111  0.31939280  1
  O  O11  1  0.10791889  0.65337971  0.18060720  1
  O  O12  1  0.65337971  0.10791889  0.68060720  1
  O  O13  1  0.89208111  0.34662029  0.81939280  1
  O  O14  1  0.94333060  0.10672848  0.59241017  1
  O  O15  1  0.89327152  0.05666940  0.90758983  1
  O  O16  1  0.05666940  0.89327152  0.40758983  1
  O  O17  1  0.10672848  0.94333060  0.09241017  1
  O  O18  1  0.33026098  0.95090532  0.61706201  1
  O  O19  1  0.04909468  0.66973902  0.88293799  1
  O  O20  1  0.66973902  0.04909468  0.38293799  1
  O  O21  1  0.95090532  0.33026098  0.11706201  1
  O  O22  1  0.14295400  0.25880567  0.41906723  1
  O  O23  1  0.74119433  0.85704600  0.08093277  1
  O  O24  1  0.85704600  0.74119433  0.58093277  1
  O  O25  1  0.25880567  0.14295400  0.91906723  1
  O  O26  1  0.47232145  0.63102342  0.11680806  1
  O  O27  1  0.36897658  0.52767855  0.38319194  1
  O  O28  1  0.52767855  0.36897658  0.88319194  1
  O  O29  1  0.63102342  0.47232145  0.61680806  1
