# generated using pymatgen
data_AlInS3
_symmetry_space_group_name_H-M   'P 1'
_cell_length_a   6.77113913
_cell_length_b   6.77022780
_cell_length_c   17.96964451
_cell_angle_alpha   89.99989250
_cell_angle_beta   90.00029741
_cell_angle_gamma   120.00207047
_symmetry_Int_Tables_number   1
_chemical_formula_structural   AlInS3
_chemical_formula_sum   'Al6 In6 S18'
_cell_volume   713.38845287
_cell_formula_units_Z   6
loop_
 _symmetry_equiv_pos_site_id
 _symmetry_equiv_pos_as_xyz
  1  'x, y, z'
loop_
 _atom_site_type_symbol
 _atom_site_label
 _atom_site_symmetry_multiplicity
 _atom_site_fract_x
 _atom_site_fract_y
 _atom_site_fract_z
 _atom_site_occupancy
  Al  Al0  1  0.66842729  0.98495030  0.48734280  1
  Al  Al1  1  0.31657590  0.33143043  0.15405148  1
  Al  Al2  1  0.33157789  0.01504414  0.98733475  1
  Al  Al3  1  0.68343095  0.66857220  0.65405877  1
  Al  Al4  1  0.98503745  0.31666287  0.32059361  1
  Al  Al5  1  0.01494963  0.68333928  0.82059075  1
  In  In6  1  0.66943195  0.66696622  0.29206871  1
  In  In7  1  0.66688180  0.99745684  0.12537420  1
  In  In8  1  0.99757547  0.33066390  0.95876691  1
  In  In9  1  0.00241580  0.66932857  0.45877620  1
  In  In10  1  0.33312328  0.00254260  0.62538316  1
  In  In11  1  0.33056684  0.33304433  0.79206896  1
  S  S12  1  0.96343841  0.33086505  0.80915716  1
  S  S13  1  0.29369123  0.00265770  0.11398641  1
  S  S14  1  0.36841733  0.33718282  0.94017923  1
  S  S15  1  0.00283630  0.70908578  0.94725411  1
  S  S16  1  0.33104117  0.36756559  0.64245841  1
  S  S17  1  0.96865715  0.63170142  0.60689625  1
  S  S18  1  -0.00285094  0.29089884  0.44725576  1
  S  S19  1  0.63157561  0.66280759  0.44018183  1
  S  S20  1  0.66897223  0.63244309  0.14245454  1
  S  S21  1  0.29099276  0.29369165  0.28067098  1
  S  S22  1  0.63252160  0.96356685  0.97582421  1
  S  S23  1  0.70900693  0.70632402  0.78067550  1
  S  S24  1  0.33704962  0.96872934  0.77345948  1
  S  S25  1  0.36747554  0.03642218  0.47584098  1
  S  S26  1  0.70632748  -0.00264666  0.61399422  1
  S  S27  1  0.03655782  0.66914290  0.30916805  1
  S  S28  1  0.03134784  0.36828808  0.10688635  1
  S  S29  1  0.66294968  0.03127207  0.27345021  1
