# generated using pymatgen
data_MgAl2O4
_symmetry_space_group_name_H-M   'P 1'
_cell_length_a   5.71143100
_cell_length_b   5.71143100
_cell_length_c   32.83957367
_cell_angle_alpha   84.94928670
_cell_angle_beta   84.94928670
_cell_angle_gamma   59.93990688
_symmetry_Int_Tables_number   1
_chemical_formula_structural   MgAl2O4
_chemical_formula_sum   'Mg14 Al28 O56'
_cell_volume   922.35982872
_cell_formula_units_Z   14
loop_
 _symmetry_equiv_pos_site_id
 _symmetry_equiv_pos_as_xyz
  1  'x, y, z'
loop_
 _atom_site_type_symbol
 _atom_site_label
 _atom_site_symmetry_multiplicity
 _atom_site_fract_x
 _atom_site_fract_y
 _atom_site_fract_z
 _atom_site_occupancy
  Mg  Mg0  1  0.65950525  0.65950525  0.02038476  1
  Mg  Mg1  1  -0.00035167  -0.00035167  0.00141477  1
  Mg  Mg2  1  0.43092094  0.43092094  0.21419327  1
  Mg  Mg3  1  0.23166205  0.23166205  0.30164858  1
  Mg  Mg4  1  0.51808883  0.51808883  0.44625230  1
  Mg  Mg5  1  0.62514140  0.62514140  0.12442042  1
  Mg  Mg6  1  0.91504823  0.91504823  0.26904641  1
  Mg  Mg7  1  0.80418436  0.80418436  0.58915152  1
  Mg  Mg8  1  0.19652139  0.19652139  0.41053490  1
  Mg  Mg9  1  0.08882339  0.08882339  0.73190957  1
  Mg  Mg10  1  0.37510434  0.37510434  0.87496258  1
  Mg  Mg11  1  0.48265231  0.48265231  0.55336699  1
  Mg  Mg12  1  0.76747301  0.76747301  0.69620220  1
  Mg  Mg13  1  0.05323420  0.05323420  0.83966438  1
  Al  Al14  1  0.94129675  0.94129675  0.16095034  1
  Al  Al15  1  0.64405544  0.14103792  0.07179738  1
  Al  Al16  1  0.28409361  0.28409361  0.14175134  1
  Al  Al17  1  0.14103792  0.64405544  0.07179738  1
  Al  Al18  1  0.14065623  0.14065623  0.07173396  1
  Al  Al19  1  0.92132002  0.43254590  0.21495229  1
  Al  Al20  1  0.57256557  0.57256557  0.28583223  1
  Al  Al21  1  0.43254590  0.92132002  0.21495229  1
  Al  Al22  1  0.21511171  0.71438034  0.35719382  1
  Al  Al23  1  0.00000488  0.00000488  0.49995482  1
  Al  Al24  1  0.85746395  0.85746395  0.42851405  1
  Al  Al25  1  0.71438034  0.21511171  0.35719382  1
  Al  Al26  1  0.71479247  0.71479247  0.35737076  1
  Al  Al27  1  0.50030085  0.00009673  0.49994004  1
  Al  Al28  1  0.14317028  0.14317028  0.57120604  1
  Al  Al29  1  0.00009673  0.50030085  0.49994004  1
  Al  Al30  1  0.28557913  0.78589830  0.64271781  1
  Al  Al31  1  0.57109191  0.57109191  0.78548185  1
  Al  Al32  1  0.78589830  0.28557913  0.64271781  1
  Al  Al33  1  0.42836535  0.42836535  0.71397818  1
  Al  Al34  1  0.28549364  0.28549364  0.64271365  1
  Al  Al35  1  0.07200741  0.57098205  0.78547832  1
  Al  Al36  1  0.85490066  0.85490066  0.92834343  1
  Al  Al37  1  0.71449253  0.71449253  0.85640332  1
  Al  Al38  1  0.85496908  0.36163544  0.92831278  1
  Al  Al39  1  0.57098205  0.07200741  0.78547832  1
  Al  Al40  1  0.36163544  0.85496908  0.92831278  1
  Al  Al41  1  0.33961471  0.33961471  0.98086675  1
  O  O42  1  0.29057847  0.83280981  0.04153912  1
  O  O43  1  0.96379425  0.96379425  0.10574811  1
  O  O44  1  0.83280981  0.29057847  0.04153912  1
  O  O45  1  0.83335320  0.83335320  0.04148766  1
  O  O46  1  0.44404961  0.44404961  0.10417877  1
  O  O47  1  0.58705099  0.10519339  0.17594595  1
  O  O48  1  0.24383948  0.24383948  0.24135698  1
  O  O49  1  0.10519339  0.58705099  0.17594595  1
  O  O50  1  0.44304729  0.00547928  0.10366860  1
  O  O51  1  0.32113361  0.32113361  0.03595602  1
  O  O52  1  0.11241858  0.11241858  0.17722471  1
  O  O53  1  0.00547928  0.44304729  0.10366860  1
  O  O54  1  0.73872290  0.73872290  0.24772210  1
  O  O55  1  0.85760406  0.41187135  0.32392979  1
  O  O56  1  0.53743364  0.53743364  0.38716883  1
  O  O57  1  0.41187135  0.85760406  0.32392979  1
  O  O58  1  0.74717826  0.28787252  0.24985100  1
  O  O59  1  0.61555497  0.61555497  0.18307066  1
  O  O60  1  0.40980212  0.40980212  0.32339188  1
  O  O61  1  0.28787252  0.74717826  0.24985100  1
  O  O62  1  0.14199933  0.69587804  0.46667737  1
  O  O63  1  0.01806986  0.01806986  0.39143237  1
  O  O64  1  0.69587804  0.14199933  0.46667737  1
  O  O65  1  0.01823636  0.57323458  0.39150841  1
  O  O66  1  0.89138849  0.89138849  0.32811240  1
  O  O67  1  0.82335845  0.82335845  0.53010115  1
  O  O68  1  0.69587709  0.69587709  0.46667572  1
  O  O69  1  0.57323458  0.01823636  0.39150841  1
  O  O70  1  0.30381872  0.30381872  0.53412921  1
  O  O71  1  0.42769017  0.98145901  0.60943631  1
  O  O72  1  0.10891724  0.10891724  0.67287423  1
  O  O73  1  0.30361195  0.85897227  0.53414480  1
  O  O74  1  0.98145901  0.42769017  0.60943631  1
  O  O75  1  0.17663375  0.17663375  0.47038949  1
  O  O76  1  0.98177248  0.98177248  0.60944690  1
  O  O77  1  0.85897227  0.30361195  0.53414480  1
  O  O78  1  0.58906570  0.58906570  0.67691920  1
  O  O79  1  0.71271571  0.26728762  0.75219829  1
  O  O80  1  0.39457437  0.39457437  0.81576668  1
  O  O81  1  0.26728762  0.71271571  0.75219829  1
  O  O82  1  0.58925423  0.14414793  0.67692453  1
  O  O83  1  0.46221810  0.46221810  0.61317616  1
  O  O84  1  0.26703968  0.26703968  0.75220114  1
  O  O85  1  0.14414793  0.58925423  0.67692453  1
  O  O86  1  0.99687584  0.55430490  0.89446979  1
  O  O87  1  0.87543130  0.87543130  0.81964042  1
  O  O88  1  0.87542344  0.42916962  0.81966640  1
  O  O89  1  0.74790833  0.74790833  0.75603515  1
  O  O90  1  0.68006970  0.68006970  0.95920115  1
  O  O91  1  0.55430490  0.99687584  0.89446979  1
  O  O92  1  0.55432253  0.55432253  0.89446136  1
  O  O93  1  0.42916962  0.87542344  0.81966640  1
  O  O94  1  0.17589735  0.17589735  0.96090447  1
  O  O95  1  0.17575448  0.68728442  0.96089011  1
  O  O96  1  0.03319131  0.03319131  0.90045591  1
  O  O97  1  0.68728442  0.17575448  0.96089011  1
