# generated using pymatgen
data_ZnS
_symmetry_space_group_name_H-M   'P 1'
_cell_length_a   3.80878728
_cell_length_b   3.80878728
_cell_length_c   87.11078676
_cell_angle_alpha   90.00000000
_cell_angle_beta   90.00000000
_cell_angle_gamma   119.99998959
_symmetry_Int_Tables_number   1
_chemical_formula_structural   ZnS
_chemical_formula_sum   'Zn28 S28'
_cell_volume   1094.39991285
_cell_formula_units_Z   28
loop_
 _symmetry_equiv_pos_site_id
 _symmetry_equiv_pos_as_xyz
  1  'x, y, z'
loop_
 _atom_site_type_symbol
 _atom_site_label
 _atom_site_symmetry_multiplicity
 _atom_site_fract_x
 _atom_site_fract_y
 _atom_site_fract_z
 _atom_site_occupancy
  Zn  Zn0  1  0.00000000  -0.00000000  0.07142576  1
  Zn  Zn1  1  0.33333300  0.66666700  0.32142790  1
  Zn  Zn2  1  0.33333300  0.66666700  0.21429680  1
  Zn  Zn3  1  0.66666700  0.33333300  0.14286344  1
  Zn  Zn4  1  0.66666700  0.33333300  0.35714384  1
  Zn  Zn5  1  0.00000000  -0.00000000  0.39286574  1
  Zn  Zn6  1  0.66666700  0.33333300  0.46429231  1
  Zn  Zn7  1  -0.00000000  -0.00000000  0.82142129  1
  Zn  Zn8  1  0.33333300  0.66666700  0.64285942  1
  Zn  Zn9  1  0.66666700  0.33333300  0.57143180  1
  Zn  Zn10  1  0.66666700  0.33333300  0.78570871  1
  Zn  Zn11  1  0.33333300  0.66666700  0.53571956  1
  Zn  Zn12  1  0.66666700  0.33333300  0.85715597  1
  Zn  Zn13  1  0.33333300  0.66666700  0.89286216  1
  Zn  Zn14  1  -0.00000000  0.00000000  0.28571786  1
  Zn  Zn15  1  0.00000000  0.00000000  0.60714450  1
  Zn  Zn16  1  0.66666700  0.33333300  0.67857137  1
  Zn  Zn17  1  -0.00000000  0.00000000  0.71429456  1
  Zn  Zn18  1  0.33333300  0.66666700  0.10714483  1
  Zn  Zn19  1  -0.00000000  0.00000000  0.92857249  1
  Zn  Zn20  1  0.66666700  0.33333300  0.03572759  1
  Zn  Zn21  1  0.00000000  -0.00000000  0.17857434  1
  Zn  Zn22  1  0.33333300  0.66666700  0.99999939  1
  Zn  Zn23  1  0.00000000  -0.00000000  0.49999862  1
  Zn  Zn24  1  0.66666700  0.33333300  0.96428569  1
  Zn  Zn25  1  0.33333300  0.66666700  0.42857329  1
  Zn  Zn26  1  0.66666700  0.33333300  0.25000429  1
  Zn  Zn27  1  0.33333300  0.66666700  0.74999666  1
  S  S28  1  -0.00000000  0.00000000  0.20535532  1
  S  S29  1  0.33333300  0.66666700  0.34820960  1
  S  S30  1  0.66666700  0.33333300  0.81247220  1
  S  S31  1  0.66666700  0.33333300  0.99104451  1
  S  S32  1  0.33333300  0.66666700  0.45535498  1
  S  S33  1  0.33333300  0.66666700  0.02680453  1
  S  S34  1  0.00000000  0.00000000  0.63392513  1
  S  S35  1  0.00000000  0.00000000  0.84822800  1
  S  S36  1  0.33333300  0.66666700  0.91964201  1
  S  S37  1  0.00000000  0.00000000  0.41964822  1
  S  S38  1  0.00000000  0.00000000  0.09820889  1
  S  S39  1  0.33333300  0.66666700  0.13392577  1
  S  S40  1  0.00000000  0.00000000  0.31249747  1
  S  S41  1  0.66666700  0.33333300  0.88392639  1
  S  S42  1  0.00000000  0.00000000  0.52677879  1
  S  S43  1  0.66666700  0.33333300  0.38392879  1
  S  S44  1  0.33333300  0.66666700  0.66963597  1
  S  S45  1  0.33333300  0.66666700  0.77678412  1
  S  S46  1  0.66666700  0.33333300  0.59820990  1
  S  S47  1  0.33333300  0.66666700  0.24107333  1
  S  S48  1  -0.00000000  0.00000000  0.74107127  1
  S  S49  1  0.00000000  0.00000000  0.95535281  1
  S  S50  1  0.66666700  0.33333300  0.70535421  1
  S  S51  1  0.66666700  0.33333300  0.27678726  1
  S  S52  1  0.66666700  0.33333300  0.06249789  1
  S  S53  1  0.66666700  0.33333300  0.49106895  1
  S  S54  1  0.33333300  0.66666700  0.56249701  1
  S  S55  1  0.66666700  0.33333300  0.16963851  1
