# generated using pymatgen
data_NaNbO3
_symmetry_space_group_name_H-M   'P 1'
_cell_length_a   5.50155075
_cell_length_b   5.59235205
_cell_length_c   15.68355490
_cell_angle_alpha   90.00000000
_cell_angle_beta   90.00000000
_cell_angle_gamma   90.00000000
_symmetry_Int_Tables_number   1
_chemical_formula_structural   NaNbO3
_chemical_formula_sum   'Na8 Nb8 O24'
_cell_volume   482.52979530
_cell_formula_units_Z   8
loop_
 _symmetry_equiv_pos_site_id
 _symmetry_equiv_pos_as_xyz
  1  'x, y, z'
loop_
 _atom_site_type_symbol
 _atom_site_label
 _atom_site_symmetry_multiplicity
 _atom_site_fract_x
 _atom_site_fract_y
 _atom_site_fract_z
 _atom_site_occupancy
  Na  Na0  1  0.23963974  0.79144249  0.87629181  1
  Na  Na1  1  0.23963974  0.70855751  0.37629181  1
  Na  Na2  1  0.75446855  0.22361067  0.62850639  1
  Na  Na3  1  0.24553145  0.77638933  0.12850639  1
  Na  Na4  1  0.75446855  0.27638933  0.12850639  1
  Na  Na5  1  0.76036026  0.20855751  0.37629181  1
  Na  Na6  1  0.76036026  0.29144249  0.87629181  1
  Na  Na7  1  0.24553145  0.72361067  0.62850639  1
  Nb  Nb8  1  0.25227218  0.26943400  0.00103295  1
  Nb  Nb9  1  0.25819128  0.23772766  0.25167611  1
  Nb  Nb10  1  0.74772782  0.76943400  0.00103295  1
  Nb  Nb11  1  0.25819128  0.26227234  0.75167611  1
  Nb  Nb12  1  0.74180872  0.73772766  0.25167611  1
  Nb  Nb13  1  0.25227218  0.23056600  0.50103295  1
  Nb  Nb14  1  0.74772782  0.73056600  0.50103295  1
  Nb  Nb15  1  0.74180872  0.76227234  0.75167611  1
  O  O16  1  0.17541645  0.25221643  0.62033569  1
  O  O17  1  0.96063049  0.02807929  0.97437330  1
  O  O18  1  0.67161312  0.77896515  0.37039718  1
  O  O19  1  0.03936951  0.97192071  0.47437330  1
  O  O20  1  0.54577748  0.44716068  0.01298206  1
  O  O21  1  0.03936951  0.52807929  0.97437330  1
  O  O22  1  0.17541645  0.24778357  0.12033569  1
  O  O23  1  0.32838688  0.27896515  0.37039718  1
  O  O24  1  0.54577748  0.05283932  0.51298206  1
  O  O25  1  0.82458355  0.75221643  0.62033569  1
  O  O26  1  0.04091448  0.53030679  0.76460201  1
  O  O27  1  0.54040384  0.04630254  0.22540150  1
  O  O28  1  0.96063049  0.47192071  0.47437330  1
  O  O29  1  0.95908552  0.03030679  0.76460201  1
  O  O30  1  0.67161312  0.72103485  0.87039718  1
  O  O31  1  0.45422252  0.55283932  0.51298206  1
  O  O32  1  0.45422252  0.94716068  0.01298206  1
  O  O33  1  0.54040384  0.45369746  0.72540150  1
  O  O34  1  0.32838688  0.22103485  0.87039718  1
  O  O35  1  0.04091448  0.96969321  0.26460201  1
  O  O36  1  0.45959616  0.54630254  0.22540150  1
  O  O37  1  0.45959616  0.95369746  0.72540150  1
  O  O38  1  0.95908552  0.46969321  0.26460201  1
  O  O39  1  0.82458355  0.74778357  0.12033569  1
