# generated using pymatgen
data_CdSeO3
_symmetry_space_group_name_H-M   'P 1'
_cell_length_a   12.93395545
_cell_length_b   5.76007937
_cell_length_c   8.66201062
_cell_angle_alpha   78.55157905
_cell_angle_beta   90.00000000
_cell_angle_gamma   90.00000000
_symmetry_Int_Tables_number   1
_chemical_formula_structural   CdSeO3
_chemical_formula_sum   'Cd8 Se8 O24'
_cell_volume   632.48554756
_cell_formula_units_Z   8
loop_
 _symmetry_equiv_pos_site_id
 _symmetry_equiv_pos_as_xyz
  1  'x, y, z'
loop_
 _atom_site_type_symbol
 _atom_site_label
 _atom_site_symmetry_multiplicity
 _atom_site_fract_x
 _atom_site_fract_y
 _atom_site_fract_z
 _atom_site_occupancy
  Cd  Cd0  1  0.75508514  0.62183718  0.85147715  1
  Cd  Cd1  1  0.57698617  0.18355808  0.11146421  1
  Cd  Cd2  1  0.25508514  0.37816282  0.64852285  1
  Cd  Cd3  1  0.07698617  0.81644192  0.38853579  1
  Cd  Cd4  1  0.24491486  0.37816282  0.14852285  1
  Cd  Cd5  1  0.92301383  0.18355808  0.61146421  1
  Cd  Cd6  1  0.74491486  0.62183718  0.35147715  1
  Cd  Cd7  1  0.42301383  0.81644192  0.88853579  1
  Se  Se8  1  0.97462871  0.41681826  0.23249089  1
  Se  Se9  1  0.33150470  0.97232285  0.48084942  1
  Se  Se10  1  0.52537129  0.41681826  0.73249089  1
  Se  Se11  1  0.83150470  0.02767715  0.01915058  1
  Se  Se12  1  0.16849530  0.97232285  0.98084942  1
  Se  Se13  1  0.47462871  0.58318174  0.26750911  1
  Se  Se14  1  0.02537129  0.58318174  0.76750911  1
  Se  Se15  1  0.66849530  0.02767715  0.51915058  1
  O  O16  1  0.35004521  0.03234298  0.66415818  1
  O  O17  1  0.23725702  0.75855227  0.50480691  1
  O  O18  1  0.98097443  0.15880193  0.36684940  1
  O  O19  1  0.85004521  0.96765702  0.83584182  1
  O  O20  1  0.51902557  0.15880193  0.86684940  1
  O  O21  1  0.40455162  0.53840378  0.72529706  1
  O  O22  1  0.01902557  0.84119807  0.63315060  1
  O  O23  1  0.57831292  0.59753972  0.84750129  1
  O  O24  1  0.48097443  0.84119807  0.13315060  1
  O  O25  1  0.76203337  0.77422476  0.08559088  1
  O  O26  1  0.73796663  0.77422476  0.58559088  1
  O  O27  1  0.73725702  0.24144773  0.99519309  1
  O  O28  1  0.76274298  0.24144773  0.49519309  1
  O  O29  1  0.92168708  0.59753972  0.34750129  1
  O  O30  1  0.59544838  0.46159622  0.27470294  1
  O  O31  1  0.09544838  0.53840378  0.22529706  1
  O  O32  1  0.90455162  0.46159622  0.77470294  1
  O  O33  1  0.42168708  0.40246028  0.15249871  1
  O  O34  1  0.23796663  0.22577524  0.91440912  1
  O  O35  1  0.26274298  0.75855227  0.00480691  1
  O  O36  1  0.14995479  0.03234298  0.16415818  1
  O  O37  1  0.64995479  0.96765702  0.33584182  1
  O  O38  1  0.26203337  0.22577524  0.41440912  1
  O  O39  1  0.07831292  0.40246028  0.65249871  1
