# generated using pymatgen
data_Pr5C2Cl9
_symmetry_space_group_name_H-M   'P 1'
_cell_length_a   8.57072847
_cell_length_b   8.64975321
_cell_length_c   12.03369100
_cell_angle_alpha   84.46029212
_cell_angle_beta   85.12596925
_cell_angle_gamma   61.21972211
_symmetry_Int_Tables_number   1
_chemical_formula_structural   Pr5C2Cl9
_chemical_formula_sum   'Pr10 C4 Cl18'
_cell_volume   777.50357531
_cell_formula_units_Z   2
loop_
 _symmetry_equiv_pos_site_id
 _symmetry_equiv_pos_as_xyz
  1  'x, y, z'
loop_
 _atom_site_type_symbol
 _atom_site_label
 _atom_site_symmetry_multiplicity
 _atom_site_fract_x
 _atom_site_fract_y
 _atom_site_fract_z
 _atom_site_occupancy
  Pr  Pr0  1  0.13211345  0.26986523  0.26976755  1
  Pr  Pr1  1  0.77258128  0.07155314  0.25718606  1
  Pr  Pr2  1  0.79561389  0.31490470  0.50410797  1
  Pr  Pr3  1  0.20438611  0.68509530  0.49589203  1
  Pr  Pr4  1  0.60562086  0.59796094  0.21927330  1
  Pr  Pr5  1  0.39437914  0.40203906  0.78072670  1
  Pr  Pr6  1  0.22741872  0.92844686  0.74281394  1
  Pr  Pr7  1  0.89762049  0.29710888  0.99704662  1
  Pr  Pr8  1  0.10237951  0.70289112  0.00295338  1
  Pr  Pr9  1  0.86788655  0.73013477  0.73023245  1
  C  C10  1  0.85844973  0.30132270  0.19018981  1
  C  C11  1  0.82895179  0.31073757  0.30985613  1
  C  C12  1  0.17104821  0.68926243  0.69014387  1
  C  C13  1  0.14155027  0.69867730  0.80981019  1
  Cl  Cl14  1  0.16259559  0.86776317  0.25923173  1
  Cl  Cl15  1  0.39857579  0.40788136  0.27660782  1
  Cl  Cl16  1  0.78296265  0.66991500  0.96750419  1
  Cl  Cl17  1  0.91940416  0.65969224  0.22898553  1
  Cl  Cl18  1  0.60142421  0.59211864  0.72339218  1
  Cl  Cl19  1  0.21703735  0.33008500  0.03249581  1
  Cl  Cl20  1  0.21930422  0.96004712  0.97759295  1
  Cl  Cl21  1  0.51109728  0.01599856  0.76887062  1
  Cl  Cl22  1  0.48890272  0.98400144  0.23112938  1
  Cl  Cl23  1  0.83740441  0.13223683  0.74076827  1
  Cl  Cl24  1  0.17682852  0.05231667  0.50553617  1
  Cl  Cl25  1  0.78069578  0.03995288  0.02240705  1
  Cl  Cl26  1  0.54257235  0.67367125  0.44828626  1
  Cl  Cl27  1  0.08059584  0.34030776  0.77101447  1
  Cl  Cl28  1  0.50000000  0.50000000  -0.00000000  1
  Cl  Cl29  1  0.82317148  0.94768333  0.49446383  1
  Cl  Cl30  1  -0.00000000  0.50000000  0.50000000  1
  Cl  Cl31  1  0.45742765  0.32632875  0.55171374  1
