# generated using pymatgen
data_Ta2Hg2F11
_symmetry_space_group_name_H-M   'P 1'
_cell_length_a   12.10659498
_cell_length_b   12.10659498
_cell_length_c   14.47601801
_cell_angle_alpha   55.03393846
_cell_angle_beta   55.03393846
_cell_angle_gamma   35.76532924
_symmetry_Int_Tables_number   1
_chemical_formula_structural   Ta2Hg2F11
_chemical_formula_sum   'Ta8 Hg8 F44'
_cell_volume   990.03419318
_cell_formula_units_Z   4
loop_
 _symmetry_equiv_pos_site_id
 _symmetry_equiv_pos_as_xyz
  1  'x, y, z'
loop_
 _atom_site_type_symbol
 _atom_site_label
 _atom_site_symmetry_multiplicity
 _atom_site_fract_x
 _atom_site_fract_y
 _atom_site_fract_z
 _atom_site_occupancy
  Ta  Ta0  1  0.38312464  0.91759951  0.48207946  1
  Ta  Ta1  1  0.09269726  0.69902739  0.62962069  1
  Ta  Ta2  1  0.08240049  0.61687536  0.01792054  1
  Ta  Ta3  1  0.30097261  0.90730274  0.87037931  1
  Ta  Ta4  1  0.69902739  0.09269726  0.12962069  1
  Ta  Ta5  1  0.61687536  0.08240049  0.51792054  1
  Ta  Ta6  1  0.91759951  0.38312464  0.98207946  1
  Ta  Ta7  1  0.90730274  0.30097261  0.37037931  1
  Hg  Hg8  1  0.04627253  0.53722166  0.37445906  1
  Hg  Hg9  1  0.53722166  0.04627253  0.87445906  1
  Hg  Hg10  1  0.33875346  0.79678811  0.21357156  1
  Hg  Hg11  1  0.79678811  0.33875346  0.71357156  1
  Hg  Hg12  1  0.66124654  0.20321189  0.78642844  1
  Hg  Hg13  1  0.95372747  0.46277834  0.62554094  1
  Hg  Hg14  1  0.46277834  0.95372747  0.12554094  1
  Hg  Hg15  1  0.20321189  0.66124654  0.28642844  1
  F  F16  1  0.87551342  0.45792838  0.40554130  1
  F  F17  1  0.20950947  0.38847212  0.00246586  1
  F  F18  1  0.61152788  0.79049053  0.49753414  1
  F  F19  1  0.41031793  0.70924708  0.57975026  1
  F  F20  1  0.22263784  0.03481328  0.60931589  1
  F  F21  1  0.54207162  0.12448658  0.09445870  1
  F  F22  1  0.48800179  0.83400749  0.35071717  1
  F  F23  1  0.79049053  0.61152788  0.99753414  1
  F  F24  1  0.25791779  0.69350178  0.48402535  1
  F  F25  1  0.29075292  0.58968207  0.92024974  1
  F  F26  1  0.49542687  0.72013830  0.78448044  1
  F  F27  1  0.83400749  0.48800179  0.85071717  1
  F  F28  1  0.09274270  0.99808652  0.85302649  1
  F  F29  1  0.88781506  0.73618259  0.75488384  1
  F  F30  1  0.90725730  0.00191348  0.14697351  1
  F  F31  1  0.77736216  0.96518672  0.39068411  1
  F  F32  1  0.11218494  0.26381741  0.24511616  1
  F  F33  1  0.03481328  0.22263784  0.10931589  1
  F  F34  1  0.96518672  0.77736216  0.89068411  1
  F  F35  1  0.74208221  0.30649822  0.51597465  1
  F  F36  1  0.99808652  0.09274270  0.35302649  1
  F  F37  1  0.00191348  0.90725730  0.64697351  1
  F  F38  1  0.27986170  0.50457313  0.71551956  1
  F  F39  1  0.12226689  0.07499278  0.46510864  1
  F  F40  1  0.12448658  0.54207162  0.59445870  1
  F  F41  1  0.07499278  0.12226689  0.96510864  1
  F  F42  1  0.58968207  0.29075292  0.42024974  1
  F  F43  1  0.50457313  0.27986170  0.21551956  1
  F  F44  1  0.69350178  0.25791779  0.98402535  1
  F  F45  1  0.51199821  0.16599251  0.64928283  1
  F  F46  1  0.30649822  0.74208221  0.01597465  1
  F  F47  1  0.45792838  0.87551342  0.90554130  1
  F  F48  1  0.14623544  0.32314058  0.88120469  1
  F  F49  1  0.72013830  0.49542687  0.28448044  1
  F  F50  1  0.92500722  0.87773311  0.03489136  1
  F  F51  1  0.26381741  0.11218494  0.74511616  1
  F  F52  1  0.32314058  0.14623544  0.38120469  1
  F  F53  1  0.16599251  0.51199821  0.14928283  1
  F  F54  1  0.87773311  0.92500722  0.53489136  1
  F  F55  1  0.73618259  0.88781506  0.25488384  1
  F  F56  1  0.70924708  0.41031793  0.07975026  1
  F  F57  1  0.38847212  0.20950947  0.50246586  1
  F  F58  1  0.67685942  0.85376456  0.61879531  1
  F  F59  1  0.85376456  0.67685942  0.11879531  1
