# generated using pymatgen
data_Si4Mo2P4O23
_symmetry_space_group_name_H-M   'P 1'
_cell_length_a   5.23176741
_cell_length_b   8.40987805
_cell_length_c   11.19202501
_cell_angle_alpha   77.53471593
_cell_angle_beta   77.81656725
_cell_angle_gamma   73.19219114
_symmetry_Int_Tables_number   1
_chemical_formula_structural   Si4Mo2P4O23
_chemical_formula_sum   'Si4 Mo2 P4 O23'
_cell_volume   454.42764211
_cell_formula_units_Z   1
loop_
 _symmetry_equiv_pos_site_id
 _symmetry_equiv_pos_as_xyz
  1  'x, y, z'
loop_
 _atom_site_type_symbol
 _atom_site_label
 _atom_site_symmetry_multiplicity
 _atom_site_fract_x
 _atom_site_fract_y
 _atom_site_fract_z
 _atom_site_occupancy
  Si  Si0  1  0.05917504  0.18376039  0.71582783  1
  Si  Si1  1  0.44124476  0.68823349  0.42640662  1
  Si  Si2  1  0.55875524  0.31176651  0.57359338  1
  Si  Si3  1  0.94082496  0.81623961  0.28417217  1
  Mo  Mo4  1  0.28948264  0.25460567  0.15037589  1
  Mo  Mo5  1  0.71051736  0.74539433  0.84962411  1
  P  P6  1  0.15915148  0.68808465  0.05010024  1
  P  P7  1  0.25023264  0.80816636  0.66808515  1
  P  P8  1  0.74976736  0.19183364  0.33191485  1
  P  P9  1  0.84084852  0.31191535  0.94989976  1
  O  O10  1  0.41048257  0.04603992  0.17575093  1
  O  O11  1  0.97045315  0.17340205  0.86393541  1
  O  O12  1  0.85915349  0.47939915  0.87243469  1
  O  O13  1  0.14084651  0.52060085  0.12756531  1
  O  O14  1  0.36228615  0.81822140  0.52677528  1
  O  O15  1  0.46985151  0.70631372  0.74137438  1
  O  O16  1  0.54902373  0.30222957  0.99525299  1
  O  O17  1  0.70517236  0.72127474  0.33417237  1
  O  O18  1  -0.00081476  0.74051855  0.94362328  1
  O  O19  1  0.63771385  0.18177860  0.47322472  1
  O  O20  1  0.58951743  0.95396008  0.82424907  1
  O  O21  1  0.00363404  0.74007128  0.69363919  1
  O  O22  1  0.16899309  0.99351383  0.68608059  1
  O  O23  1  0.80683770  0.27822296  0.64545966  1
  O  O24  1  0.99636596  0.25992872  0.30636081  1
  O  O25  1  0.50000000  0.50000000  0.50000000  1
  O  O26  1  0.00081476  0.25948145  0.05637672  1
  O  O27  1  0.45097627  0.69777043  0.00474701  1
  O  O28  1  0.19316230  0.72177704  0.35454034  1
  O  O29  1  0.29482764  0.27872526  0.66582763  1
  O  O30  1  0.53014849  0.29368628  0.25862562  1
  O  O31  1  0.02954685  0.82659795  0.13606459  1
  O  O32  1  0.83100691  0.00648617  0.31391941  1
