# generated using pymatgen
data_B2S3
_symmetry_space_group_name_H-M   'P 1'
_cell_length_a   4.14694790
_cell_length_b   10.81777497
_cell_length_c   18.98906427
_cell_angle_alpha   90.00000000
_cell_angle_beta   96.30505231
_cell_angle_gamma   90.00000000
_symmetry_Int_Tables_number   1
_chemical_formula_structural   B2S3
_chemical_formula_sum   'B16 S24'
_cell_volume   846.71096007
_cell_formula_units_Z   8
loop_
 _symmetry_equiv_pos_site_id
 _symmetry_equiv_pos_as_xyz
  1  'x, y, z'
loop_
 _atom_site_type_symbol
 _atom_site_label
 _atom_site_symmetry_multiplicity
 _atom_site_fract_x
 _atom_site_fract_y
 _atom_site_fract_z
 _atom_site_occupancy
  B  B0  1  0.64408722  0.31047383  0.90125620  1
  B  B1  1  0.89502430  0.97113249  0.31803626  1
  B  B2  1  0.14408722  0.18952617  0.40125620  1
  B  B3  1  0.60497570  0.47113249  0.18196374  1
  B  B4  1  0.10497570  0.02886751  0.68196374  1
  B  B5  1  0.85591278  0.81047383  0.59874380  1
  B  B6  1  0.20292725  0.77649970  0.74113272  1
  B  B7  1  0.29707275  0.27649970  0.75886728  1
  B  B8  1  0.39502430  0.52886751  0.81803626  1
  B  B9  1  0.79707275  0.22350030  0.25886728  1
  B  B10  1  0.06458540  0.90174635  0.01015657  1
  B  B11  1  0.43541460  0.40174635  0.48984343  1
  B  B12  1  0.93541460  0.09825365  0.98984343  1
  B  B13  1  0.56458540  0.59825365  0.51015657  1
  B  B14  1  0.35591278  0.68952617  0.09874380  1
  B  B15  1  0.70292725  0.72350030  0.24113272  1
  S  S16  1  0.99146029  0.69875741  0.66600725  1
  S  S17  1  0.11732268  0.19733948  0.67920056  1
  S  S18  1  0.63432640  0.76244920  0.51471710  1
  S  S19  1  0.49146029  0.80124259  0.16600725  1
  S  S20  1  0.13432640  0.73755080  0.01471710  1
  S  S21  1  0.39694880  0.52363144  0.09854636  1
  S  S22  1  0.86567360  0.26244920  0.98528290  1
  S  S23  1  0.72444314  0.05977215  0.24343687  1
  S  S24  1  0.60305120  0.47636856  0.90145364  1
  S  S25  1  0.22444314  0.44022785  0.74343687  1
  S  S26  1  0.89694880  0.97636856  0.59854636  1
  S  S27  1  0.00853971  0.30124259  0.33399275  1
  S  S28  1  0.88267732  0.80266052  0.32079944  1
  S  S29  1  0.27555686  0.94022785  0.75656313  1
  S  S30  1  0.16414078  0.03205952  0.06915015  1
  S  S31  1  0.33585922  0.53205952  0.43084985  1
  S  S32  1  0.83585922  0.96794048  0.93084985  1
  S  S33  1  0.38267732  0.69733948  0.82079944  1
  S  S34  1  0.66414078  0.46794048  0.56915015  1
  S  S35  1  0.61732268  0.30266052  0.17920056  1
  S  S36  1  0.36567360  0.23755080  0.48528290  1
  S  S37  1  0.10305120  0.02363144  0.40145364  1
  S  S38  1  0.50853971  0.19875741  0.83399275  1
  S  S39  1  0.77555686  0.55977215  0.25656313  1
