# generated using pymatgen
data_KTiPSe5
_symmetry_space_group_name_H-M   'P 1'
_cell_length_a   10.01635871
_cell_length_b   10.01635871
_cell_length_c   6.75109851
_cell_angle_alpha   82.11033846
_cell_angle_beta   82.11033846
_cell_angle_gamma   43.52960363
_symmetry_Int_Tables_number   1
_chemical_formula_structural   KTiPSe5
_chemical_formula_sum   'K2 Ti2 P2 Se10'
_cell_volume   461.36693264
_cell_formula_units_Z   2
loop_
 _symmetry_equiv_pos_site_id
 _symmetry_equiv_pos_as_xyz
  1  'x, y, z'
loop_
 _atom_site_type_symbol
 _atom_site_label
 _atom_site_symmetry_multiplicity
 _atom_site_fract_x
 _atom_site_fract_y
 _atom_site_fract_z
 _atom_site_occupancy
  K  K0  1  0.73064194  0.73064194  0.76743009  1
  K  K1  1  0.26935806  0.26935806  0.23256991  1
  Ti  Ti2  1  0.72331476  0.27668524  0.00000000  1
  Ti  Ti3  1  0.27668524  0.72331476  0.00000000  1
  P  P4  1  0.86412790  0.86412790  0.21192411  1
  P  P5  1  0.13587210  0.13587210  0.78807589  1
  Se  Se6  1  0.08439391  0.08439391  0.11010509  1
  Se  Se7  1  0.56077010  0.56077010  0.18056543  1
  Se  Se8  1  0.32559867  0.84647151  0.66855730  1
  Se  Se9  1  0.91560609  0.91560609  0.88989491  1
  Se  Se10  1  0.67440133  0.15352849  0.33144270  1
  Se  Se11  1  0.84647151  0.32559867  0.66855730  1
  Se  Se12  1  0.43922990  0.43922990  0.81943457  1
  Se  Se13  1  0.74723971  0.74723971  0.25759801  1
  Se  Se14  1  0.15352849  0.67440133  0.33144270  1
  Se  Se15  1  0.25276029  0.25276029  0.74240199  1
