# generated using pymatgen
data_ZnS
_symmetry_space_group_name_H-M   'P 1'
_cell_length_a   3.80831795
_cell_length_b   3.80831634
_cell_length_c   43.62514150
_cell_angle_alpha   89.99992017
_cell_angle_beta   90.00008239
_cell_angle_gamma   119.99910569
_symmetry_Int_Tables_number   1
_chemical_formula_structural   ZnS
_chemical_formula_sum   'Zn14 S14'
_cell_volume   547.94580898
_cell_formula_units_Z   14
loop_
 _symmetry_equiv_pos_site_id
 _symmetry_equiv_pos_as_xyz
  1  'x, y, z'
loop_
 _atom_site_type_symbol
 _atom_site_label
 _atom_site_symmetry_multiplicity
 _atom_site_fract_x
 _atom_site_fract_y
 _atom_site_fract_z
 _atom_site_occupancy
  Zn  Zn0  1  0.66666751  0.33333249  0.14289912  1
  Zn  Zn1  1  0.33333643  0.66666357  0.07148045  1
  Zn  Zn2  1  0.66666278  0.33333722  0.57141545  1
  Zn  Zn3  1  0.00000117  0.99999883  0.21432170  1
  Zn  Zn4  1  0.00000093  0.99999907  0.78573326  1
  Zn  Zn5  1  0.33333359  0.66666641  0.64289906  1
  Zn  Zn6  1  0.33333248  0.66666752  0.42866609  1
  Zn  Zn7  1  0.66666477  0.33333523  0.85720139  1
  Zn  Zn8  1  0.33333339  0.66666661  0.92860190  1
  Zn  Zn9  1  0.66666749  0.33333251  0.71435637  1
  Zn  Zn10  1  0.33333605  0.66666395  0.28570942  1
  Zn  Zn11  1  0.66666721  0.33333279  0.35718281  1
  Zn  Zn12  1  0.99999988  0.00000012  0.00002566  1
  Zn  Zn13  1  0.99999781  0.00000219  0.50002803  1
  S  S14  1  0.99999240  0.00000760  0.55352393  1
  S  S15  1  0.33332752  0.66667248  0.48213161  1
  S  S16  1  0.66667056  0.33332944  0.19640063  1
  S  S17  1  0.33333703  0.66666297  0.33918921  1
  S  S18  1  0.66666338  0.33333662  0.91068853  1
  S  S19  1  0.99999698  0.00000302  0.83929599  1
  S  S20  1  0.66667039  0.33332961  0.76778297  1
  S  S21  1  0.00000396  0.99999604  0.26781977  1
  S  S22  1  0.33333685  0.66666315  0.69645197  1
  S  S23  1  0.66666164  0.33333836  0.41073995  1
  S  S24  1  0.00000402  0.99999598  0.05358467  1
  S  S25  1  0.66666334  0.33333666  0.62489799  1
  S  S26  1  0.33333020  0.66666980  0.98206255  1
  S  S27  1  0.33333721  0.66666279  0.12496650  1
