# generated using pymatgen
data_TiSO5
_symmetry_space_group_name_H-M   'P 1'
_cell_length_a   7.34186268
_cell_length_b   7.34186268
_cell_length_c   9.46259090
_cell_angle_alpha   90.10738517
_cell_angle_beta   90.10738517
_cell_angle_gamma   139.09685616
_symmetry_Int_Tables_number   1
_chemical_formula_structural   TiSO5
_chemical_formula_sum   'Ti4 S4 O20'
_cell_volume   333.97445845
_cell_formula_units_Z   4
loop_
 _symmetry_equiv_pos_site_id
 _symmetry_equiv_pos_as_xyz
  1  'x, y, z'
loop_
 _atom_site_type_symbol
 _atom_site_label
 _atom_site_symmetry_multiplicity
 _atom_site_fract_x
 _atom_site_fract_y
 _atom_site_fract_z
 _atom_site_occupancy
  Ti  Ti0  1  0.58754264  0.41245736  0.25000000  1
  Ti  Ti1  1  0.41245736  0.58754264  0.75000000  1
  Ti  Ti2  1  0.00000000  0.50000000  -0.00000000  1
  Ti  Ti3  1  0.50000000  0.00000000  0.50000000  1
  S  S4  1  0.64347337  0.85937849  0.06808540  1
  S  S5  1  0.14062151  0.35652663  0.43191460  1
  S  S6  1  0.35652663  0.14062151  0.93191460  1
  S  S7  1  0.85937849  0.64347337  0.56808540  1
  O  O8  1  0.83790285  0.14107825  0.41417587  1
  O  O9  1  0.85892175  0.16209715  0.08582413  1
  O  O10  1  0.16209715  0.85892175  0.58582413  1
  O  O11  1  0.14107825  0.83790285  0.91417587  1
  O  O12  1  0.34274048  0.20453960  0.07680084  1
  O  O13  1  0.79546040  0.65725952  0.42319916  1
  O  O14  1  0.65725952  0.79546040  0.92319916  1
  O  O15  1  0.20453960  0.34274048  0.57680084  1
  O  O16  1  0.69208046  0.75525211  0.17132588  1
  O  O17  1  0.24474789  0.30791954  0.32867412  1
  O  O18  1  0.30791954  0.24474789  0.82867412  1
  O  O19  1  0.75525211  0.69208046  0.67132588  1
  O  O20  1  0.46775738  0.12667661  0.34298261  1
  O  O21  1  0.87332339  0.53224262  0.15701739  1
  O  O22  1  0.53224262  0.87332339  0.65701739  1
  O  O23  1  0.12667661  0.46775738  0.84298261  1
  O  O24  1  0.36850603  0.73860598  0.09158049  1
  O  O25  1  0.26139402  0.63149397  0.40841951  1
  O  O26  1  0.63149397  0.26139402  0.90841951  1
  O  O27  1  0.73860598  0.36850603  0.59158049  1
