# generated using pymatgen
data_ZnS
_symmetry_space_group_name_H-M   'P 1'
_cell_length_a   3.80905459
_cell_length_b   3.80905391
_cell_length_c   43.57653078
_cell_angle_alpha   90.00000000
_cell_angle_beta   90.00000000
_cell_angle_gamma   120.00000580
_symmetry_Int_Tables_number   1
_chemical_formula_structural   ZnS
_chemical_formula_sum   'Zn14 S14'
_cell_volume   547.54217274
_cell_formula_units_Z   14
loop_
 _symmetry_equiv_pos_site_id
 _symmetry_equiv_pos_as_xyz
  1  'x, y, z'
loop_
 _atom_site_type_symbol
 _atom_site_label
 _atom_site_symmetry_multiplicity
 _atom_site_fract_x
 _atom_site_fract_y
 _atom_site_fract_z
 _atom_site_occupancy
  Zn  Zn0  1  0.66666700  0.33333300  0.14286063  1
  Zn  Zn1  1  0.33333300  0.66666700  0.78576728  1
  Zn  Zn2  1  0.33333300  0.66666700  0.07145927  1
  Zn  Zn3  1  0.66666700  0.33333300  0.57139345  1
  Zn  Zn4  1  -0.00000000  0.00000000  0.21422928  1
  Zn  Zn5  1  0.66666700  0.33333300  0.71433920  1
  Zn  Zn6  1  0.33333300  0.66666700  0.64286937  1
  Zn  Zn7  1  -0.00000000  0.00000000  0.35718181  1
  Zn  Zn8  1  -0.00000000  0.00000000  0.00004471  1
  Zn  Zn9  1  0.66666700  0.33333300  0.42845947  1
  Zn  Zn10  1  0.66666700  0.33333300  0.92851783  1
  Zn  Zn11  1  0.33333300  0.66666700  0.28570388  1
  Zn  Zn12  1  0.33333300  0.66666700  0.49988524  1
  Zn  Zn13  1  -0.00000000  0.00000000  0.85708933  1
  S  S14  1  0.66666700  0.33333300  0.98220324  1
  S  S15  1  0.66666700  0.33333300  0.19645270  1
  S  S16  1  0.33333300  0.66666700  0.33938133  1
  S  S17  1  0.33333300  0.66666700  0.69647685  1
  S  S18  1  0.66666700  0.33333300  0.76797386  1
  S  S19  1  -0.00000000  0.00000000  0.91064815  1
  S  S20  1  -0.00000000  0.00000000  0.26780221  1
  S  S21  1  0.33333300  0.66666700  0.55351907  1
  S  S22  1  -0.00000000  0.00000000  0.41072214  1
  S  S23  1  -0.00000000  0.00000000  0.05362470  1
  S  S24  1  0.66666700  0.33333300  0.48201237  1
  S  S25  1  0.66666700  0.33333300  0.62500218  1
  S  S26  1  0.33333300  0.66666700  0.83932480  1
  S  S27  1  0.33333300  0.66666700  0.12505366  1
