# generated using pymatgen
data_CsZnPO4
_symmetry_space_group_name_H-M   'P 1'
_cell_length_a   5.40448635
_cell_length_b   9.27260300
_cell_length_c   9.26948848
_cell_angle_alpha   90.00000000
_cell_angle_beta   90.00000000
_cell_angle_gamma   90.00000000
_symmetry_Int_Tables_number   1
_chemical_formula_structural   CsZnPO4
_chemical_formula_sum   'Cs4 Zn4 P4 O16'
_cell_volume   464.52796016
_cell_formula_units_Z   4
loop_
 _symmetry_equiv_pos_site_id
 _symmetry_equiv_pos_as_xyz
  1  'x, y, z'
loop_
 _atom_site_type_symbol
 _atom_site_label
 _atom_site_symmetry_multiplicity
 _atom_site_fract_x
 _atom_site_fract_y
 _atom_site_fract_z
 _atom_site_occupancy
  Cs  Cs0  1  0.76022476  0.00259251  0.79046383  1
  Cs  Cs1  1  0.26022476  0.49740749  0.29046383  1
  Cs  Cs2  1  0.26022476  0.99740749  0.20953617  1
  Cs  Cs3  1  0.76022476  0.50259251  0.70953617  1
  Zn  Zn4  1  0.25367108  0.32251442  0.91619278  1
  Zn  Zn5  1  0.75367108  0.17748558  0.41619278  1
  Zn  Zn6  1  0.25367108  0.82251442  0.58380722  1
  Zn  Zn7  1  0.75367108  0.67748558  0.08380722  1
  P  P8  1  0.75231474  0.80652330  0.41366326  1
  P  P9  1  0.25231474  0.19347670  0.58633674  1
  P  P10  1  0.75231474  0.30652330  0.08633674  1
  P  P11  1  0.25231474  0.69347670  0.91366326  1
  O  O12  1  0.58338277  0.75874234  0.53889607  1
  O  O13  1  0.08338277  0.74125766  0.03889607  1
  O  O14  1  0.65473271  0.23858635  0.22578967  1
  O  O15  1  0.58338277  0.25874234  0.96110393  1
  O  O16  1  0.01619249  0.75140091  0.44430264  1
  O  O17  1  0.15473271  0.26141365  0.72578967  1
  O  O18  1  0.51619249  0.24859909  0.55569736  1
  O  O19  1  0.01619249  0.25140091  0.05569736  1
  O  O20  1  0.25138045  0.02991962  0.60147078  1
  O  O21  1  0.08338277  0.24125766  0.46110393  1
  O  O22  1  0.75138045  0.47008038  0.10147078  1
  O  O23  1  0.75138045  0.97008038  0.39852922  1
  O  O24  1  0.25138045  0.52991962  0.89852922  1
  O  O25  1  0.15473271  0.76141365  0.77421033  1
  O  O26  1  0.65473271  0.73858635  0.27421033  1
  O  O27  1  0.51619249  0.74859909  0.94430264  1
