# generated using pymatgen
data_K3SnSe3
_symmetry_space_group_name_H-M   'P 1'
_cell_length_a   12.85591242
_cell_length_b   8.95014308
_cell_length_c   9.12860245
_cell_angle_alpha   64.40230497
_cell_angle_beta   90.00000000
_cell_angle_gamma   90.00000000
_symmetry_Int_Tables_number   1
_chemical_formula_structural   K3SnSe3
_chemical_formula_sum   'K12 Sn4 Se12'
_cell_volume   947.26489525
_cell_formula_units_Z   4
loop_
 _symmetry_equiv_pos_site_id
 _symmetry_equiv_pos_as_xyz
  1  'x, y, z'
loop_
 _atom_site_type_symbol
 _atom_site_label
 _atom_site_symmetry_multiplicity
 _atom_site_fract_x
 _atom_site_fract_y
 _atom_site_fract_z
 _atom_site_occupancy
  K  K0  1  0.93128719  0.71143649  0.77529103  1
  K  K1  1  0.43128719  0.78856351  0.22470897  1
  K  K2  1  0.06871281  0.28856351  0.22470897  1
  K  K3  1  0.56871281  0.21143649  0.77529103  1
  K  K4  1  0.83560291  0.98630443  0.00180214  1
  K  K5  1  0.33560291  0.51369557  0.99819786  1
  K  K6  1  0.16439709  0.01369557  0.99819786  1
  K  K7  1  0.66439709  0.48630443  0.00180214  1
  K  K8  1  0.78754292  0.18896627  0.44109039  1
  K  K9  1  0.28754292  0.31103373  0.55890961  1
  K  K10  1  0.21245708  0.81103373  0.55890961  1
  K  K11  1  0.71245708  0.68896627  0.44109039  1
  Sn  Sn12  1  0.99191417  0.37144037  0.65898823  1
  Sn  Sn13  1  0.49191417  0.12855963  0.34101177  1
  Sn  Sn14  1  0.00808583  0.62855963  0.34101177  1
  Sn  Sn15  1  0.50808583  0.87144037  0.65898823  1
  Se  Se16  1  0.80889633  0.37922402  0.75838399  1
  Se  Se17  1  0.30889633  0.12077598  0.24161601  1
  Se  Se18  1  0.19110367  0.62077598  0.24161601  1
  Se  Se19  1  0.69110367  0.87922402  0.75838399  1
  Se  Se20  1  0.02886674  0.09602127  0.65400830  1
  Se  Se21  1  0.52886674  0.40397873  0.34599170  1
  Se  Se22  1  0.97113326  0.90397873  0.34599170  1
  Se  Se23  1  0.47113326  0.59602127  0.65400830  1
  Se  Se24  1  0.12877924  0.43007006  0.82807530  1
  Se  Se25  1  0.62877924  0.06992994  0.17192470  1
  Se  Se26  1  0.87122076  0.56992994  0.17192470  1
  Se  Se27  1  0.37122076  0.93007006  0.82807530  1
