# generated using pymatgen
data_Si3Bi2O9
_symmetry_space_group_name_H-M   'P 1'
_cell_length_a   6.80630494
_cell_length_b   6.80631139
_cell_length_c   9.52259951
_cell_angle_alpha   89.99995865
_cell_angle_beta   89.99997838
_cell_angle_gamma   120.00023732
_symmetry_Int_Tables_number   1
_chemical_formula_structural   Si3Bi2O9
_chemical_formula_sum   'Si6 Bi4 O18'
_cell_volume   382.03955434
_cell_formula_units_Z   2
loop_
 _symmetry_equiv_pos_site_id
 _symmetry_equiv_pos_as_xyz
  1  'x, y, z'
loop_
 _atom_site_type_symbol
 _atom_site_label
 _atom_site_symmetry_multiplicity
 _atom_site_fract_x
 _atom_site_fract_y
 _atom_site_fract_z
 _atom_site_occupancy
  Si  Si0  1  0.21623870  0.28038193  0.75000099  1
  Si  Si1  1  0.71962483  0.93585825  0.75000108  1
  Si  Si2  1  0.78376327  0.71961985  0.25000056  1
  Si  Si3  1  0.93585803  0.21623644  0.24999937  1
  Si  Si4  1  0.06414353  0.78376455  0.75000061  1
  Si  Si5  1  0.28037612  0.06413837  0.24999973  1
  Bi  Bi6  1  0.66666587  0.33333281  0.52816358  1
  Bi  Bi7  1  0.66666588  0.33333230  0.97183637  1
  Bi  Bi8  1  0.33333258  0.66666674  0.02816318  1
  Bi  Bi9  1  0.33333381  0.66666694  0.47183673  1
  O  O10  1  0.19203589  0.24732185  0.25000112  1
  O  O11  1  0.58419629  0.92469126  0.60846095  1
  O  O12  1  0.34049129  0.41580060  0.89153616  1
  O  O13  1  0.94471359  0.19203907  0.74999971  1
  O  O14  1  0.05528507  0.80796040  0.25000014  1
  O  O15  1  0.92469029  0.34048759  0.39153913  1
  O  O16  1  0.92469295  0.34049134  0.10846382  1
  O  O17  1  0.24732367  0.05528734  0.74999913  1
  O  O18  1  0.80796389  0.75268317  0.74999905  1
  O  O19  1  0.07530928  0.65951027  0.60846122  1
  O  O20  1  0.41580228  0.07530778  0.39153827  1
  O  O21  1  0.07530806  0.65951266  0.89153914  1
  O  O22  1  0.65951052  0.58419775  0.10846162  1
  O  O23  1  0.65950721  0.58419871  0.39153673  1
  O  O24  1  0.75267607  0.94471157  0.24999910  1
  O  O25  1  0.41580133  0.07530744  0.10846234  1
  O  O26  1  0.34049315  0.41580305  0.60846243  1
  O  O27  1  0.58419754  0.92469096  0.89153772  1
