# generated using pymatgen
data_Tl3AsS3
_symmetry_space_group_name_H-M   'P 1'
_cell_length_a   5.75070934
_cell_length_b   12.48428366
_cell_length_c   21.93855204
_cell_angle_alpha   90.00000000
_cell_angle_beta   90.00000000
_cell_angle_gamma   90.00000000
_symmetry_Int_Tables_number   1
_chemical_formula_structural   Tl3AsS3
_chemical_formula_sum   'Tl24 As8 S24'
_cell_volume   1575.04514293
_cell_formula_units_Z   8
loop_
 _symmetry_equiv_pos_site_id
 _symmetry_equiv_pos_as_xyz
  1  'x, y, z'
loop_
 _atom_site_type_symbol
 _atom_site_label
 _atom_site_symmetry_multiplicity
 _atom_site_fract_x
 _atom_site_fract_y
 _atom_site_fract_z
 _atom_site_occupancy
  Tl  Tl0  1  0.91442226  0.77958664  0.18362659  1
  Tl  Tl1  1  0.41442226  0.72041336  0.81637341  1
  Tl  Tl2  1  0.08130971  0.83330538  0.97564261  1
  Tl  Tl3  1  0.58130971  0.66669462  0.02435739  1
  Tl  Tl4  1  0.91869029  0.33330538  0.52435739  1
  Tl  Tl5  1  0.58557774  0.27958664  0.18362659  1
  Tl  Tl6  1  0.08130971  0.66669462  0.47564261  1
  Tl  Tl7  1  0.58557774  0.22041336  0.68362659  1
  Tl  Tl8  1  0.41869029  0.33330538  0.97564261  1
  Tl  Tl9  1  0.41442226  0.77958664  0.31637341  1
  Tl  Tl10  1  0.58130971  0.83330538  0.52435739  1
  Tl  Tl11  1  0.91442226  0.72041336  0.68362659  1
  Tl  Tl12  1  0.08557774  0.22041336  0.81637341  1
  Tl  Tl13  1  0.95594890  0.93132216  0.80840821  1
  Tl  Tl14  1  0.45594890  0.93132216  0.69159179  1
  Tl  Tl15  1  0.08557774  0.27958664  0.31637341  1
  Tl  Tl16  1  0.04405110  0.43132216  0.69159179  1
  Tl  Tl17  1  0.04405110  0.06867784  0.19159179  1
  Tl  Tl18  1  0.95594890  0.56867784  0.30840821  1
  Tl  Tl19  1  0.91869029  0.16669462  0.02435739  1
  Tl  Tl20  1  0.41869029  0.16669462  0.47564261  1
  Tl  Tl21  1  0.54405110  0.06867784  0.30840821  1
  Tl  Tl22  1  0.54405110  0.43132216  0.80840821  1
  Tl  Tl23  1  0.45594890  0.56867784  0.19159179  1
  As  As24  1  0.45646539  0.54935522  0.58605091  1
  As  As25  1  0.04353461  0.04935522  0.58605091  1
  As  As26  1  0.54353461  0.04935522  0.91394909  1
  As  As27  1  0.04353461  0.45064478  0.08605091  1
  As  As28  1  0.54353461  0.45064478  0.41394909  1
  As  As29  1  0.95646539  0.95064478  0.41394909  1
  As  As30  1  0.95646539  0.54935522  0.91394909  1
  As  As31  1  0.45646539  0.95064478  0.08605091  1
  S  S32  1  0.61334184  0.39533025  0.31772304  1
  S  S33  1  0.61334184  0.10466975  0.81772304  1
  S  S34  1  0.11334184  0.39533025  0.18227696  1
  S  S35  1  0.34982237  0.55368026  0.91557595  1
  S  S36  1  0.88665816  0.89533025  0.31772304  1
  S  S37  1  0.11793887  0.62716031  0.09104347  1
  S  S38  1  0.88206113  0.12716031  0.40895653  1
  S  S39  1  0.11334184  0.10466975  0.68227696  1
  S  S40  1  0.61793887  0.87283969  0.90895653  1
  S  S41  1  0.38206113  0.12716031  0.09104347  1
  S  S42  1  0.65017763  0.05368026  0.58442405  1
  S  S43  1  0.61793887  0.62716031  0.40895653  1
  S  S44  1  0.15017763  0.44631974  0.41557595  1
  S  S45  1  0.15017763  0.05368026  0.91557595  1
  S  S46  1  0.65017763  0.44631974  0.08442405  1
  S  S47  1  0.88206113  0.37283969  0.90895653  1
  S  S48  1  0.38206113  0.37283969  0.59104347  1
  S  S49  1  0.38665816  0.60466975  0.68227696  1
  S  S50  1  0.84982237  0.55368026  0.58442405  1
  S  S51  1  0.38665816  0.89533025  0.18227696  1
  S  S52  1  0.11793887  0.87283969  0.59104347  1
  S  S53  1  0.34982237  0.94631974  0.41557595  1
  S  S54  1  0.84982237  0.94631974  0.08442405  1
  S  S55  1  0.88665816  0.60466975  0.81772304  1
