# generated using pymatgen
data_CsMgH3
_symmetry_space_group_name_H-M   'P 1'
_cell_length_a   6.11707186
_cell_length_b   8.52803537
_cell_length_c   9.95206766
_cell_angle_alpha   90.00000000
_cell_angle_beta   90.00000000
_cell_angle_gamma   90.00000000
_symmetry_Int_Tables_number   1
_chemical_formula_structural   CsMgH3
_chemical_formula_sum   'Cs6 Mg6 H18'
_cell_volume   519.16558437
_cell_formula_units_Z   6
loop_
 _symmetry_equiv_pos_site_id
 _symmetry_equiv_pos_as_xyz
  1  'x, y, z'
loop_
 _atom_site_type_symbol
 _atom_site_label
 _atom_site_symmetry_multiplicity
 _atom_site_fract_x
 _atom_site_fract_y
 _atom_site_fract_z
 _atom_site_occupancy
  Cs  Cs0  1  0.50000000  0.66247373  0.27687162  1
  Cs  Cs1  1  0.50000000  0.17994235  0.50000000  1
  Cs  Cs2  1  -0.00000000  0.33752627  0.77687162  1
  Cs  Cs3  1  -0.00000000  0.82005765  0.00000000  1
  Cs  Cs4  1  -0.00000000  0.33752627  0.22312838  1
  Cs  Cs5  1  0.50000000  0.66247373  0.72312838  1
  Mg  Mg6  1  0.50000000  0.07326335  0.13936776  1
  Mg  Mg7  1  0.50000000  0.36516315  0.00000000  1
  Mg  Mg8  1  -0.00000000  0.92673665  0.63936776  1
  Mg  Mg9  1  0.50000000  0.07326335  0.86063224  1
  Mg  Mg10  1  -0.00000000  0.63483685  0.50000000  1
  Mg  Mg11  1  -0.00000000  0.92673665  0.36063224  1
  H  H12  1  0.80011938  0.83337966  0.50000000  1
  H  H13  1  0.69988062  0.16662034  0.00000000  1
  H  H14  1  0.73420000  0.50451936  0.00000000  1
  H  H15  1  0.23420000  0.49548064  0.50000000  1
  H  H16  1  0.76580000  0.49548064  0.50000000  1
  H  H17  1  0.26580000  0.50451936  0.00000000  1
  H  H18  1  0.50000000  0.90523213  0.00000000  1
  H  H19  1  -0.00000000  0.70703164  0.69747685  1
  H  H20  1  -0.00000000  0.09476787  0.50000000  1
  H  H21  1  0.50000000  0.29296836  0.19747685  1
  H  H22  1  -0.00000000  0.70703164  0.30252315  1
  H  H23  1  0.30011938  0.16662034  0.00000000  1
  H  H24  1  0.75000000  0.00000000  0.25000000  1
  H  H25  1  0.50000000  0.29296836  0.80252315  1
  H  H26  1  0.19988062  0.83337966  0.50000000  1
  H  H27  1  0.25000000  0.00000000  0.25000000  1
  H  H28  1  0.75000000  0.00000000  0.75000000  1
  H  H29  1  0.25000000  0.00000000  0.75000000  1
