# generated using pymatgen
data_Cs2I4O11
_symmetry_space_group_name_H-M   'P 1'
_cell_length_a   7.41534840
_cell_length_b   12.73797684
_cell_length_c   16.14533730
_cell_angle_alpha   58.31509067
_cell_angle_beta   90.00000000
_cell_angle_gamma   90.00000000
_symmetry_Int_Tables_number   1
_chemical_formula_structural   Cs2I4O11
_chemical_formula_sum   'Cs8 I16 O44'
_cell_volume   1297.72572871
_cell_formula_units_Z   4
loop_
 _symmetry_equiv_pos_site_id
 _symmetry_equiv_pos_as_xyz
  1  'x, y, z'
loop_
 _atom_site_type_symbol
 _atom_site_label
 _atom_site_symmetry_multiplicity
 _atom_site_fract_x
 _atom_site_fract_y
 _atom_site_fract_z
 _atom_site_occupancy
  Cs  Cs0  1  0.75276126  0.37530042  0.06006471  1
  Cs  Cs1  1  0.75295236  0.13007447  0.42925841  1
  Cs  Cs2  1  0.24704764  0.86992553  0.57074159  1
  Cs  Cs3  1  0.25276126  0.62469958  0.43993529  1
  Cs  Cs4  1  0.74723874  0.37530042  0.56006471  1
  Cs  Cs5  1  0.74704764  0.13007447  0.92925841  1
  Cs  Cs6  1  0.25295236  0.86992553  0.07074159  1
  Cs  Cs7  1  0.24723874  0.62469958  0.93993529  1
  I  I8  1  0.71961697  0.73391360  0.26781034  1
  I  I9  1  0.22442461  0.23142668  0.99525265  1
  I  I10  1  0.96396809  0.00934695  0.73832009  1
  I  I11  1  0.01243905  0.48972554  0.73562094  1
  I  I12  1  0.03603191  0.99065305  0.26167991  1
  I  I13  1  0.27557539  0.23142668  0.49525265  1
  I  I14  1  0.48756095  0.48972554  0.23562094  1
  I  I15  1  0.53603191  0.00934695  0.23832009  1
  I  I16  1  0.28038303  0.26608640  0.73218966  1
  I  I17  1  0.46396809  0.99065305  0.76167991  1
  I  I18  1  0.21961697  0.26608640  0.23218966  1
  I  I19  1  0.51243905  0.51027446  0.76437906  1
  I  I20  1  0.78038303  0.73391360  0.76781034  1
  I  I21  1  0.98756095  0.51027446  0.26437906  1
  I  I22  1  0.72442461  0.76857332  0.50474735  1
  I  I23  1  0.77557539  0.76857332  0.00474735  1
  O  O24  1  0.96678114  0.10634438  0.60771664  1
  O  O25  1  0.88700562  0.39330309  0.24899459  1
  O  O26  1  0.82114226  0.66035936  0.89623108  1
  O  O27  1  0.25454338  0.08681370  0.75446182  1
  O  O28  1  0.75454338  0.91318630  0.74553818  1
  O  O29  1  0.17885774  0.33964064  0.10376892  1
  O  O30  1  0.25268520  0.43804200  0.72074434  1
  O  O31  1  0.03794071  0.26128908  0.73608080  1
  O  O32  1  0.38700562  0.60669691  0.25100541  1
  O  O33  1  0.08020442  0.10286877  0.07812165  1
  O  O34  1  0.46678114  0.89365562  0.89228336  1
  O  O35  1  0.74731480  0.56195800  0.27925566  1
  O  O36  1  0.11388081  0.88785691  0.75542226  1
  O  O37  1  0.46205929  0.26128908  0.23608080  1
  O  O38  1  0.24545662  0.08681370  0.25446182  1
  O  O39  1  0.91979558  0.89713123  0.92187835  1
  O  O40  1  0.74545662  0.91318630  0.24553818  1
  O  O41  1  0.79268905  0.82860319  0.58010714  1
  O  O42  1  0.04598544  0.33680315  0.92094813  1
  O  O43  1  0.20731095  0.17139681  0.41989286  1
  O  O44  1  0.61388081  0.11214309  0.74457774  1
  O  O45  1  0.54598544  0.66319685  0.57905187  1
  O  O46  1  0.58020442  0.89713123  0.42187835  1
  O  O47  1  0.88611919  0.11214309  0.24457774  1
  O  O48  1  0.75268520  0.56195800  0.77925566  1
  O  O49  1  0.29268905  0.17139681  0.91989286  1
  O  O50  1  0.03321886  0.89365562  0.39228336  1
  O  O51  1  0.95401456  0.66319685  0.07905187  1
  O  O52  1  0.53794071  0.73871092  0.76391920  1
  O  O53  1  0.32114226  0.33964064  0.60376892  1
  O  O54  1  0.38611919  0.88785691  0.25542226  1
  O  O55  1  0.53477856  0.57718922  0.10702206  1
  O  O56  1  0.11299438  0.60669691  0.75100541  1
  O  O57  1  0.41979558  0.10286877  0.57812165  1
  O  O58  1  0.03477856  0.42281078  0.39297794  1
  O  O59  1  0.53321886  0.10634438  0.10771664  1
  O  O60  1  0.61299438  0.39330309  0.74899459  1
  O  O61  1  0.67885774  0.66035936  0.39623108  1
  O  O62  1  0.24731480  0.43804200  0.22074434  1
  O  O63  1  0.70731095  0.82860319  0.08010714  1
  O  O64  1  0.46522144  0.42281078  0.89297794  1
  O  O65  1  0.45401456  0.33680315  0.42094813  1
  O  O66  1  0.96522144  0.57718922  0.60702206  1
  O  O67  1  0.96205929  0.73871092  0.26391920  1
