# generated using pymatgen
data_SeO2
_symmetry_space_group_name_H-M   'P 1'
_cell_length_a   4.48481829
_cell_length_b   5.09726066
_cell_length_c   7.64117801
_cell_angle_alpha   90.00000000
_cell_angle_beta   90.00000000
_cell_angle_gamma   90.00000000
_symmetry_Int_Tables_number   1
_chemical_formula_structural   SeO2
_chemical_formula_sum   'Se4 O8'
_cell_volume   174.67952872
_cell_formula_units_Z   4
loop_
 _symmetry_equiv_pos_site_id
 _symmetry_equiv_pos_as_xyz
  1  'x, y, z'
loop_
 _atom_site_type_symbol
 _atom_site_label
 _atom_site_symmetry_multiplicity
 _atom_site_fract_x
 _atom_site_fract_y
 _atom_site_fract_z
 _atom_site_occupancy
  Se  Se0  1  0.74304112  0.50000000  0.00081965  1
  Se  Se1  1  0.88116512  -0.00000000  0.62663574  1
  Se  Se2  1  0.25695888  0.50000000  0.50081965  1
  Se  Se3  1  0.11883488  -0.00000000  0.12663574  1
  O  O4  1  0.24602906  -0.00000000  0.32728153  1
  O  O5  1  0.16079770  0.25028548  0.65941511  1
  O  O6  1  0.83920230  0.25028548  0.15941511  1
  O  O7  1  0.61553603  0.50000000  0.53663386  1
  O  O8  1  0.38446397  0.50000000  0.03663386  1
  O  O9  1  0.16079770  0.74971452  0.65941511  1
  O  O10  1  0.75397094  -0.00000000  0.82728153  1
  O  O11  1  0.83920230  0.74971452  0.15941511  1
