# generated using pymatgen
data_PdSCl
_symmetry_space_group_name_H-M   'P 1'
_cell_length_a   9.28750878
_cell_length_b   8.93096247
_cell_length_c   16.41797869
_cell_angle_alpha   58.31653025
_cell_angle_beta   90.00000000
_cell_angle_gamma   90.00000000
_symmetry_Int_Tables_number   1
_chemical_formula_structural   PdSCl
_chemical_formula_sum   'Pd16 S16 Cl16'
_cell_volume   1158.85127124
_cell_formula_units_Z   16
loop_
 _symmetry_equiv_pos_site_id
 _symmetry_equiv_pos_as_xyz
  1  'x, y, z'
loop_
 _atom_site_type_symbol
 _atom_site_label
 _atom_site_symmetry_multiplicity
 _atom_site_fract_x
 _atom_site_fract_y
 _atom_site_fract_z
 _atom_site_occupancy
  Pd  Pd0  1  0.19766070  0.95779316  0.01864623  1
  Pd  Pd1  1  0.09661326  0.92173524  0.68204446  1
  Pd  Pd2  1  0.30233930  0.95779316  0.51864623  1
  Pd  Pd3  1  0.59661326  0.07826476  0.81795554  1
  Pd  Pd4  1  0.87554986  0.68152753  0.64228231  1
  Pd  Pd5  1  0.91991624  0.28041966  0.52168637  1
  Pd  Pd6  1  0.37554986  0.31847247  0.85771769  1
  Pd  Pd7  1  0.90338674  0.07826476  0.31795554  1
  Pd  Pd8  1  0.69766070  0.04220684  0.48135377  1
  Pd  Pd9  1  0.08008376  0.71958034  0.47831363  1
  Pd  Pd10  1  0.12445014  0.31847247  0.35771769  1
  Pd  Pd11  1  0.80233930  0.04220684  0.98135377  1
  Pd  Pd12  1  0.41991624  0.71958034  0.97831363  1
  Pd  Pd13  1  0.40338674  0.92173524  0.18204446  1
  Pd  Pd14  1  0.62445014  0.68152753  0.14228231  1
  Pd  Pd15  1  0.58008376  0.28041966  0.02168637  1
  S  S16  1  0.40130517  0.57634982  0.14086309  1
  S  S17  1  0.65885629  0.65440642  0.01298745  1
  S  S18  1  0.25927725  0.72967133  0.16782355  1
  S  S19  1  0.24072275  0.72967133  0.66782355  1
  S  S20  1  0.90130517  0.42365018  0.35913691  1
  S  S21  1  0.59869483  0.42365018  0.85913691  1
  S  S22  1  0.75927725  0.27032867  0.33217645  1
  S  S23  1  0.84114371  0.65440642  0.51298745  1
  S  S24  1  0.09869483  0.57634982  0.64086309  1
  S  S25  1  0.77088228  0.88251043  0.91092121  1
  S  S26  1  0.27088228  0.11748957  0.58907879  1
  S  S27  1  0.74072275  0.27032867  0.83217645  1
  S  S28  1  0.34114371  0.34559358  0.98701255  1
  S  S29  1  0.15885629  0.34559358  0.48701255  1
  S  S30  1  0.22911772  0.11748957  0.08907879  1
  S  S31  1  0.72911772  0.88251043  0.41092121  1
  Cl  Cl32  1  0.06915332  0.30517334  0.22049218  1
  Cl  Cl33  1  0.96251162  0.14257079  0.68857336  1
  Cl  Cl34  1  0.33172403  0.77009677  0.45771517  1
  Cl  Cl35  1  0.66827597  0.22990323  0.54228483  1
  Cl  Cl36  1  0.83172403  0.22990323  0.04228483  1
  Cl  Cl37  1  0.63832251  0.78886950  0.63061476  1
  Cl  Cl38  1  0.93084668  0.69482666  0.77950782  1
  Cl  Cl39  1  0.86167749  0.78886950  0.13061476  1
  Cl  Cl40  1  0.36167749  0.21113050  0.36938524  1
  Cl  Cl41  1  0.16827597  0.77009677  0.95771517  1
  Cl  Cl42  1  0.43084668  0.30517334  0.72049218  1
  Cl  Cl43  1  0.53748838  0.14257079  0.18857336  1
  Cl  Cl44  1  0.03748838  0.85742921  0.31142664  1
  Cl  Cl45  1  0.46251162  0.85742921  0.81142664  1
  Cl  Cl46  1  0.13832251  0.21113050  0.86938524  1
  Cl  Cl47  1  0.56915332  0.69482666  0.27950782  1
