# generated using pymatgen
data_Zn2SeCl2O3
_symmetry_space_group_name_H-M   'P 1'
_cell_length_a   7.64370929
_cell_length_b   7.70536024
_cell_length_c   10.23578450
_cell_angle_alpha   90.00000000
_cell_angle_beta   90.00000000
_cell_angle_gamma   99.72518611
_symmetry_Int_Tables_number   1
_chemical_formula_structural   Zn2SeCl2O3
_chemical_formula_sum   'Zn8 Se4 Cl8 O12'
_cell_volume   594.19891245
_cell_formula_units_Z   4
loop_
 _symmetry_equiv_pos_site_id
 _symmetry_equiv_pos_as_xyz
  1  'x, y, z'
loop_
 _atom_site_type_symbol
 _atom_site_label
 _atom_site_symmetry_multiplicity
 _atom_site_fract_x
 _atom_site_fract_y
 _atom_site_fract_z
 _atom_site_occupancy
  Zn  Zn0  1  0.89238940  0.22718463  0.98976903  1
  Zn  Zn1  1  0.87519779  0.91689597  0.72159118  1
  Zn  Zn2  1  0.60761060  0.77281537  0.48976903  1
  Zn  Zn3  1  0.62480221  0.08310403  0.22159118  1
  Zn  Zn4  1  0.10761060  0.77281537  0.01023097  1
  Zn  Zn5  1  0.12480221  0.08310403  0.27840882  1
  Zn  Zn6  1  0.37519779  0.91689597  0.77840882  1
  Zn  Zn7  1  0.39238940  0.22718463  0.51023097  1
  Se  Se8  1  0.31412904  0.18746578  0.03244577  1
  Se  Se9  1  0.81412904  0.18746578  0.46755423  1
  Se  Se10  1  0.18587096  0.81253422  0.53244577  1
  Se  Se11  1  0.68587096  0.81253422  0.96755423  1
  Cl  Cl12  1  0.46551788  0.22387264  0.71925764  1
  Cl  Cl13  1  0.96551788  0.22387264  0.78074236  1
  Cl  Cl14  1  0.75947003  0.60098429  0.59949659  1
  Cl  Cl15  1  0.74052997  0.39901571  0.09949659  1
  Cl  Cl16  1  0.53448212  0.77612736  0.28074236  1
  Cl  Cl17  1  0.24053097  0.39901571  0.40050341  1
  Cl  Cl18  1  0.03448212  0.77612736  0.21925764  1
  Cl  Cl19  1  0.25946903  0.60098429  0.90050341  1
  O  O20  1  0.27928423  0.98692378  0.95222004  1
  O  O21  1  0.87808262  0.12145087  0.31742836  1
  O  O22  1  0.89581777  0.80745155  0.90905016  1
  O  O23  1  0.72071577  0.01307622  0.04777996  1
  O  O24  1  0.39581777  0.80745155  0.59094984  1
  O  O25  1  0.22071577  0.01307622  0.45222004  1
  O  O26  1  0.77928423  0.98692378  0.54777996  1
  O  O27  1  0.12191738  0.87854913  0.68257164  1
  O  O28  1  0.60418223  0.19254845  0.40905016  1
  O  O29  1  0.62191738  0.87854913  0.81742836  1
  O  O30  1  0.10418223  0.19254845  0.09094984  1
  O  O31  1  0.37808262  0.12145087  0.18257164  1
