# generated using pymatgen
data_ZnS
_symmetry_space_group_name_H-M   'P 1'
_cell_length_a   3.80713367
_cell_length_b   3.80713399
_cell_length_c   62.28462530
_cell_angle_alpha   90.00000000
_cell_angle_beta   90.00000000
_cell_angle_gamma   120.00001499
_symmetry_Int_Tables_number   1
_chemical_formula_structural   ZnS
_chemical_formula_sum   'Zn20 S20'
_cell_volume   781.82168064
_cell_formula_units_Z   20
loop_
 _symmetry_equiv_pos_site_id
 _symmetry_equiv_pos_as_xyz
  1  'x, y, z'
loop_
 _atom_site_type_symbol
 _atom_site_label
 _atom_site_symmetry_multiplicity
 _atom_site_fract_x
 _atom_site_fract_y
 _atom_site_fract_z
 _atom_site_occupancy
  Zn  Zn0  1  0.00000000  0.00000000  0.40004073  1
  Zn  Zn1  1  0.66666700  0.33333300  0.44999866  1
  Zn  Zn2  1  0.33333300  0.66666700  0.65001664  1
  Zn  Zn3  1  0.33333300  0.66666700  0.95000531  1
  Zn  Zn4  1  0.33333300  0.66666700  0.20001664  1
  Zn  Zn5  1  -0.00000000  0.00000000  0.59999562  1
  Zn  Zn6  1  0.66666700  0.33333300  0.55004941  1
  Zn  Zn7  1  0.66666700  0.33333300  0.90001810  1
  Zn  Zn8  1  -0.00000000  0.00000000  0.29999190  1
  Zn  Zn9  1  0.33333300  0.66666700  0.35001386  1
  Zn  Zn10  1  0.66666700  0.33333300  0.75001942  1
  Zn  Zn11  1  0.66666700  0.33333300  0.10002515  1
  Zn  Zn12  1  0.33333300  0.66666700  0.80002530  1
  Zn  Zn13  1  0.00000000  -0.00000000  0.00001167  1
  Zn  Zn14  1  0.33333300  0.66666700  0.05004515  1
  Zn  Zn15  1  0.00000000  -0.00000000  0.85001380  1
  Zn  Zn16  1  0.00000000  -0.00000000  0.15001272  1
  Zn  Zn17  1  0.00000000  -0.00000000  0.70004542  1
  Zn  Zn18  1  0.66666700  0.33333300  0.25002007  1
  Zn  Zn19  1  0.33333300  0.66666700  0.50002228  1
  S  S20  1  0.66666700  0.33333300  0.58748409  1
  S  S21  1  0.00000000  -0.00000000  0.88747747  1
  S  S22  1  0.00000000  -0.00000000  0.03751673  1
  S  S23  1  0.33333300  0.66666700  0.98743775  1
  S  S24  1  0.33333300  0.66666700  0.08748946  1
  S  S25  1  0.66666700  0.33333300  0.28747638  1
  S  S26  1  0.00000000  -0.00000000  0.33743330  1
  S  S27  1  -0.00000000  0.00000000  0.63743319  1
  S  S28  1  -0.00000000  0.00000000  0.73748405  1
  S  S29  1  0.33333300  0.66666700  0.23748202  1
  S  S30  1  0.66666700  0.33333300  0.48744066  1
  S  S31  1  0.66666700  0.33333300  0.93747816  1
  S  S32  1  0.66666700  0.33333300  0.78748212  1
  S  S33  1  0.33333300  0.66666700  0.53752577  1
  S  S34  1  0.33333300  0.66666700  0.68752379  1
  S  S35  1  0.33333300  0.66666700  0.83748167  1
  S  S36  1  0.00000000  -0.00000000  0.18747692  1
  S  S37  1  0.33333300  0.66666700  0.38752524  1
  S  S38  1  0.66666700  0.33333300  0.13748247  1
  S  S39  1  -0.00000000  0.00000000  0.43748091  1
