# generated using pymatgen
data_K2Si4O9
_symmetry_space_group_name_H-M   'P 1'
_cell_length_a   4.93890481
_cell_length_b   8.34642066
_cell_length_c   12.12410520
_cell_angle_alpha   71.14050658
_cell_angle_beta   89.68090569
_cell_angle_gamma   89.07631856
_symmetry_Int_Tables_number   1
_chemical_formula_structural   K2Si4O9
_chemical_formula_sum   'K4 Si8 O18'
_cell_volume   472.88928464
_cell_formula_units_Z   2
loop_
 _symmetry_equiv_pos_site_id
 _symmetry_equiv_pos_as_xyz
  1  'x, y, z'
loop_
 _atom_site_type_symbol
 _atom_site_label
 _atom_site_symmetry_multiplicity
 _atom_site_fract_x
 _atom_site_fract_y
 _atom_site_fract_z
 _atom_site_occupancy
  K  K0  1  0.74262019  0.58689729  0.34763645  1
  K  K1  1  0.25737981  0.41310271  0.65236355  1
  K  K2  1  0.23661556  0.93581064  0.13875617  1
  K  K3  1  0.76338444  0.06418936  0.86124383  1
  Si  Si4  1  0.71610428  0.18366377  0.55401099  1
  Si  Si5  1  0.20507994  0.44230051  0.14603894  1
  Si  Si6  1  0.21071477  0.19955710  0.39932196  1
  Si  Si7  1  0.28389572  0.81633623  0.44598901  1
  Si  Si8  1  0.78928523  0.80044290  0.60067804  1
  Si  Si9  1  0.79492006  0.55769949  0.85396106  1
  Si  Si10  1  0.70634779  0.67091696  0.06308309  1
  Si  Si11  1  0.29365221  0.32908304  0.93691691  1
  O  O12  1  0.71421832  0.65099088  0.71905485  1
  O  O13  1  0.90186625  0.22964322  0.43442641  1
  O  O14  1  0.39403142  0.60462689  0.09273529  1
  O  O15  1  0.28578168  0.34900912  0.28094515  1
  O  O16  1  0.40377729  0.21163230  0.50329452  1
  O  O17  1  0.09813375  0.77035678  0.56557359  1
  O  O18  1  0.59622271  0.78836770  0.49670548  1
  O  O19  1  0.75954770  0.69189513  0.92460245  1
  O  O20  1  0.60596858  0.39537311  0.90726471  1
  O  O21  1  0.24045230  0.30810487  0.07539755  1
  O  O22  1  0.89347950  0.50751552  0.14071001  1
  O  O23  1  0.24331185  0.01999664  0.37641828  1
  O  O24  1  0.10652050  0.49248448  0.85928999  1
  O  O25  1  0.76812498  0.29546828  0.63306783  1
  O  O26  1  0.75668815  0.98000336  0.62358172  1
  O  O27  1  0.23187502  0.70453172  0.36693217  1
  O  O28  1  0.24894555  0.16262812  0.90733696  1
  O  O29  1  0.75105445  0.83737188  0.09266304  1
