# generated using pymatgen
data_NaW6NCl18
_symmetry_space_group_name_H-M   'P 1'
_cell_length_a   9.02776440
_cell_length_b   9.02776440
_cell_length_c   18.01527255
_cell_angle_alpha   90.00000000
_cell_angle_beta   90.00000000
_cell_angle_gamma   119.99999460
_symmetry_Int_Tables_number   1
_chemical_formula_structural   NaW6NCl18
_chemical_formula_sum   'Na2 W12 N2 Cl36'
_cell_volume   1271.54556025
_cell_formula_units_Z   2
loop_
 _symmetry_equiv_pos_site_id
 _symmetry_equiv_pos_as_xyz
  1  'x, y, z'
loop_
 _atom_site_type_symbol
 _atom_site_label
 _atom_site_symmetry_multiplicity
 _atom_site_fract_x
 _atom_site_fract_y
 _atom_site_fract_z
 _atom_site_occupancy
  Na  Na0  1  0.00000000  0.00000000  0.50000000  1
  Na  Na1  1  0.00000000  0.00000000  0.00000000  1
  W  W2  1  0.18289923  0.48475237  0.83576904  1
  W  W3  1  0.69814686  0.18289923  0.33576904  1
  W  W4  1  0.30185314  0.81710077  0.66423096  1
  W  W5  1  0.51524763  0.69814686  0.83576904  1
  W  W6  1  0.81710077  0.51524763  0.33576904  1
  W  W7  1  0.48475237  0.30185314  0.16423096  1
  W  W8  1  0.51524763  0.69814686  0.66423096  1
  W  W9  1  0.81710077  0.51524763  0.16423096  1
  W  W10  1  0.48475237  0.30185314  0.33576904  1
  W  W11  1  0.18289923  0.48475237  0.66423096  1
  W  W12  1  0.30185314  0.81710077  0.83576904  1
  W  W13  1  0.69814686  0.18289923  0.16423096  1
  N  N14  1  0.33333300  0.66666700  0.75000000  1
  N  N15  1  0.66666700  0.33333300  0.25000000  1
  Cl  Cl16  1  0.77052960  0.74018432  0.60082668  1
  Cl  Cl17  1  0.52362425  0.94620585  0.25000000  1
  Cl  Cl18  1  0.94620585  0.42258160  0.75000000  1
  Cl  Cl19  1  0.03034528  0.77052960  0.39917332  1
  Cl  Cl20  1  0.96965472  0.22947040  0.89917332  1
  Cl  Cl21  1  0.77052960  0.74018432  0.89917332  1
  Cl  Cl22  1  0.42258160  0.47637575  0.25000000  1
  Cl  Cl23  1  0.37136103  0.48108907  0.92786190  1
  Cl  Cl24  1  0.48108907  0.10972804  0.42786190  1
  Cl  Cl25  1  0.89027196  0.37136103  0.42786190  1
  Cl  Cl26  1  0.57741840  0.52362425  0.75000000  1
  Cl  Cl27  1  0.19763673  0.28107524  0.75000000  1
  Cl  Cl28  1  0.25981568  0.03034528  0.89917332  1
  Cl  Cl29  1  0.03034528  0.77052960  0.10082668  1
  Cl  Cl30  1  0.22947040  0.25981568  0.10082668  1
  Cl  Cl31  1  0.62863897  0.51891093  0.42786190  1
  Cl  Cl32  1  0.10972804  0.62863897  0.92786190  1
  Cl  Cl33  1  0.74018432  0.96965472  0.10082668  1
  Cl  Cl34  1  0.74018432  0.96965472  0.39917332  1
  Cl  Cl35  1  0.80236327  0.71892476  0.25000000  1
  Cl  Cl36  1  0.96965472  0.22947040  0.60082668  1
  Cl  Cl37  1  0.51891093  0.89027196  0.57213810  1
  Cl  Cl38  1  0.22947040  0.25981568  0.39917332  1
  Cl  Cl39  1  0.47637575  0.05379415  0.75000000  1
  Cl  Cl40  1  0.25981568  0.03034528  0.60082668  1
  Cl  Cl41  1  0.10972804  0.62863897  0.57213810  1
  Cl  Cl42  1  0.48108907  0.10972804  0.07213810  1
  Cl  Cl43  1  0.91656149  0.19763673  0.25000000  1
  Cl  Cl44  1  0.62863897  0.51891093  0.07213810  1
  Cl  Cl45  1  0.37136103  0.48108907  0.57213810  1
  Cl  Cl46  1  0.08343851  0.80236327  0.75000000  1
  Cl  Cl47  1  0.05379415  0.57741840  0.25000000  1
  Cl  Cl48  1  0.28107524  0.08343851  0.25000000  1
  Cl  Cl49  1  0.89027196  0.37136103  0.07213810  1
  Cl  Cl50  1  0.51891093  0.89027196  0.92786190  1
  Cl  Cl51  1  0.71892476  0.91656149  0.75000000  1
