# generated using pymatgen
data_Sn(SeO3)2
_symmetry_space_group_name_H-M   'P 1'
_cell_length_a   8.23418081
_cell_length_b   8.23418081
_cell_length_c   8.23418081
_cell_angle_alpha   90.00000000
_cell_angle_beta   90.00000000
_cell_angle_gamma   90.00000000
_symmetry_Int_Tables_number   1
_chemical_formula_structural   Sn(SeO3)2
_chemical_formula_sum   'Sn4 Se8 O24'
_cell_volume   558.29173379
_cell_formula_units_Z   4
loop_
 _symmetry_equiv_pos_site_id
 _symmetry_equiv_pos_as_xyz
  1  'x, y, z'
loop_
 _atom_site_type_symbol
 _atom_site_label
 _atom_site_symmetry_multiplicity
 _atom_site_fract_x
 _atom_site_fract_y
 _atom_site_fract_z
 _atom_site_occupancy
  Sn  Sn0  1  0.50000000  0.50000000  0.00000000  1
  Sn  Sn1  1  0.50000000  -0.00000000  0.50000000  1
  Sn  Sn2  1  -0.00000000  -0.00000000  0.00000000  1
  Sn  Sn3  1  -0.00000000  0.50000000  0.50000000  1
  Se  Se4  1  0.83293778  0.16706222  0.66706222  1
  Se  Se5  1  0.16706222  0.83293778  0.33293778  1
  Se  Se6  1  0.66706222  0.66706222  0.66706222  1
  Se  Se7  1  0.16706222  0.66706222  0.83293778  1
  Se  Se8  1  0.33293778  0.16706222  0.83293778  1
  Se  Se9  1  0.83293778  0.33293778  0.16706222  1
  Se  Se10  1  0.66706222  0.83293778  0.16706222  1
  Se  Se11  1  0.33293778  0.33293778  0.33293778  1
  O  O12  1  0.24461181  0.46527905  0.46673878  1
  O  O13  1  0.96673878  0.24461181  0.03472095  1
  O  O14  1  0.03326122  0.74461181  0.46527905  1
  O  O15  1  0.46673878  0.25538819  0.96527905  1
  O  O16  1  0.25538819  0.96527905  0.46673878  1
  O  O17  1  0.53472095  0.53326122  0.75538819  1
  O  O18  1  0.96527905  0.03326122  0.75538819  1
  O  O19  1  0.53326122  0.74461181  0.03472095  1
  O  O20  1  0.53472095  0.96673878  0.25538819  1
  O  O21  1  0.46527905  0.03326122  0.74461181  1
  O  O22  1  0.75538819  0.96527905  0.03326122  1
  O  O23  1  0.25538819  0.53472095  0.96673878  1
  O  O24  1  0.03472095  0.53326122  0.74461181  1
  O  O25  1  0.03472095  0.96673878  0.24461181  1
  O  O26  1  0.24461181  0.03472095  0.96673878  1
  O  O27  1  0.46527905  0.46673878  0.24461181  1
  O  O28  1  0.75538819  0.53472095  0.53326122  1
  O  O29  1  0.96527905  0.46673878  0.25538819  1
  O  O30  1  0.03326122  0.75538819  0.96527905  1
  O  O31  1  0.46673878  0.24461181  0.46527905  1
  O  O32  1  0.53326122  0.75538819  0.53472095  1
  O  O33  1  0.96673878  0.25538819  0.53472095  1
  O  O34  1  0.74461181  0.03472095  0.53326122  1
  O  O35  1  0.74461181  0.46527905  0.03326122  1
