# generated using pymatgen
data_Na4Si2Te5
_symmetry_space_group_name_H-M   'P 1'
_cell_length_a   12.83430738
_cell_length_b   14.11812037
_cell_length_c   14.93066101
_cell_angle_alpha   88.21030876
_cell_angle_beta   90.00000000
_cell_angle_gamma   90.00000000
_symmetry_Int_Tables_number   1
_chemical_formula_structural   Na4Si2Te5
_chemical_formula_sum   'Na32 Si16 Te40'
_cell_volume   2704.06078227
_cell_formula_units_Z   8
loop_
 _symmetry_equiv_pos_site_id
 _symmetry_equiv_pos_as_xyz
  1  'x, y, z'
loop_
 _atom_site_type_symbol
 _atom_site_label
 _atom_site_symmetry_multiplicity
 _atom_site_fract_x
 _atom_site_fract_y
 _atom_site_fract_z
 _atom_site_occupancy
  Na  Na0  1  0.09024889  0.80160705  0.13978714  1
  Na  Na1  1  0.12284124  0.09579374  0.04910611  1
  Na  Na2  1  0.90975111  0.19839295  0.86021286  1
  Na  Na3  1  0.87715876  0.90420626  0.95089389  1
  Na  Na4  1  0.90584366  0.50731303  0.72891426  1
  Na  Na5  1  0.87798741  0.09726745  0.56025264  1
  Na  Na6  1  0.63558652  0.57819608  0.57376422  1
  Na  Na7  1  0.59024889  0.19839295  0.36021286  1
  Na  Na8  1  0.63463715  0.38435808  0.96541937  1
  Na  Na9  1  0.40584366  0.49268697  0.77108574  1
  Na  Na10  1  0.13558652  0.42180392  0.92623578  1
  Na  Na11  1  0.40975111  0.80160705  0.63978714  1
  Na  Na12  1  0.36536285  0.61564192  0.03458063  1
  Na  Na13  1  0.12201259  0.90273255  0.43974736  1
  Na  Na14  1  0.86536285  0.38435808  0.46541937  1
  Na  Na15  1  0.84560337  0.98931276  0.23482615  1
  Na  Na16  1  0.85872414  0.71023384  0.34752794  1
  Na  Na17  1  0.62201259  0.09726745  0.06025264  1
  Na  Na18  1  0.14127586  0.28976616  0.65247206  1
  Na  Na19  1  0.37798741  0.90273255  0.93974736  1
  Na  Na20  1  0.15439663  0.01068724  0.76517385  1
  Na  Na21  1  0.36441348  0.42180392  0.42623578  1
  Na  Na22  1  0.59415634  0.50731303  0.22891426  1
  Na  Na23  1  0.65439663  0.98931276  0.73482615  1
  Na  Na24  1  0.62284124  0.90420626  0.45089389  1
  Na  Na25  1  0.35872414  0.28976616  0.15247206  1
  Na  Na26  1  0.37715876  0.09579374  0.54910611  1
  Na  Na27  1  0.09415634  0.49268697  0.27108574  1
  Na  Na28  1  0.64127586  0.71023384  0.84752794  1
  Na  Na29  1  0.86441348  0.57819608  0.07376422  1
  Na  Na30  1  0.13463715  0.61564192  0.53458063  1
  Na  Na31  1  0.34560337  0.01068724  0.26517385  1
  Si  Si32  1  0.59089995  0.27760584  0.59099272  1
  Si  Si33  1  0.33891130  0.22102390  0.91363893  1
  Si  Si34  1  0.05866931  0.17527018  0.29126943  1
  Si  Si35  1  0.80695752  0.31919794  0.21398713  1
  Si  Si36  1  0.30695752  0.68080206  0.28601287  1
  Si  Si37  1  0.40910005  0.72239416  0.40900728  1
  Si  Si38  1  0.90910005  0.27760584  0.09099272  1
  Si  Si39  1  0.09089995  0.72239416  0.90900728  1
  Si  Si40  1  0.66108870  0.77897610  0.08636107  1
  Si  Si41  1  0.16108870  0.22102390  0.41363893  1
  Si  Si42  1  0.19304248  0.68080206  0.78601287  1
  Si  Si43  1  0.55866931  0.82472982  0.20873057  1
  Si  Si44  1  0.94133069  0.82472982  0.70873057  1
  Si  Si45  1  0.44133069  0.17527018  0.79126943  1
  Si  Si46  1  0.83891130  0.77897610  0.58636107  1
  Si  Si47  1  0.69304248  0.31919794  0.71398713  1
  Te  Te48  1  0.12774996  0.10338959  0.53913692  1
  Te  Te49  1  0.62183594  0.29334411  0.16934709  1
  Te  Te50  1  0.37225004  0.10338959  0.03913692  1
  Te  Te51  1  0.59670350  0.99084485  0.24840406  1
  Te  Te52  1  0.36561755  0.80630453  0.16479394  1
  Te  Te53  1  0.40718568  0.29377622  0.66055291  1
  Te  Te54  1  0.12183594  0.70665589  0.33065291  1
  Te  Te55  1  0.84250492  0.48162720  0.26616062  1
  Te  Te56  1  0.15749508  0.51837280  0.73383938  1
  Te  Te57  1  0.12840276  0.88874442  0.94959626  1
  Te  Te58  1  0.59281432  0.70622378  0.33944709  1
  Te  Te59  1  0.62774996  0.89661041  0.96086308  1
  Te  Te60  1  0.11641176  0.38498637  0.46029998  1
  Te  Te61  1  0.87225004  0.89661041  0.46086308  1
  Te  Te62  1  0.65635996  0.78770439  0.64675041  1
  Te  Te63  1  0.63438245  0.19369547  0.83520606  1
  Te  Te64  1  0.88438799  0.39122968  0.96331691  1
  Te  Te65  1  0.38358824  0.38498637  0.96029998  1
  Te  Te66  1  0.40329650  0.00915515  0.75159594  1
  Te  Te67  1  0.84364004  0.78770439  0.14675041  1
  Te  Te68  1  0.38438799  0.60877032  0.53668309  1
  Te  Te69  1  0.88358824  0.61501363  0.53970002  1
  Te  Te70  1  0.61561201  0.39122968  0.46331691  1
  Te  Te71  1  0.65749508  0.48162720  0.76616062  1
  Te  Te72  1  0.09281432  0.29377622  0.16055291  1
  Te  Te73  1  0.13438245  0.80630453  0.66479394  1
  Te  Te74  1  0.37816406  0.70665589  0.83065291  1
  Te  Te75  1  0.37159724  0.88874442  0.44959626  1
  Te  Te76  1  0.09670350  0.00915515  0.25159594  1
  Te  Te77  1  0.34364004  0.21229561  0.35324959  1
  Te  Te78  1  0.87159724  0.11125558  0.05040374  1
  Te  Te79  1  0.62840276  0.11125558  0.55040374  1
  Te  Te80  1  0.61641176  0.61501363  0.03970002  1
  Te  Te81  1  0.11561201  0.60877032  0.03668309  1
  Te  Te82  1  0.90329650  0.99084485  0.74840406  1
  Te  Te83  1  0.86561755  0.19369547  0.33520606  1
  Te  Te84  1  0.87816406  0.29334411  0.66934709  1
  Te  Te85  1  0.34250492  0.51837280  0.23383938  1
  Te  Te86  1  0.15635996  0.21229561  0.85324959  1
  Te  Te87  1  0.90718568  0.70622378  0.83944709  1
