# generated using pymatgen
data_Ti(TlSe)4
_symmetry_space_group_name_H-M   'P 1'
_cell_length_a   8.52739237
_cell_length_b   8.62760907
_cell_length_c   16.05854945
_cell_angle_alpha   75.81484071
_cell_angle_beta   90.00000000
_cell_angle_gamma   90.00000000
_symmetry_Int_Tables_number   1
_chemical_formula_structural   Ti(TlSe)4
_chemical_formula_sum   'Ti4 Tl16 Se16'
_cell_volume   1145.42009746
_cell_formula_units_Z   4
loop_
 _symmetry_equiv_pos_site_id
 _symmetry_equiv_pos_as_xyz
  1  'x, y, z'
loop_
 _atom_site_type_symbol
 _atom_site_label
 _atom_site_symmetry_multiplicity
 _atom_site_fract_x
 _atom_site_fract_y
 _atom_site_fract_z
 _atom_site_occupancy
  Ti  Ti0  1  0.88859134  0.20750019  0.62285082  1
  Ti  Ti1  1  0.38859134  0.79249981  0.87714918  1
  Ti  Ti2  1  0.11140866  0.79249981  0.37714918  1
  Ti  Ti3  1  0.61140866  0.20750019  0.12285082  1
  Tl  Tl4  1  0.71324474  0.60851488  0.36082993  1
  Tl  Tl5  1  0.21324474  0.39148512  0.13917007  1
  Tl  Tl6  1  0.28675526  0.39148512  0.63917007  1
  Tl  Tl7  1  0.78675526  0.60851488  0.86082993  1
  Tl  Tl8  1  0.89282611  0.18568062  0.37597880  1
  Tl  Tl9  1  0.39282611  0.81431938  0.12402120  1
  Tl  Tl10  1  0.10717389  0.81431938  0.62402120  1
  Tl  Tl11  1  0.60717389  0.18568062  0.87597880  1
  Tl  Tl12  1  0.32203267  0.40619685  0.38969102  1
  Tl  Tl13  1  0.82203267  0.59380315  0.11030898  1
  Tl  Tl14  1  0.67796733  0.59380315  0.61030898  1
  Tl  Tl15  1  0.17796733  0.40619685  0.88969102  1
  Tl  Tl16  1  0.49759480  0.03305866  0.36928758  1
  Tl  Tl17  1  0.99759480  0.96694134  0.13071242  1
  Tl  Tl18  1  0.50240520  0.96694134  0.63071242  1
  Tl  Tl19  1  0.00240520  0.03305866  0.86928758  1
  Se  Se20  1  0.11411851  0.18058747  0.53746129  1
  Se  Se21  1  0.61411851  0.81941253  0.96253871  1
  Se  Se22  1  0.88588149  0.81941253  0.46253871  1
  Se  Se23  1  0.38588149  0.18058747  0.03746129  1
  Se  Se24  1  0.66342006  0.29541412  0.53645011  1
  Se  Se25  1  0.16342006  0.70458588  0.96354989  1
  Se  Se26  1  0.33657994  0.70458588  0.46354989  1
  Se  Se27  1  0.83657994  0.29541412  0.03645011  1
  Se  Se28  1  0.94613541  0.39333888  0.70693559  1
  Se  Se29  1  0.44613541  0.60666112  0.79306441  1
  Se  Se30  1  0.05386459  0.60666112  0.29306441  1
  Se  Se31  1  0.55386459  0.39333888  0.20693559  1
  Se  Se32  1  0.83116864  0.94872579  0.71392375  1
  Se  Se33  1  0.33116864  0.05127421  0.78607625  1
  Se  Se34  1  0.16883136  0.05127421  0.28607625  1
  Se  Se35  1  0.66883136  0.94872579  0.21392375  1
