# generated using pymatgen
data_In4GeS4
_symmetry_space_group_name_H-M   'P 1'
_cell_length_a   12.30395158
_cell_length_b   12.30395158
_cell_length_c   12.30395158
_cell_angle_alpha   90.00000000
_cell_angle_beta   90.00000000
_cell_angle_gamma   90.00000000
_symmetry_Int_Tables_number   1
_chemical_formula_structural   In4GeS4
_chemical_formula_sum   'In32 Ge8 S32'
_cell_volume   1862.66107987
_cell_formula_units_Z   8
loop_
 _symmetry_equiv_pos_site_id
 _symmetry_equiv_pos_as_xyz
  1  'x, y, z'
loop_
 _atom_site_type_symbol
 _atom_site_label
 _atom_site_symmetry_multiplicity
 _atom_site_fract_x
 _atom_site_fract_y
 _atom_site_fract_z
 _atom_site_occupancy
  In  In0  1  0.27429655  0.46484128  0.56002957  1
  In  In1  1  0.72367554  0.77632446  0.22367554  1
  In  In2  1  0.96484128  0.56002957  0.22570345  1
  In  In3  1  0.43997043  0.77429655  0.03515872  1
  In  In4  1  0.27632446  0.27632446  0.27632446  1
  In  In5  1  0.03515872  0.06002957  0.27429655  1
  In  In6  1  0.96484128  0.93997043  0.72570345  1
  In  In7  1  0.22367554  0.72367554  0.77632446  1
  In  In8  1  0.56002957  0.27429655  0.46484128  1
  In  In9  1  0.22570345  0.53515872  0.06002957  1
  In  In10  1  0.56002957  0.22570345  0.96484128  1
  In  In11  1  0.72570345  0.96484128  0.93997043  1
  In  In12  1  0.53515872  0.06002957  0.22570345  1
  In  In13  1  0.22570345  0.96484128  0.56002957  1
  In  In14  1  0.06002957  0.22570345  0.53515872  1
  In  In15  1  0.46484128  0.56002957  0.27429655  1
  In  In16  1  0.27429655  0.03515872  0.06002957  1
  In  In17  1  0.93997043  0.72570345  0.96484128  1
  In  In18  1  0.46484128  0.93997043  0.77429655  1
  In  In19  1  0.93997043  0.77429655  0.46484128  1
  In  In20  1  0.72367554  0.72367554  0.72367554  1
  In  In21  1  0.77632446  0.22367554  0.72367554  1
  In  In22  1  0.77429655  0.03515872  0.43997043  1
  In  In23  1  0.77632446  0.27632446  0.22367554  1
  In  In24  1  0.27632446  0.22367554  0.77632446  1
  In  In25  1  0.53515872  0.43997043  0.72570345  1
  In  In26  1  0.03515872  0.43997043  0.77429655  1
  In  In27  1  0.43997043  0.72570345  0.53515872  1
  In  In28  1  0.22367554  0.77632446  0.27632446  1
  In  In29  1  0.72570345  0.53515872  0.43997043  1
  In  In30  1  0.77429655  0.46484128  0.93997043  1
  In  In31  1  0.06002957  0.27429655  0.03515872  1
  Ge  Ge32  1  0.60077048  0.60077048  0.60077048  1
  Ge  Ge33  1  0.39922952  0.39922952  0.39922952  1
  Ge  Ge34  1  0.89922952  0.10077048  0.60077048  1
  Ge  Ge35  1  0.10077048  0.60077048  0.89922952  1
  Ge  Ge36  1  0.89922952  0.39922952  0.10077048  1
  Ge  Ge37  1  0.60077048  0.89922952  0.10077048  1
  Ge  Ge38  1  0.39922952  0.10077048  0.89922952  1
  Ge  Ge39  1  0.10077048  0.89922952  0.39922952  1
  S  S40  1  0.83054400  0.42310270  0.74660677  1
  S  S41  1  0.24660677  0.83054400  0.07689730  1
  S  S42  1  0.24660677  0.66945600  0.57689730  1
  S  S43  1  0.92310270  0.75339323  0.16945600  1
  S  S44  1  0.92347368  0.57652632  0.42347368  1
  S  S45  1  0.57689730  0.25339323  0.16945600  1
  S  S46  1  0.07689730  0.24660677  0.83054400  1
  S  S47  1  0.07689730  0.25339323  0.33054400  1
  S  S48  1  0.33054400  0.07689730  0.25339323  1
  S  S49  1  0.57652632  0.07652632  0.42347368  1
  S  S50  1  0.75339323  0.33054400  0.42310270  1
  S  S51  1  0.66945600  0.57689730  0.24660677  1
  S  S52  1  0.83054400  0.07689730  0.24660677  1
  S  S53  1  0.42310270  0.75339323  0.33054400  1
  S  S54  1  0.75339323  0.16945600  0.92310270  1
  S  S55  1  0.07652632  0.42347368  0.57652632  1
  S  S56  1  0.33054400  0.42310270  0.75339323  1
  S  S57  1  0.74660677  0.83054400  0.42310270  1
  S  S58  1  0.25339323  0.33054400  0.07689730  1
  S  S59  1  0.42310270  0.74660677  0.83054400  1
  S  S60  1  0.42347368  0.57652632  0.07652632  1
  S  S61  1  0.92347368  0.92347368  0.92347368  1
  S  S62  1  0.16945600  0.57689730  0.25339323  1
  S  S63  1  0.66945600  0.92310270  0.74660677  1
  S  S64  1  0.16945600  0.92310270  0.75339323  1
  S  S65  1  0.92310270  0.74660677  0.66945600  1
  S  S66  1  0.57689730  0.24660677  0.66945600  1
  S  S67  1  0.25339323  0.16945600  0.57689730  1
  S  S68  1  0.74660677  0.66945600  0.92310270  1
  S  S69  1  0.42347368  0.92347368  0.57652632  1
  S  S70  1  0.07652632  0.07652632  0.07652632  1
  S  S71  1  0.57652632  0.42347368  0.92347368  1
