# generated using pymatgen
data_CsGa3S5
_symmetry_space_group_name_H-M   'P 1'
_cell_length_a   12.83058619
_cell_length_b   6.97339220
_cell_length_c   10.80969582
_cell_angle_alpha   88.92175470
_cell_angle_beta   90.00000000
_cell_angle_gamma   90.00000000
_symmetry_Int_Tables_number   1
_chemical_formula_structural   CsGa3S5
_chemical_formula_sum   'Cs4 Ga12 S20'
_cell_volume   967.00151733
_cell_formula_units_Z   4
loop_
 _symmetry_equiv_pos_site_id
 _symmetry_equiv_pos_as_xyz
  1  'x, y, z'
loop_
 _atom_site_type_symbol
 _atom_site_label
 _atom_site_symmetry_multiplicity
 _atom_site_fract_x
 _atom_site_fract_y
 _atom_site_fract_z
 _atom_site_occupancy
  Cs  Cs0  1  0.41721047  0.86580138  0.36071234  1
  Cs  Cs1  1  0.08278953  0.36580138  0.36071234  1
  Cs  Cs2  1  0.91721047  0.63419862  0.63928766  1
  Cs  Cs3  1  0.58278953  0.13419862  0.63928766  1
  Ga  Ga4  1  0.79996304  0.98437005  0.32972994  1
  Ga  Ga5  1  0.20003696  0.01562995  0.67027006  1
  Ga  Ga6  1  0.29996304  0.51562995  0.67027006  1
  Ga  Ga7  1  0.46289855  0.39627704  0.12884649  1
  Ga  Ga8  1  0.70003696  0.48437005  0.32972994  1
  Ga  Ga9  1  0.72486455  0.26444408  0.01493920  1
  Ga  Ga10  1  0.96289855  0.10372296  0.87115351  1
  Ga  Ga11  1  0.03710145  0.89627704  0.12884649  1
  Ga  Ga12  1  0.77513545  0.76444408  0.01493920  1
  Ga  Ga13  1  0.27513545  0.73555592  0.98506080  1
  Ga  Ga14  1  0.53710145  0.60372296  0.87115351  1
  Ga  Ga15  1  0.22486455  0.23555592  0.98506080  1
  S  S16  1  0.28963087  0.00337333  0.86021816  1
  S  S17  1  0.55246856  0.29108460  0.95491405  1
  S  S18  1  0.71036913  0.99662667  0.13978184  1
  S  S19  1  0.20091985  0.73571725  0.56657233  1
  S  S20  1  0.70091985  0.76428275  0.43342767  1
  S  S21  1  0.29908015  0.23571725  0.56657233  1
  S  S22  1  0.78963087  0.49662667  0.13978184  1
  S  S23  1  0.21036913  0.50337333  0.86021816  1
  S  S24  1  0.96541083  0.87310305  0.31600672  1
  S  S25  1  0.53458917  0.37310305  0.31600672  1
  S  S26  1  0.03458917  0.12689695  0.68399328  1
  S  S27  1  0.44753144  0.70891540  0.04508595  1
  S  S28  1  0.94753144  0.79108460  0.95491405  1
  S  S29  1  0.05246856  0.20891540  0.04508595  1
  S  S30  1  0.79908015  0.26428275  0.43342767  1
  S  S31  1  0.81133933  0.25340374  0.83759019  1
  S  S32  1  0.68866067  0.75340374  0.83759019  1
  S  S33  1  0.31133933  0.24659626  0.16240981  1
  S  S34  1  0.18866067  0.74659626  0.16240981  1
  S  S35  1  0.46541083  0.62689695  0.68399328  1
