# generated using pymatgen
data_P2WO7
_symmetry_space_group_name_H-M   'P 1'
_cell_length_a   8.27459439
_cell_length_b   8.27459439
_cell_length_c   8.27459439
_cell_angle_alpha   90.00000000
_cell_angle_beta   90.00000000
_cell_angle_gamma   90.00000000
_symmetry_Int_Tables_number   1
_chemical_formula_structural   P2WO7
_chemical_formula_sum   'P8 W4 O28'
_cell_volume   566.55247776
_cell_formula_units_Z   4
loop_
 _symmetry_equiv_pos_site_id
 _symmetry_equiv_pos_as_xyz
  1  'x, y, z'
loop_
 _atom_site_type_symbol
 _atom_site_label
 _atom_site_symmetry_multiplicity
 _atom_site_fract_x
 _atom_site_fract_y
 _atom_site_fract_z
 _atom_site_occupancy
  P  P0  1  0.39019886  0.39019886  0.39019886  1
  P  P1  1  0.10980114  0.60980114  0.89019886  1
  P  P2  1  0.89019886  0.10980114  0.60980114  1
  P  P3  1  0.60980114  0.89019886  0.10980114  1
  P  P4  1  0.60980114  0.60980114  0.60980114  1
  P  P5  1  0.89019886  0.39019886  0.10980114  1
  P  P6  1  0.10980114  0.89019886  0.39019886  1
  P  P7  1  0.39019886  0.10980114  0.89019886  1
  W  W8  1  -0.00000000  0.00000000  0.00000000  1
  W  W9  1  0.50000000  0.00000000  0.50000000  1
  W  W10  1  0.50000000  0.50000000  0.00000000  1
  W  W11  1  -0.00000000  0.50000000  0.50000000  1
  O  O12  1  0.50000000  0.50000000  0.50000000  1
  O  O13  1  -0.00000000  0.50000000  0.00000000  1
  O  O14  1  -0.00000000  0.00000000  0.50000000  1
  O  O15  1  0.50000000  0.00000000  0.00000000  1
  O  O16  1  0.21839169  0.08837827  0.94422557  1
  O  O17  1  0.94422557  0.21839169  0.08837827  1
  O  O18  1  0.08837827  0.94422557  0.21839169  1
  O  O19  1  0.41162173  0.05577443  0.71839169  1
  O  O20  1  0.44422557  0.28160831  0.91162173  1
  O  O21  1  0.91162173  0.44422557  0.28160831  1
  O  O22  1  0.55577443  0.78160831  0.58837827  1
  O  O23  1  0.05577443  0.71839169  0.41162173  1
  O  O24  1  0.58837827  0.55577443  0.78160831  1
  O  O25  1  0.71839169  0.41162173  0.05577443  1
  O  O26  1  0.78160831  0.58837827  0.55577443  1
  O  O27  1  0.28160831  0.91162173  0.44422557  1
  O  O28  1  0.78160831  0.91162173  0.05577443  1
  O  O29  1  0.05577443  0.78160831  0.91162173  1
  O  O30  1  0.91162173  0.05577443  0.78160831  1
  O  O31  1  0.58837827  0.94422557  0.28160831  1
  O  O32  1  0.55577443  0.71839169  0.08837827  1
  O  O33  1  0.08837827  0.55577443  0.71839169  1
  O  O34  1  0.44422557  0.21839169  0.41162173  1
  O  O35  1  0.94422557  0.28160831  0.58837827  1
  O  O36  1  0.41162173  0.44422557  0.21839169  1
  O  O37  1  0.28160831  0.58837827  0.94422557  1
  O  O38  1  0.21839169  0.41162173  0.44422557  1
  O  O39  1  0.71839169  0.08837827  0.55577443  1
