# generated using pymatgen
data_ZnS
_symmetry_space_group_name_H-M   'P 1'
_cell_length_a   3.80603204
_cell_length_b   3.80603268
_cell_length_c   74.79618053
_cell_angle_alpha   90.00000000
_cell_angle_beta   90.00000000
_cell_angle_gamma   120.00001215
_symmetry_Int_Tables_number   1
_chemical_formula_structural   ZnS
_chemical_formula_sum   'Zn24 S24'
_cell_volume   938.32859767
_cell_formula_units_Z   24
loop_
 _symmetry_equiv_pos_site_id
 _symmetry_equiv_pos_as_xyz
  1  'x, y, z'
loop_
 _atom_site_type_symbol
 _atom_site_label
 _atom_site_symmetry_multiplicity
 _atom_site_fract_x
 _atom_site_fract_y
 _atom_site_fract_z
 _atom_site_occupancy
  Zn  Zn0  1  0.00000000  -0.00000000  0.16670214  1
  Zn  Zn1  1  0.33333300  0.66666700  0.79166527  1
  Zn  Zn2  1  0.66666700  0.33333300  0.45836719  1
  Zn  Zn3  1  0.00000000  -0.00000000  0.41668870  1
  Zn  Zn4  1  0.66666700  0.33333300  0.08335579  1
  Zn  Zn5  1  0.33333300  0.66666700  0.33335550  1
  Zn  Zn6  1  0.33333300  0.66666700  0.20838770  1
  Zn  Zn7  1  0.00000000  -0.00000000  0.58336688  1
  Zn  Zn8  1  -0.00000000  0.00000000  0.70836376  1
  Zn  Zn9  1  0.66666700  0.33333300  0.75001850  1
  Zn  Zn10  1  0.66666700  0.33333300  0.91669016  1
  Zn  Zn11  1  0.66666700  0.33333300  0.62505504  1
  Zn  Zn12  1  0.00000000  -0.00000000  0.83334972  1
  Zn  Zn13  1  0.33333300  0.66666700  0.66669939  1
  Zn  Zn14  1  0.33333300  0.66666700  0.12504072  1
  Zn  Zn15  1  0.33333300  0.66666700  0.04170258  1
  Zn  Zn16  1  -0.00000000  -0.00000000  0.00002300  1
  Zn  Zn17  1  -0.00000000  0.00000000  0.29170053  1
  Zn  Zn18  1  0.33333300  0.66666700  0.87502762  1
  Zn  Zn19  1  0.33333300  0.66666700  0.95836333  1
  Zn  Zn20  1  0.66666700  0.33333300  0.54170383  1
  Zn  Zn21  1  0.66666700  0.33333300  0.25003882  1
  Zn  Zn22  1  0.66666700  0.33333300  0.37500625  1
  Zn  Zn23  1  0.33333300  0.66666700  0.50003130  1
  S  S24  1  0.00000000  -0.00000000  0.19792652  1
  S  S25  1  0.33333300  0.66666700  0.53125347  1
  S  S26  1  0.33333300  0.66666700  0.90618970  1
  S  S27  1  0.66666700  0.33333300  0.94791522  1
  S  S28  1  0.33333300  0.66666700  0.15619562  1
  S  S29  1  0.66666700  0.33333300  0.28122832  1
  S  S30  1  0.66666700  0.33333300  0.11457850  1
  S  S31  1  0.00000000  -0.00000000  0.61459468  1
  S  S32  1  0.66666700  0.33333300  0.40618191  1
  S  S33  1  0.00000000  -0.00000000  0.73955256  1
  S  S34  1  0.66666700  0.33333300  0.78120908  1
  S  S35  1  0.66666700  0.33333300  0.48952424  1
  S  S36  1  0.33333300  0.66666700  0.82283906  1
  S  S37  1  0.00000000  -0.00000000  0.32288768  1
  S  S38  1  0.66666700  0.33333300  0.65623365  1
  S  S39  1  0.00000000  -0.00000000  0.86457536  1
  S  S40  1  0.33333300  0.66666700  0.07285673  1
  S  S41  1  0.33333300  0.66666700  0.36454370  1
  S  S42  1  0.33333300  0.66666700  0.69789467  1
  S  S43  1  0.33333300  0.66666700  0.23956378  1
  S  S44  1  0.33333300  0.66666700  0.98952231  1
  S  S45  1  0.00000000  -0.00000000  0.44791322  1
  S  S46  1  0.66666700  0.33333300  0.57286518  1
  S  S47  1  0.00000000  -0.00000000  0.03125014  1
