# generated using pymatgen
data_CoSeO4
_symmetry_space_group_name_H-M   'P 1'
_cell_length_a   4.89393738
_cell_length_b   4.89395285
_cell_length_c   6.52477230
_cell_angle_alpha   90.00732374
_cell_angle_beta   90.00334287
_cell_angle_gamma   112.29997095
_symmetry_Int_Tables_number   1
_chemical_formula_structural   CoSeO4
_chemical_formula_sum   'Co2 Se2 O8'
_cell_volume   144.58519292
_cell_formula_units_Z   2
loop_
 _symmetry_equiv_pos_site_id
 _symmetry_equiv_pos_as_xyz
  1  'x, y, z'
loop_
 _atom_site_type_symbol
 _atom_site_label
 _atom_site_symmetry_multiplicity
 _atom_site_fract_x
 _atom_site_fract_y
 _atom_site_fract_z
 _atom_site_occupancy
  Co  Co0  1  -0.00000000  0.00000000  0.00000000  1
  Co  Co1  1  -0.00000000  0.00000000  0.50000000  1
  Se  Se2  1  0.64983121  0.35009326  0.25006389  1
  Se  Se3  1  0.35016879  0.64990674  0.74993611  1
  O  O4  1  0.75808706  0.24191606  0.46321537  1
  O  O5  1  0.24191294  0.75808394  0.53678463  1
  O  O6  1  0.22252081  0.27887434  0.74993457  1
  O  O7  1  0.77747919  0.72112566  0.25006543  1
  O  O8  1  0.75810432  0.24196387  0.03688689  1
  O  O9  1  0.24189568  0.75803613  0.96311311  1
  O  O10  1  0.72125078  0.77782104  0.74997927  1
  O  O11  1  0.27874922  0.22217896  0.25002073  1
