# generated using pymatgen
data_K6Pb2O5
_symmetry_space_group_name_H-M   'P 1'
_cell_length_a   6.40620833
_cell_length_b   7.60697711
_cell_length_c   12.45444441
_cell_angle_alpha   78.84827554
_cell_angle_beta   84.13403459
_cell_angle_gamma   87.78337248
_symmetry_Int_Tables_number   1
_chemical_formula_structural   K6Pb2O5
_chemical_formula_sum   'K12 Pb4 O10'
_cell_volume   592.23948661
_cell_formula_units_Z   2
loop_
 _symmetry_equiv_pos_site_id
 _symmetry_equiv_pos_as_xyz
  1  'x, y, z'
loop_
 _atom_site_type_symbol
 _atom_site_label
 _atom_site_symmetry_multiplicity
 _atom_site_fract_x
 _atom_site_fract_y
 _atom_site_fract_z
 _atom_site_occupancy
  K  K0  1  0.43333265  0.60754559  0.36531884  1
  K  K1  1  0.56666735  0.39245441  0.63468116  1
  K  K2  1  0.92076710  0.40717378  0.38350785  1
  K  K3  1  0.07923290  0.59282622  0.61649215  1
  K  K4  1  0.31599497  0.94921333  0.12301470  1
  K  K5  1  0.68400503  0.05078667  0.87698530  1
  K  K6  1  0.30473848  0.48777927  0.12223044  1
  K  K7  1  0.69526152  0.51222073  0.87776956  1
  K  K8  1  0.77822671  0.70060238  0.12526459  1
  K  K9  1  0.22177329  0.29939762  0.87473541  1
  K  K10  1  0.40990834  0.13277248  0.37529573  1
  K  K11  1  0.59009166  0.86722752  0.62470427  1
  Pb  Pb12  1  0.91307858  0.87133260  0.35475899  1
  Pb  Pb13  1  0.08692142  0.12866740  0.64524101  1
  Pb  Pb14  1  0.75892521  0.21037736  0.13597779  1
  Pb  Pb15  1  0.24107479  0.78962264  0.86402221  1
  O  O16  1  0.64768585  0.94849954  0.24465233  1
  O  O17  1  0.35231415  0.05150046  0.75534767  1
  O  O18  1  0.51515447  0.24220792  0.02642595  1
  O  O19  1  0.48484553  0.75779208  0.97357405  1
  O  O20  1  0.74582665  0.67400318  0.47810841  1
  O  O21  1  0.25417335  0.32599682  0.52189159  1
  O  O22  1  0.61959938  0.38309313  0.24300931  1
  O  O23  1  0.38040062  0.61690687  0.75699069  1
  O  O24  1  0.08057839  0.69410074  0.25798109  1
  O  O25  1  0.91942161  0.30589926  0.74201891  1
