# generated using pymatgen
data_V2Hg2O7
_symmetry_space_group_name_H-M   'P 1'
_cell_length_a   3.61536336
_cell_length_b   7.19112210
_cell_length_c   21.76713486
_cell_angle_alpha   90.00000000
_cell_angle_beta   90.00000000
_cell_angle_gamma   90.00000000
_symmetry_Int_Tables_number   1
_chemical_formula_structural   V2Hg2O7
_chemical_formula_sum   'V8 Hg8 O28'
_cell_volume   565.91327702
_cell_formula_units_Z   4
loop_
 _symmetry_equiv_pos_site_id
 _symmetry_equiv_pos_as_xyz
  1  'x, y, z'
loop_
 _atom_site_type_symbol
 _atom_site_label
 _atom_site_symmetry_multiplicity
 _atom_site_fract_x
 _atom_site_fract_y
 _atom_site_fract_z
 _atom_site_occupancy
  V  V0  1  0.75000000  0.02291733  0.88137432  1
  V  V1  1  0.75000000  0.52291733  0.61862568  1
  V  V2  1  0.25000000  0.97708267  0.11862568  1
  V  V3  1  0.25000000  0.47708267  0.38137432  1
  V  V4  1  0.25000000  0.20261541  0.98010850  1
  V  V5  1  0.25000000  0.70261541  0.51989150  1
  V  V6  1  0.75000000  0.79738459  0.01989150  1
  V  V7  1  0.75000000  0.29738459  0.48010850  1
  Hg  Hg8  1  0.25000000  0.27149453  0.75293846  1
  Hg  Hg9  1  0.25000000  0.77149453  0.74706154  1
  Hg  Hg10  1  0.75000000  0.72850547  0.24706154  1
  Hg  Hg11  1  0.75000000  0.22850547  0.25293846  1
  Hg  Hg12  1  0.25000000  0.46687715  0.12756693  1
  Hg  Hg13  1  0.25000000  0.96687715  0.37243307  1
  Hg  Hg14  1  0.75000000  0.53312285  0.87243307  1
  Hg  Hg15  1  0.75000000  0.03312285  0.62756693  1
  O  O16  1  0.25000000  0.52748023  0.79970433  1
  O  O17  1  0.25000000  0.02748023  0.70029567  1
  O  O18  1  0.75000000  0.47251977  0.20029567  1
  O  O19  1  0.75000000  0.97251977  0.29970433  1
  O  O20  1  0.75000000  0.85962667  0.82639278  1
  O  O21  1  0.75000000  0.35962667  0.67360722  1
  O  O22  1  0.25000000  0.14037333  0.17360722  1
  O  O23  1  0.25000000  0.64037333  0.32639278  1
  O  O24  1  0.75000000  0.22403800  0.84071666  1
  O  O25  1  0.75000000  0.72403800  0.65928334  1
  O  O26  1  0.25000000  0.77596200  0.15928334  1
  O  O27  1  0.25000000  0.27596200  0.34071666  1
  O  O28  1  0.75000000  0.12514237  0.97131548  1
  O  O29  1  0.75000000  0.62514237  0.52868452  1
  O  O30  1  0.25000000  0.87485763  0.02868452  1
  O  O31  1  0.25000000  0.37485763  0.47131548  1
  O  O32  1  0.25000000  0.02884685  0.90561619  1
  O  O33  1  0.25000000  0.52884685  0.59438381  1
  O  O34  1  0.75000000  0.97115315  0.09438381  1
  O  O35  1  0.75000000  0.47115315  0.40561619  1
  O  O36  1  0.25000000  0.40621229  0.94561552  1
  O  O37  1  0.25000000  0.90621229  0.55438448  1
  O  O38  1  0.75000000  0.59378771  0.05438448  1
  O  O39  1  0.75000000  0.09378771  0.44561552  1
  O  O40  1  0.25000000  0.23994009  0.05747469  1
  O  O41  1  0.25000000  0.73994009  0.44252531  1
  O  O42  1  0.75000000  0.76005991  0.94252531  1
  O  O43  1  0.75000000  0.26005991  0.55747469  1
