# generated using pymatgen
data_HfNCl
_symmetry_space_group_name_H-M   'P 1'
_cell_length_a   9.74299539
_cell_length_b   9.74299539
_cell_length_c   9.74299571
_cell_angle_alpha   21.08102850
_cell_angle_beta   21.08102850
_cell_angle_gamma   21.08102959
_symmetry_Int_Tables_number   1
_chemical_formula_structural   HfNCl
_chemical_formula_sum   'Hf2 N2 Cl2'
_cell_volume   104.79245995
_cell_formula_units_Z   2
loop_
 _symmetry_equiv_pos_site_id
 _symmetry_equiv_pos_as_xyz
  1  'x, y, z'
loop_
 _atom_site_type_symbol
 _atom_site_label
 _atom_site_symmetry_multiplicity
 _atom_site_fract_x
 _atom_site_fract_y
 _atom_site_fract_z
 _atom_site_occupancy
  Hf  Hf0  1  0.87876347  0.87876347  0.87876347  1
  Hf  Hf1  1  0.12123653  0.12123653  0.12123653  1
  N  N2  1  0.80344154  0.80344154  0.80344154  1
  N  N3  1  0.19655846  0.19655846  0.19655846  1
  Cl  Cl4  1  0.60859855  0.60859855  0.60859855  1
  Cl  Cl5  1  0.39140145  0.39140145  0.39140145  1
