# generated using pymatgen
data_V2Te2O9
_symmetry_space_group_name_H-M   'P 1'
_cell_length_a   14.49778386
_cell_length_b   14.45148393
_cell_length_c   4.93577956
_cell_angle_alpha   80.67853634
_cell_angle_beta   79.66822675
_cell_angle_gamma   19.63163530
_symmetry_Int_Tables_number   1
_chemical_formula_structural   V2Te2O9
_chemical_formula_sum   'V4 Te4 O18'
_cell_volume   341.72518220
_cell_formula_units_Z   2
loop_
 _symmetry_equiv_pos_site_id
 _symmetry_equiv_pos_as_xyz
  1  'x, y, z'
loop_
 _atom_site_type_symbol
 _atom_site_label
 _atom_site_symmetry_multiplicity
 _atom_site_fract_x
 _atom_site_fract_y
 _atom_site_fract_z
 _atom_site_occupancy
  V  V0  1  0.80921650  0.01007096  0.59136544  1
  V  V1  1  0.24025290  0.44043524  0.66117184  1
  V  V2  1  0.66090115  0.65842463  0.24003907  1
  V  V3  1  0.59172173  0.58899927  0.80939998  1
  Te  Te4  1  0.26082505  0.14423890  0.72643929  1
  Te  Te5  1  0.38100921  0.52396962  0.10549614  1
  Te  Te6  1  0.72692934  0.86804194  0.26117265  1
  Te  Te7  1  0.10586127  0.98920113  0.38150004  1
  O  O8  1  0.06749276  0.54258465  0.41444077  1
  O  O9  1  0.70643792  0.18329040  0.27398085  1
  O  O10  1  0.27448605  0.83569152  0.70690815  1
  O  O11  1  0.32546803  0.67449917  0.32558916  1
  O  O12  1  0.34490991  0.84754968  0.14577451  1
  O  O13  1  0.41379996  0.97599623  0.06717096  1
  O  O14  1  0.74178182  0.35145718  0.93652639  1
  O  O15  1  0.80683921  0.47739849  0.94757416  1
  O  O16  1  0.27991876  0.31326197  0.89870053  1
  O  O17  1  0.58844212  0.10397991  0.40257520  1
  O  O18  1  0.48170420  0.30250774  0.77258344  1
  O  O19  1  0.14547519  0.66202975  0.34446286  1
  O  O20  1  0.57591098  0.92406507  0.57593349  1
  O  O21  1  0.89811709  0.50874884  0.27964563  1
  O  O22  1  0.40222736  0.90533089  0.58828728  1
  O  O23  1  0.93625904  0.97056897  0.74111002  1
  O  O24  1  0.94770469  0.76811763  0.80673258  1
  O  O25  1  0.77266276  0.44318323  0.48177456  1
