# generated using pymatgen
data_Na6PbO5
_symmetry_space_group_name_H-M   'P 1'
_cell_length_a   5.51780112
_cell_length_b   6.10351534
_cell_length_c   6.10351415
_cell_angle_alpha   78.21025848
_cell_angle_beta   63.12675877
_cell_angle_gamma   63.12673723
_symmetry_Int_Tables_number   1
_chemical_formula_structural   Na6PbO5
_chemical_formula_sum   'Na6 Pb1 O5'
_cell_volume   163.55512899
_cell_formula_units_Z   1
loop_
 _symmetry_equiv_pos_site_id
 _symmetry_equiv_pos_as_xyz
  1  'x, y, z'
loop_
 _atom_site_type_symbol
 _atom_site_label
 _atom_site_symmetry_multiplicity
 _atom_site_fract_x
 _atom_site_fract_y
 _atom_site_fract_z
 _atom_site_occupancy
  Na  Na0  1  0.79642335  0.60302513  0.00000000  1
  Na  Na1  1  0.39944848  -0.00000000  0.39697487  1
  Na  Na2  1  0.79642335  0.00000000  0.60302513  1
  Na  Na3  1  0.19323142  0.50000000  0.50000000  1
  Na  Na4  1  0.39944848  0.39697487  -0.00000000  1
  Na  Na5  1  0.69323142  0.50000000  0.50000000  1
  Pb  Pb6  1  0.03743248  -0.00000000  0.00000000  1
  O  O7  1  0.20647580  0.72690791  0.72690791  1
  O  O8  1  0.42082515  -0.00000000  0.00000000  1
  O  O9  1  0.93338371  0.27309209  0.72690791  1
  O  O10  1  0.66029162  0.27309209  0.27309209  1
  O  O11  1  0.93338371  0.72690791  0.27309209  1
