# generated using pymatgen
data_Na4Co3P4O15
_symmetry_space_group_name_H-M   'P 1'
_cell_length_a   6.59514230
_cell_length_b   10.64139783
_cell_length_c   18.24516217
_cell_angle_alpha   90.00000000
_cell_angle_beta   90.00000000
_cell_angle_gamma   90.00000000
_symmetry_Int_Tables_number   1
_chemical_formula_structural   Na4Co3P4O15
_chemical_formula_sum   'Na16 Co12 P16 O60'
_cell_volume   1280.47345019
_cell_formula_units_Z   4
loop_
 _symmetry_equiv_pos_site_id
 _symmetry_equiv_pos_as_xyz
  1  'x, y, z'
loop_
 _atom_site_type_symbol
 _atom_site_label
 _atom_site_symmetry_multiplicity
 _atom_site_fract_x
 _atom_site_fract_y
 _atom_site_fract_z
 _atom_site_occupancy
  Na  Na0  1  0.81921106  0.52312037  0.99346380  1
  Na  Na1  1  0.31921106  0.47687963  0.00653620  1
  Na  Na2  1  0.31921106  0.02312037  0.50653620  1
  Na  Na3  1  0.81921106  0.97687963  0.49346380  1
  Na  Na4  1  0.85164576  0.75272841  0.79548666  1
  Na  Na5  1  0.35164576  0.24727159  0.20451334  1
  Na  Na6  1  0.35164576  0.25272841  0.70451334  1
  Na  Na7  1  0.85164576  0.74727159  0.29548666  1
  Na  Na8  1  0.42782353  0.23600229  0.89428496  1
  Na  Na9  1  0.92782353  0.76399771  0.10571504  1
  Na  Na10  1  0.92782353  0.73600229  0.60571504  1
  Na  Na11  1  0.42782353  0.26399771  0.39428496  1
  Na  Na12  1  0.67383683  0.95902871  0.96205748  1
  Na  Na13  1  0.17383683  0.04097129  0.03794252  1
  Na  Na14  1  0.17383683  0.45902871  0.53794252  1
  Na  Na15  1  0.67383683  0.54097129  0.46205748  1
  Co  Co16  1  0.10302902  0.99737818  0.83374471  1
  Co  Co17  1  0.60302902  0.00262182  0.16625529  1
  Co  Co18  1  0.60302902  0.49737818  0.66625529  1
  Co  Co19  1  0.10302902  0.50262182  0.33374471  1
  Co  Co20  1  0.59230959  0.00471352  0.63927422  1
  Co  Co21  1  0.09230959  0.99528648  0.36072578  1
  Co  Co22  1  0.09230959  0.50471352  0.86072578  1
  Co  Co23  1  0.59230959  0.49528648  0.13927422  1
  Co  Co24  1  0.32542356  0.75772534  0.74259069  1
  Co  Co25  1  0.82542356  0.24227466  0.25740931  1
  Co  Co26  1  0.82542356  0.25772534  0.75740931  1
  Co  Co27  1  0.32542356  0.74227466  0.24259069  1
  P  P28  1  0.59818092  0.99818166  0.79247460  1
  P  P29  1  0.09818092  0.00181834  0.20752540  1
  P  P30  1  0.09818092  0.49818166  0.70752540  1
  P  P31  1  0.59818092  0.50181834  0.29247460  1
  P  P32  1  0.08780111  0.01368776  0.67925589  1
  P  P33  1  0.58780111  0.98631224  0.32074411  1
  P  P34  1  0.58780111  0.51368776  0.82074411  1
  P  P35  1  0.08780111  0.48631224  0.17925589  1
  P  P36  1  0.45528003  0.76300138  0.06838862  1
  P  P37  1  0.95528003  0.23699862  0.93161138  1
  P  P38  1  0.95528003  0.26300138  0.43161138  1
  P  P39  1  0.45528003  0.73699862  0.56838862  1
  P  P40  1  0.14668840  0.77231845  0.94868175  1
  P  P41  1  0.64668840  0.22768155  0.05131825  1
  P  P42  1  0.64668840  0.27231845  0.55131825  1
  P  P43  1  0.14668840  0.72768155  0.44868175  1
  O  O44  1  0.55926404  0.88790848  0.73627357  1
  O  O45  1  0.05926404  0.11209152  0.26372643  1
  O  O46  1  0.05926404  0.38790848  0.76372643  1
  O  O47  1  0.55926404  0.61209152  0.23627357  1
  O  O48  1  0.41956525  0.02370053  0.84380705  1
  O  O49  1  0.91956525  0.97629947  0.15619295  1
  O  O50  1  0.91956525  0.52370053  0.65619295  1
  O  O51  1  0.41956525  0.47629947  0.34380705  1
  O  O52  1  0.78796372  0.96456193  0.83825223  1
  O  O53  1  0.28796372  0.03543807  0.16174777  1
  O  O54  1  0.28796372  0.46456193  0.66174777  1
  O  O55  1  0.78796372  0.53543807  0.33825223  1
  O  O56  1  0.62738702  0.11459105  0.73985716  1
  O  O57  1  0.12738702  0.88540895  0.26014284  1
  O  O58  1  0.12738702  0.61459105  0.76014284  1
  O  O59  1  0.62738702  0.38540895  0.23985716  1
  O  O60  1  0.11352302  0.89739052  0.73204267  1
  O  O61  1  0.61352302  0.10260948  0.26795733  1
  O  O62  1  0.61352302  0.39739052  0.76795733  1
  O  O63  1  0.11352302  0.60260948  0.23204267  1
  O  O64  1  0.90801752  0.98749575  0.62719745  1
  O  O65  1  0.40801752  0.01250425  0.37280255  1
  O  O66  1  0.40801752  0.48749575  0.87280255  1
  O  O67  1  0.90801752  0.51250425  0.12719745  1
  O  O68  1  0.05382077  0.12600418  0.73420196  1
  O  O69  1  0.55382077  0.87399582  0.26579804  1
  O  O70  1  0.55382077  0.62600418  0.76579804  1
  O  O71  1  0.05382077  0.37399582  0.23420196  1
  O  O72  1  0.28210782  0.04290361  0.63501028  1
  O  O73  1  0.78210782  0.95709639  0.36498972  1
  O  O74  1  0.78210782  0.54290361  0.86498972  1
  O  O75  1  0.28210782  0.45709639  0.13501028  1
  O  O76  1  0.37030508  0.80232807  0.98681141  1
  O  O77  1  0.87030508  0.19767193  0.01318859  1
  O  O78  1  0.87030508  0.30232807  0.51318859  1
  O  O79  1  0.37030508  0.69767193  0.48681141  1
  O  O80  1  0.56654133  0.63696049  0.05760953  1
  O  O81  1  0.06654133  0.36303951  0.94239047  1
  O  O82  1  0.06654133  0.13696049  0.44239047  1
  O  O83  1  0.56654133  0.86303951  0.55760953  1
  O  O84  1  0.28066348  0.75692493  0.12247755  1
  O  O85  1  0.78066348  0.24307507  0.87752245  1
  O  O86  1  0.78066348  0.25692493  0.37752245  1
  O  O87  1  0.28066348  0.74307507  0.62247755  1
  O  O88  1  0.60614389  0.86963875  0.08387035  1
  O  O89  1  0.10614389  0.13036125  0.91612965  1
  O  O90  1  0.10614389  0.36963875  0.41612965  1
  O  O91  1  0.60614389  0.63036125  0.58387035  1
  O  O92  1  0.11108923  0.63007346  0.95631244  1
  O  O93  1  0.61108923  0.36992654  0.04368756  1
  O  O94  1  0.61108923  0.13007346  0.54368756  1
  O  O95  1  0.11108923  0.86992654  0.45631244  1
  O  O96  1  0.17067456  0.81176674  0.86848102  1
  O  O97  1  0.67067456  0.18823326  0.13151898  1
  O  O98  1  0.67067456  0.31176674  0.63151898  1
  O  O99  1  0.17067456  0.68823326  0.36848102  1
  O  O100  1  0.99600347  0.85273673  0.99070549  1
  O  O101  1  0.49600347  0.14726327  0.00929451  1
  O  O102  1  0.49600347  0.35273673  0.50929451  1
  O  O103  1  0.99600347  0.64726327  0.49070549  1
