# generated using pymatgen
data_Nd3NbO7
_symmetry_space_group_name_H-M   'P 1'
_cell_length_a   7.63382254
_cell_length_b   7.68303046
_cell_length_c   10.95639061
_cell_angle_alpha   90.00000000
_cell_angle_beta   90.00000000
_cell_angle_gamma   90.00000000
_symmetry_Int_Tables_number   1
_chemical_formula_structural   Nd3NbO7
_chemical_formula_sum   'Nd12 Nb4 O28'
_cell_volume   642.60207253
_cell_formula_units_Z   4
loop_
 _symmetry_equiv_pos_site_id
 _symmetry_equiv_pos_as_xyz
  1  'x, y, z'
loop_
 _atom_site_type_symbol
 _atom_site_label
 _atom_site_symmetry_multiplicity
 _atom_site_fract_x
 _atom_site_fract_y
 _atom_site_fract_z
 _atom_site_occupancy
  Nd  Nd0  1  0.48716347  0.29140275  0.25000000  1
  Nd  Nd1  1  0.74935171  0.54491018  0.47574788  1
  Nd  Nd2  1  0.25064829  0.45508982  0.52425212  1
  Nd  Nd3  1  0.98716347  0.20859725  0.25000000  1
  Nd  Nd4  1  0.75064829  0.04491018  0.97574788  1
  Nd  Nd5  1  0.75064829  0.04491018  0.52425212  1
  Nd  Nd6  1  0.51283653  0.70859725  0.75000000  1
  Nd  Nd7  1  0.25064829  0.45508982  0.97574788  1
  Nd  Nd8  1  0.01283653  0.79140275  0.75000000  1
  Nd  Nd9  1  0.24935171  0.95508982  0.02425212  1
  Nd  Nd10  1  0.74935171  0.54491018  0.02425212  1
  Nd  Nd11  1  0.24935171  0.95508982  0.47574788  1
  Nb  Nb12  1  0.49552987  0.75220146  0.25000000  1
  Nb  Nb13  1  0.99552987  0.74779854  0.25000000  1
  Nb  Nb14  1  0.00447013  0.25220146  0.75000000  1
  Nb  Nb15  1  0.50447013  0.24779854  0.75000000  1
  O  O16  1  0.03721402  0.04981514  0.62700194  1
  O  O17  1  0.96278598  0.95018486  0.12700194  1
  O  O18  1  0.75275394  0.66724234  0.25000000  1
  O  O19  1  0.53721402  0.45018486  0.62700194  1
  O  O20  1  0.96278598  0.95018486  0.37299806  1
  O  O21  1  0.25687769  0.72809268  0.61752401  1
  O  O22  1  0.25275394  0.83275766  0.25000000  1
  O  O23  1  0.46278598  0.54981514  0.37299806  1
  O  O24  1  0.24312231  0.22809268  0.38247599  1
  O  O25  1  0.45605483  0.09322703  0.61345289  1
  O  O26  1  0.74312231  0.27190732  0.11752401  1
  O  O27  1  0.45605483  0.09322703  0.88654711  1
  O  O28  1  0.74312231  0.27190732  0.38247599  1
  O  O29  1  0.95605483  0.40677297  0.88654711  1
  O  O30  1  0.24724606  0.33275766  0.75000000  1
  O  O31  1  0.54394517  0.90677297  0.38654711  1
  O  O32  1  0.04394517  0.59322703  0.11345289  1
  O  O33  1  0.95605483  0.40677297  0.61345289  1
  O  O34  1  0.24312231  0.22809268  0.11752401  1
  O  O35  1  0.54394517  0.90677297  0.11345289  1
  O  O36  1  0.74724606  0.16724234  0.75000000  1
  O  O37  1  0.46278598  0.54981514  0.12700194  1
  O  O38  1  0.75687769  0.77190732  0.88247599  1
  O  O39  1  0.25687769  0.72809268  0.88247599  1
  O  O40  1  0.53721402  0.45018486  0.87299806  1
  O  O41  1  0.04394517  0.59322703  0.38654711  1
  O  O42  1  0.75687769  0.77190732  0.61752401  1
  O  O43  1  0.03721402  0.04981514  0.87299806  1
