# generated using pymatgen
data_Tl2(SeO3)3
_symmetry_space_group_name_H-M   'P 1'
_cell_length_a   11.35790593
_cell_length_b   4.62528524
_cell_length_c   17.13052527
_cell_angle_alpha   80.89824145
_cell_angle_beta   90.00000000
_cell_angle_gamma   90.00000000
_symmetry_Int_Tables_number   1
_chemical_formula_structural   Tl2(SeO3)3
_chemical_formula_sum   'Tl8 Se12 O36'
_cell_volume   888.59635603
_cell_formula_units_Z   4
loop_
 _symmetry_equiv_pos_site_id
 _symmetry_equiv_pos_as_xyz
  1  'x, y, z'
loop_
 _atom_site_type_symbol
 _atom_site_label
 _atom_site_symmetry_multiplicity
 _atom_site_fract_x
 _atom_site_fract_y
 _atom_site_fract_z
 _atom_site_occupancy
  Tl  Tl0  1  0.06003566  0.88074935  0.29373876  1
  Tl  Tl1  1  0.56003566  0.11925065  0.20626124  1
  Tl  Tl2  1  0.85044999  0.60624568  0.12443194  1
  Tl  Tl3  1  0.64955001  0.60624568  0.62443194  1
  Tl  Tl4  1  0.93996434  0.11925065  0.70626124  1
  Tl  Tl5  1  0.35044999  0.39375432  0.37556806  1
  Tl  Tl6  1  0.43996434  0.88074935  0.79373876  1
  Tl  Tl7  1  0.14955001  0.39375432  0.87556806  1
  Se  Se8  1  0.32025610  0.62532972  0.19065940  1
  Se  Se9  1  0.05577323  0.18692430  0.08795137  1
  Se  Se10  1  0.17974390  0.62532972  0.69065940  1
  Se  Se11  1  0.39693931  0.26845870  0.95154900  1
  Se  Se12  1  0.89693931  0.73154130  0.54845100  1
  Se  Se13  1  0.60306069  0.73154130  0.04845100  1
  Se  Se14  1  0.94422677  0.81307570  0.91204863  1
  Se  Se15  1  0.67974390  0.37467028  0.80934060  1
  Se  Se16  1  0.55577323  0.81307570  0.41204863  1
  Se  Se17  1  0.82025610  0.37467028  0.30934060  1
  Se  Se18  1  0.44422677  0.18692430  0.58795137  1
  Se  Se19  1  0.10306069  0.26845870  0.45154900  1
  O  O20  1  0.12382719  0.09337398  0.17751291  1
  O  O21  1  0.33523594  0.14090912  0.87014899  1
  O  O22  1  0.83523594  0.85909088  0.62985101  1
  O  O23  1  0.52654166  0.43302312  0.09125739  1
  O  O24  1  0.89207583  0.06020925  0.33985209  1
  O  O25  1  0.03371528  0.55666210  0.08310945  1
  O  O26  1  0.10792417  0.93979075  0.66014791  1
  O  O27  1  0.73391120  0.59316872  0.02130032  1
  O  O28  1  0.66476406  0.85909088  0.12985101  1
  O  O29  1  0.37617281  0.09337398  0.67751291  1
  O  O30  1  0.08894854  0.90820780  0.89104607  1
  O  O31  1  0.53371528  0.44333790  0.41689055  1
  O  O32  1  0.16476406  0.14090912  0.37014899  1
  O  O33  1  0.92803283  0.57376985  0.24970787  1
  O  O34  1  0.23391120  0.40683128  0.47869968  1
  O  O35  1  0.60792417  0.06020925  0.83985209  1
  O  O36  1  0.76608880  0.59316872  0.52130032  1
  O  O37  1  0.75686550  0.32790053  0.72419595  1
  O  O38  1  0.42803283  0.42623015  0.25029213  1
  O  O39  1  0.02654166  0.56697688  0.40874261  1
  O  O40  1  0.62382719  0.90662602  0.32248709  1
  O  O41  1  0.57196717  0.57376985  0.74970787  1
  O  O42  1  0.58894854  0.09179220  0.60895393  1
  O  O43  1  0.39207583  0.93979075  0.16014791  1
  O  O44  1  0.97345834  0.43302312  0.59125739  1
  O  O45  1  0.87617281  0.90662602  0.82248709  1
  O  O46  1  0.24313450  0.67209947  0.27580405  1
  O  O47  1  0.96628472  0.44333790  0.91689055  1
  O  O48  1  0.41105146  0.90820780  0.39104607  1
  O  O49  1  0.91105146  0.09179220  0.10895393  1
  O  O50  1  0.47345834  0.56697688  0.90874261  1
  O  O51  1  0.25686550  0.67209947  0.77580405  1
  O  O52  1  0.46628472  0.55666210  0.58310945  1
  O  O53  1  0.07196717  0.42623015  0.75029213  1
  O  O54  1  0.74313450  0.32790053  0.22419595  1
  O  O55  1  0.26608880  0.40683128  0.97869968  1
