# generated using pymatgen
data_RbReCl4
_symmetry_space_group_name_H-M   'P 1'
_cell_length_a   9.18245007
_cell_length_b   9.18245007
_cell_length_c   12.27425722
_cell_angle_alpha   90.00000000
_cell_angle_beta   90.00000000
_cell_angle_gamma   109.46598287
_symmetry_Int_Tables_number   1
_chemical_formula_structural   RbReCl4
_chemical_formula_sum   'Rb6 Re6 Cl24'
_cell_volume   975.77602868
_cell_formula_units_Z   6
loop_
 _symmetry_equiv_pos_site_id
 _symmetry_equiv_pos_as_xyz
  1  'x, y, z'
loop_
 _atom_site_type_symbol
 _atom_site_label
 _atom_site_symmetry_multiplicity
 _atom_site_fract_x
 _atom_site_fract_y
 _atom_site_fract_z
 _atom_site_occupancy
  Rb  Rb0  1  0.24823865  0.24823865  -0.00000000  1
  Rb  Rb1  1  0.25269696  0.74730304  0.75000000  1
  Rb  Rb2  1  0.24823865  0.24823865  0.50000000  1
  Rb  Rb3  1  0.75176135  0.75176135  0.50000000  1
  Rb  Rb4  1  0.75176135  0.75176135  -0.00000000  1
  Rb  Rb5  1  0.74730304  0.25269696  0.25000000  1
  Re  Re6  1  0.78774282  0.21225718  0.65036407  1
  Re  Re7  1  0.78774282  0.21225718  0.84963593  1
  Re  Re8  1  0.21225718  0.78774282  0.34963593  1
  Re  Re9  1  0.64614135  0.35385865  0.75000000  1
  Re  Re10  1  0.21225718  0.78774282  0.15036407  1
  Re  Re11  1  0.35385865  0.64614135  0.25000000  1
  Cl  Cl12  1  0.87305207  0.12694793  0.46583380  1
  Cl  Cl13  1  0.47268888  0.52731112  0.75000000  1
  Cl  Cl14  1  0.01763104  0.41114976  0.87840401  1
  Cl  Cl15  1  0.35324760  0.64675240  0.44832644  1
  Cl  Cl16  1  0.41114976  0.01763104  0.37840401  1
  Cl  Cl17  1  0.98236896  0.58885024  0.12159599  1
  Cl  Cl18  1  0.35324760  0.64675240  0.05167356  1
  Cl  Cl19  1  0.41114976  0.01763104  0.12159599  1
  Cl  Cl20  1  0.58885024  0.98236896  0.62159599  1
  Cl  Cl21  1  0.12694793  0.87305207  0.53416620  1
  Cl  Cl22  1  0.40048953  0.16822649  0.75000000  1
  Cl  Cl23  1  0.52731112  0.47268888  0.25000000  1
  Cl  Cl24  1  0.98236896  0.58885024  0.37840401  1
  Cl  Cl25  1  0.87305207  0.12694793  0.03416620  1
  Cl  Cl26  1  0.07273752  0.92726248  0.25000000  1
  Cl  Cl27  1  0.58885024  0.98236896  0.87840401  1
  Cl  Cl28  1  0.83177351  0.59951047  0.75000000  1
  Cl  Cl29  1  0.12694793  0.87305207  0.96583380  1
  Cl  Cl30  1  0.01763104  0.41114976  0.62159599  1
  Cl  Cl31  1  0.16822649  0.40048953  0.25000000  1
  Cl  Cl32  1  0.92726248  0.07273752  0.75000000  1
  Cl  Cl33  1  0.59951047  0.83177351  0.25000000  1
  Cl  Cl34  1  0.64675240  0.35324760  0.55167356  1
  Cl  Cl35  1  0.64675240  0.35324760  0.94832644  1
