# generated using pymatgen
data_K2Mo3O10
_symmetry_space_group_name_H-M   'P 1'
_cell_length_a   8.01128311
_cell_length_b   8.01128311
_cell_length_c   8.90453807
_cell_angle_alpha   82.14649536
_cell_angle_beta   82.14649536
_cell_angle_gamma   59.09902457
_symmetry_Int_Tables_number   1
_chemical_formula_structural   K2Mo3O10
_chemical_formula_sum   'K4 Mo6 O20'
_cell_volume   484.29141942
_cell_formula_units_Z   2
loop_
 _symmetry_equiv_pos_site_id
 _symmetry_equiv_pos_as_xyz
  1  'x, y, z'
loop_
 _atom_site_type_symbol
 _atom_site_label
 _atom_site_symmetry_multiplicity
 _atom_site_fract_x
 _atom_site_fract_y
 _atom_site_fract_z
 _atom_site_occupancy
  K  K0  1  0.59311992  0.77716165  0.84326091  1
  K  K1  1  0.22283835  0.40688008  0.65673909  1
  K  K2  1  0.40688008  0.22283835  0.15673909  1
  K  K3  1  0.77716165  0.59311992  0.34326091  1
  Mo  Mo4  1  0.81291475  0.96825991  0.51886034  1
  Mo  Mo5  1  0.03174009  0.18708525  0.98113966  1
  Mo  Mo6  1  0.18708525  0.03174009  0.48113966  1
  Mo  Mo7  1  0.96825991  0.81291475  0.01886034  1
  Mo  Mo8  1  0.30515623  0.69484377  0.25000000  1
  Mo  Mo9  1  0.69484377  0.30515623  0.75000000  1
  O  O10  1  0.74070057  0.84530601  0.08118188  1
  O  O11  1  0.15469399  0.25929943  0.41881812  1
  O  O12  1  0.25929943  0.15469399  0.91881812  1
  O  O13  1  0.84530601  0.74070057  0.58118188  1
  O  O14  1  0.88298738  0.06580034  0.91097407  1
  O  O15  1  0.93419966  0.11701262  0.58902593  1
  O  O16  1  0.11701262  0.93419966  0.08902593  1
  O  O17  1  0.06580034  0.88298738  0.41097407  1
  O  O18  1  0.67133594  0.05383072  0.36861001  1
  O  O19  1  0.94616928  0.32866406  0.13138999  1
  O  O20  1  0.32866406  0.94616928  0.63138999  1
  O  O21  1  0.05383072  0.67133594  0.86861001  1
  O  O22  1  0.36398051  0.87961091  0.32181905  1
  O  O23  1  0.12038909  0.63601949  0.17818095  1
  O  O24  1  0.63601949  0.12038909  0.67818095  1
  O  O25  1  0.87961091  0.36398051  0.82181905  1
  O  O26  1  0.49434454  0.61623171  0.11271119  1
  O  O27  1  0.38376829  0.50565546  0.38728881  1
  O  O28  1  0.50565546  0.38376829  0.88728881  1
  O  O29  1  0.61623171  0.49434454  0.61271119  1
